REMARK  Name = 91820057
REMARK  8 active torsions:
REMARK  status: ('A' for Active; 'I' for Inactive)
REMARK    1  A    between atoms: C_1  and  C_2
REMARK    2  A    between atoms: N_4  and  C_5
REMARK    3  A    between atoms: C_6  and  O_7
REMARK    4  A    between atoms: C_9  and  C_10
REMARK    5  A    between atoms: C_10  and  O_11
REMARK    6  A    between atoms: O_11  and  S_12
REMARK    7  A    between atoms: C_16  and  O_17
REMARK    8  A    between atoms: C_18  and  O_19
REMARK                            x       y       z     vdW  Elec       q    Type
REMARK                         _______ _______ _______ _____ _____    ______ ____
ROOT
ATOM      1  C   UNL     1      -0.122  -0.654   0.651  0.00  0.00    +0.000 C 
ATOM      2  C   UNL     1       1.214  -1.166   0.075  0.00  0.00    +0.000 C 
ATOM      3  O   UNL     1       2.235  -0.194   0.242  0.00  0.00    +0.000 OA
ATOM      4  C   UNL     1       1.951   0.960  -0.532  0.00  0.00    +0.000 C 
ATOM      5  C   UNL     1       0.674   1.669  -0.011  0.00  0.00    +0.000 C 
ATOM      6  C   UNL     1      -0.511   0.684  -0.014  0.00  0.00    +0.000 C 
ENDROOT
BRANCH   1  10
ATOM      7  C   UNL     1      -3.245  -2.955   1.078  0.00  0.00    +0.000 C 
ATOM      8  C   UNL     1      -2.152  -1.995   1.414  0.00  0.00    +0.000 C 
ATOM      9  O   UNL     1      -2.116  -1.471   2.560  0.00  0.00    +0.000 OA
ATOM     10  N   UNL     1      -1.175  -1.649   0.422  0.00  0.00    +0.000 N 
ATOM     11  H   UNL     1      -1.292  -2.037  -0.542  0.00  0.00    +0.000 HD
ENDBRANCH   1  10
BRANCH   2  12
ATOM     12  O   UNL     1       1.584  -2.332   0.759  0.00  0.00    +0.000 OA
ATOM     13  H   UNL     1       2.385  -2.689   0.293  0.00  0.00    +0.000 HD
ENDBRANCH   2  12
BRANCH   5  14
ATOM     14  O   UNL     1       0.864   2.235   1.266  0.00  0.00    +0.000 OA
ATOM     15  H   UNL     1       1.163   1.518   1.881  0.00  0.00    +0.000 HD
ENDBRANCH   5  14
BRANCH   6  16
ATOM     16  O   UNL     1      -1.604   1.263   0.653  0.00  0.00    +0.000 OA
ATOM     17  H   UNL     1      -2.421   0.809   0.319  0.00  0.00    +0.000 HD
ENDBRANCH   6  16
BRANCH   4  18
ATOM     18  C   UNL     1       3.172   1.890  -0.530  0.00  0.00    +0.000 C 
BRANCH  18  19
ATOM     19  O   UNL     1       3.585   2.151   0.791  0.00  0.00    +0.000 OA
BRANCH  19  20
ATOM     20  S   UNL     1       4.929   3.180   0.738  0.00  0.00    +0.000 S 
ATOM     21  O   UNL     1       5.329   3.527   2.143  0.00  0.00    +0.000 OA
ATOM     22  O   UNL     1       6.080   2.493   0.058  0.00  0.00    +0.000 OA
ATOM     23  O   UNL     1       4.549   4.597  -0.083  0.00  0.00    +0.000 OA
ENDBRANCH  19  20
ENDBRANCH  18  19
ENDBRANCH   4  18
TORSDOF 7
