REMARK  Name = 441477
REMARK  6 active torsions:
REMARK  status: ('A' for Active; 'I' for Inactive)
REMARK    1  A    between atoms: N_1  and  C_2
REMARK    2  A    between atoms: C_3  and  O_4
REMARK    3  A    between atoms: C_6  and  C_7
REMARK    4  A    between atoms: C_7  and  O_8
REMARK    5  A    between atoms: C_9  and  O_10
REMARK    6  A    between atoms: C_11  and  O_12
REMARK                            x       y       z     vdW  Elec       q    Type
REMARK                         _______ _______ _______ _____ _____    ______ ____
ROOT
ATOM      1  C   UNL     1       0.941  -1.404   0.397  0.00  0.00    +0.000 C 
ATOM      2  C   UNL     1      -0.323  -1.183   1.252  0.00  0.00    +0.000 C 
ATOM      3  O   UNL     1      -0.556   0.190   1.544  0.00  0.00    +0.000 OA
ATOM      4  C   UNL     1      -0.698   1.016   0.394  0.00  0.00    +0.000 C 
ATOM      5  C   UNL     1       0.493   0.897  -0.601  0.00  0.00    +0.000 C 
ATOM      6  C   UNL     1       0.881  -0.564  -0.896  0.00  0.00    +0.000 C 
ENDROOT
BRANCH   1   7
ATOM      7  N   UNL     1       2.142  -1.076   1.171  0.00  0.00    +0.000 NA
ATOM      8  H   UNL     1       2.194  -1.721   1.994  0.00  0.00    +0.000 HD
ATOM      9  H   UNL     1       2.982  -1.295   0.588  0.00  0.00    +0.000 HD
ENDBRANCH   1   7
BRANCH   2  10
ATOM     10  O   UNL     1      -1.441  -1.782   0.651  0.00  0.00    +0.000 OA
ATOM     11  H   UNL     1      -2.178  -1.732   1.314  0.00  0.00    +0.000 HD
ENDBRANCH   2  10
BRANCH   5  12
ATOM     12  O   UNL     1       1.612   1.619  -0.141  0.00  0.00    +0.000 OA
ATOM     13  H   UNL     1       1.743   1.415   0.821  0.00  0.00    +0.000 HD
ENDBRANCH   5  12
BRANCH   6  14
ATOM     14  O   UNL     1      -0.046  -1.122  -1.792  0.00  0.00    +0.000 OA
ATOM     15  H   UNL     1       0.377  -1.931  -2.182  0.00  0.00    +0.000 HD
ENDBRANCH   6  14
BRANCH   4  16
ATOM     16  C   UNL     1      -2.088   0.873  -0.267  0.00  0.00    +0.000 C 
BRANCH  16  17
ATOM     17  O   UNL     1      -2.407   2.029  -0.997  0.00  0.00    +0.000 OA
ATOM     18  H   UNL     1      -2.085   1.887  -1.924  0.00  0.00    +0.000 HD
ENDBRANCH  16  17
ENDBRANCH   4  16
TORSDOF 6
