REMARK  Name = 644170
REMARK  7 active torsions:
REMARK  status: ('A' for Active; 'I' for Inactive)
REMARK    1  A    between atoms: C_1  and  C_2
REMARK    2  A    between atoms: N_4  and  C_5
REMARK    3  A    between atoms: C_6  and  O_7
REMARK    4  A    between atoms: C_9  and  C_10
REMARK    5  A    between atoms: C_10  and  O_11
REMARK    6  A    between atoms: C_12  and  O_13
REMARK    7  A    between atoms: C_14  and  O_15
REMARK                            x       y       z     vdW  Elec       q    Type
REMARK                         _______ _______ _______ _____ _____    ______ ____
ROOT
ATOM      1  C   UNL     1       1.017  -0.166   0.581  0.00  0.00    +0.000 C 
ATOM      2  C   UNL     1      -0.463  -0.403   0.209  0.00  0.00    +0.000 C 
ATOM      3  O   UNL     1      -1.326   0.176   1.174  0.00  0.00    +0.000 OA
ATOM      4  C   UNL     1      -1.179   1.587   1.277  0.00  0.00    +0.000 C 
ATOM      5  C   UNL     1       0.270   2.009   1.623  0.00  0.00    +0.000 C 
ATOM      6  C   UNL     1       1.302   1.340   0.692  0.00  0.00    +0.000 C 
ENDROOT
BRANCH   1  10
ATOM      7  C   UNL     1       4.156  -1.660  -1.186  0.00  0.00    +0.000 C 
ATOM      8  C   UNL     1       3.281  -1.085  -0.120  0.00  0.00    +0.000 C 
ATOM      9  O   UNL     1       3.747  -0.898   1.036  0.00  0.00    +0.000 OA
ATOM     10  N   UNL     1       1.911  -0.774  -0.412  0.00  0.00    +0.000 N 
ATOM     11  H   UNL     1       1.559  -0.957  -1.379  0.00  0.00    +0.000 HD
ENDBRANCH   1  10
BRANCH   2  12
ATOM     12  O   UNL     1      -0.716  -1.785   0.187  0.00  0.00    +0.000 OA
ATOM     13  H   UNL     1      -0.478  -2.118  -0.717  0.00  0.00    +0.000 HD
ENDBRANCH   2  12
BRANCH   5  14
ATOM     14  O   UNL     1       0.536   1.645   2.955  0.00  0.00    +0.000 OA
ATOM     15  H   UNL     1       1.319   2.180   3.251  0.00  0.00    +0.000 HD
ENDBRANCH   5  14
BRANCH   6  16
ATOM     16  O   UNL     1       1.275   1.931  -0.583  0.00  0.00    +0.000 OA
ATOM     17  H   UNL     1       1.718   2.815  -0.499  0.00  0.00    +0.000 HD
ENDBRANCH   6  16
BRANCH   4  18
ATOM     18  C   UNL     1      -1.779   2.344   0.071  0.00  0.00    +0.000 C 
BRANCH  18  19
ATOM     19  O   UNL     1      -3.115   1.968  -0.125  0.00  0.00    +0.000 OA
ATOM     20  H   UNL     1      -3.100   1.113  -0.630  0.00  0.00    +0.000 HD
ENDBRANCH  18  19
ENDBRANCH   4  18
TORSDOF 6
