REMARK  Name = 90659182
REMARK  9 active torsions:
REMARK  status: ('A' for Active; 'I' for Inactive)
REMARK    1  A    between atoms: C_1  and  C_2
REMARK    2  A    between atoms: N_4  and  C_5
REMARK    3  A    between atoms: C_6  and  O_7
REMARK    4  A    between atoms: C_9  and  C_10
REMARK    5  A    between atoms: C_10  and  O_11
REMARK    6  A    between atoms: C_12  and  O_13
REMARK    7  A    between atoms: O_13  and  C_14
REMARK    8  A    between atoms: C_14  and  C_15
REMARK    9  A    between atoms: C_17  and  O_18
REMARK                            x       y       z     vdW  Elec       q    Type
REMARK                         _______ _______ _______ _____ _____    ______ ____
ROOT
ATOM      1  C   UNL     1      -1.257  -1.661   0.150  0.00  0.00    +0.000 C 
ATOM      2  C   UNL     1      -2.116  -0.505  -0.405  0.00  0.00    +0.000 C 
ATOM      3  O   UNL     1      -1.467   0.148  -1.484  0.00  0.00    +0.000 OA
ATOM      4  C   UNL     1      -0.241   0.744  -1.083  0.00  0.00    +0.000 C 
ATOM      5  C   UNL     1       0.763  -0.332  -0.601  0.00  0.00    +0.000 C 
ATOM      6  C   UNL     1       0.135  -1.141   0.551  0.00  0.00    +0.000 C 
ENDROOT
BRANCH   1  10
ATOM      7  C   UNL     1      -0.895  -5.142  -1.579  0.00  0.00    +0.000 C 
ATOM      8  C   UNL     1      -1.103  -4.118  -0.511  0.00  0.00    +0.000 C 
ATOM      9  O   UNL     1      -1.213  -4.485   0.690  0.00  0.00    +0.000 OA
ATOM     10  N   UNL     1      -1.144  -2.726  -0.856  0.00  0.00    +0.000 N 
ATOM     11  H   UNL     1      -0.983  -2.463  -1.855  0.00  0.00    +0.000 HD
ENDBRANCH   1  10
BRANCH   2  12
ATOM     12  O   UNL     1      -2.450   0.416   0.605  0.00  0.00    +0.000 OA
ATOM     13  H   UNL     1      -3.122  -0.025   1.188  0.00  0.00    +0.000 HD
ENDBRANCH   2  12
BRANCH   6  14
ATOM     14  O   UNL     1       0.961  -2.223   0.900  0.00  0.00    +0.000 OA
ATOM     15  H   UNL     1       1.597  -1.896   1.588  0.00  0.00    +0.000 HD
ENDBRANCH   6  14
BRANCH   4  16
ATOM     16  C   UNL     1       0.314   1.524  -2.284  0.00  0.00    +0.000 C 
BRANCH  16  17
ATOM     17  O   UNL     1       1.391   2.330  -1.892  0.00  0.00    +0.000 OA
ATOM     18  H   UNL     1       1.712   2.782  -2.715  0.00  0.00    +0.000 HD
ENDBRANCH  16  17
ENDBRANCH   4  16
BRANCH   5  19
ATOM     19  O   UNL     1       1.960   0.305  -0.145  0.00  0.00    +0.000 OA
BRANCH  19  20
ATOM     20  C   UNL     1       3.223  -0.296  -0.180  0.00  0.00    +0.000 C 
ATOM     21  C   UNL     1       4.395   0.433   0.382  0.00  0.00    +0.000 C 
ATOM     22  O   UNL     1       3.377  -1.456  -0.650  0.00  0.00    +0.000 OA
ENDBRANCH  19  20
ENDBRANCH   5  19
TORSDOF 7
