REMARK  Name = 6971258
REMARK  8 active torsions:
REMARK  status: ('A' for Active; 'I' for Inactive)
REMARK    1  A    between atoms: O_2  and  C_3
REMARK    2  A    between atoms: C_3  and  C_27
REMARK    3  A    between atoms: N_4  and  C_5
REMARK    4  A    between atoms: C_7  and  O_9
REMARK    5  A    between atoms: C_12  and  C_14
REMARK    6  A    between atoms: C_14  and  O_17
REMARK    7  A    between atoms: C_19  and  O_21
REMARK    8  A    between atoms: C_23  and  O_25
REMARK                            x       y       z     vdW  Elec       q    Type
REMARK                         _______ _______ _______ _____ _____    ______ ____
ROOT
ATOM      1  C   UNL     1      -0.779   0.066   0.692  0.00  0.00    +0.000 C 
ATOM      2  C   UNL     1       0.242  -0.481  -0.335  0.00  0.00    +0.000 C 
ATOM      3  O   UNL     1       1.097   0.548  -0.816  0.00  0.00    +0.000 OA
ATOM      4  C   UNL     1       0.365   1.564  -1.485  0.00  0.00    +0.000 C 
ATOM      5  C   UNL     1      -0.599   2.277  -0.510  0.00  0.00    +0.000 C 
ATOM      6  C   UNL     1      -1.569   1.247   0.099  0.00  0.00    +0.000 C 
ENDROOT
BRANCH   1   8
ATOM      7  C   UNL     1      -1.464  -1.956   1.945  0.00  0.00    +0.000 C 
ATOM      8  N   UNL     1      -1.710  -0.984   1.113  0.00  0.00    +0.000 NA
ATOM      9  C   UNL     1      -2.542  -2.944   2.237  0.00  0.00    +0.000 C 
BRANCH   7  11
ATOM     10  H   UNL     1       0.534  -1.444   2.485  0.00  0.00    +0.000 HD
ATOM     11  O   UNL     1      -0.234  -2.093   2.595  0.00  0.00    +0.000 OA
ENDBRANCH   7  11
ENDBRANCH   1   8
BRANCH   2  12
ATOM     12  O   UNL     1      -0.410  -1.138  -1.394  0.00  0.00    +0.000 OA
ATOM     13  H   UNL     1       0.302  -1.547  -1.952  0.00  0.00    +0.000 HD
ENDBRANCH   2  12
BRANCH   5  14
ATOM     14  O   UNL     1       0.134   2.908   0.510  0.00  0.00    +0.000 OA
ATOM     15  H   UNL     1      -0.475   3.567   0.935  0.00  0.00    +0.000 HD
ENDBRANCH   5  14
BRANCH   6  16
ATOM     16  O   UNL     1      -2.465   0.784  -0.882  0.00  0.00    +0.000 OA
ATOM     17  H   UNL     1      -3.127   1.508  -1.030  0.00  0.00    +0.000 HD
ENDBRANCH   6  16
BRANCH   4  18
ATOM     18  C   UNL     1       1.352   2.561  -2.108  0.00  0.00    +0.000 C 
BRANCH  18  19
ATOM     19  O   UNL     1       2.177   1.915  -3.039  0.00  0.00    +0.000 OA
ATOM     20  H   UNL     1       1.631   1.777  -3.857  0.00  0.00    +0.000 HD
ENDBRANCH  18  19
ENDBRANCH   4  18
TORSDOF 7
