REMARK  Name = 4282259
REMARK  8 active torsions:
REMARK  status: ('A' for Active; 'I' for Inactive)
REMARK    1  A    between atoms: C_1  and  C_2
REMARK    2  A    between atoms: N_4  and  C_5
REMARK    3  A    between atoms: C_6  and  O_7
REMARK    4  A    between atoms: O_7  and  C_8
REMARK    5  A    between atoms: C_15  and  C_16
REMARK    6  A    between atoms: C_16  and  O_17
REMARK    7  A    between atoms: C_18  and  O_19
REMARK    8  A    between atoms: C_20  and  O_21
REMARK                            x       y       z     vdW  Elec       q    Type
REMARK                         _______ _______ _______ _____ _____    ______ ____
ROOT
ATOM      1  C   UNL     1       2.016  -0.924  -0.003  0.00  0.00    +0.000 C 
ATOM      2  C   UNL     1       1.492   0.527   0.097  0.00  0.00    +0.000 C 
ATOM      3  O   UNL     1       2.567   1.449  -0.005  0.00  0.00    +0.000 OA
ATOM      4  C   UNL     1       3.246   1.373  -1.252  0.00  0.00    +0.000 C 
ATOM      5  C   UNL     1       3.830  -0.042  -1.498  0.00  0.00    +0.000 C 
ATOM      6  C   UNL     1       2.753  -1.125  -1.334  0.00  0.00    +0.000 C 
ENDROOT
BRANCH   1  10
ATOM      7  C   UNL     1      -0.526  -3.576   1.321  0.00  0.00    +0.000 C 
ATOM      8  C   UNL     1       0.672  -2.685   1.262  0.00  0.00    +0.000 C 
ATOM      9  O   UNL     1       1.434  -2.607   2.262  0.00  0.00    +0.000 OA
ATOM     10  N   UNL     1       0.911  -1.883   0.096  0.00  0.00    +0.000 N 
ATOM     11  H   UNL     1       0.225  -1.934  -0.692  0.00  0.00    +0.000 HD
ENDBRANCH   1  10
BRANCH   5  12
ATOM     12  O   UNL     1       4.405  -0.136  -2.776  0.00  0.00    +0.000 OA
ATOM     13  H   UNL     1       5.253   0.378  -2.747  0.00  0.00    +0.000 HD
ENDBRANCH   5  12
BRANCH   6  14
ATOM     14  O   UNL     1       3.349  -2.397  -1.342  0.00  0.00    +0.000 OA
ATOM     15  H   UNL     1       3.526  -2.627  -2.292  0.00  0.00    +0.000 HD
ENDBRANCH   6  14
BRANCH   2  16
ATOM     16  O   UNL     1       0.881   0.729   1.375  0.00  0.00    +0.000 OA
BRANCH  16  17
ATOM     17  C   UNL     1      -0.442   0.417   1.737  0.00  0.00    +0.000 A 
ATOM     18  C   UNL     1      -0.770   0.452   3.099  0.00  0.00    +0.000 A 
ATOM     19  C   UNL     1      -2.064   0.142   3.528  0.00  0.00    +0.000 A 
ATOM     20  C   UNL     1      -3.046  -0.199   2.596  0.00  0.00    +0.000 A 
ATOM     21  C   UNL     1      -2.736  -0.227   1.235  0.00  0.00    +0.000 A 
ATOM     22  C   UNL     1      -1.443   0.082   0.801  0.00  0.00    +0.000 A 
ENDBRANCH  16  17
ENDBRANCH   2  16
BRANCH   4  23
ATOM     23  C   UNL     1       2.386   1.928  -2.415  0.00  0.00    +0.000 C 
BRANCH  23  24
ATOM     24  O   UNL     1       3.191   2.282  -3.508  0.00  0.00    +0.000 OA
ATOM     25  H   UNL     1       3.619   3.148  -3.279  0.00  0.00    +0.000 HD
ENDBRANCH  23  24
ENDBRANCH   4  23
TORSDOF 7
