REMARK  Name = 7067772
REMARK  9 active torsions:
REMARK  status: ('A' for Active; 'I' for Inactive)
REMARK    1  A    between atoms: O_2  and  C_3
REMARK    2  A    between atoms: N_4  and  C_6
REMARK    3  A    between atoms: C_8  and  O_10
REMARK    4  A    between atoms: C_13  and  C_15
REMARK    5  A    between atoms: C_15  and  O_18
REMARK    6  A    between atoms: C_20  and  O_22
REMARK    7  A    between atoms: C_24  and  O_26
REMARK    8  A    between atoms: N_28  and  N_29
REMARK    9  A    between atoms: N_28  and  C_31
REMARK                            x       y       z     vdW  Elec       q    Type
REMARK                         _______ _______ _______ _____ _____    ______ ____
ROOT
ATOM      1  C   UNL     1       0.632  -0.228  -0.342  0.00  0.00    +0.000 C 
ATOM      2  C   UNL     1      -0.151   0.396   0.835  0.00  0.00    +0.000 C 
ATOM      3  O   UNL     1       0.748   1.010   1.736  0.00  0.00    +0.000 OA
ATOM      4  C   UNL     1       1.435   0.029   2.500  0.00  0.00    +0.000 C 
ATOM      5  C   UNL     1       2.068  -1.096   1.614  0.00  0.00    +0.000 C 
ATOM      6  C   UNL     1       2.032  -0.733   0.110  0.00  0.00    +0.000 C 
ENDROOT
BRANCH   1   8
ATOM      7  C   UNL     1      -0.717  -1.304  -2.236  0.00  0.00    +0.000 C 
ATOM      8  N   UNL     1      -0.141  -1.337  -0.915  0.00  0.00    +0.000 N 
ATOM      9  H   UNL     1      -0.254  -2.200  -0.336  0.00  0.00    +0.000 HD
ATOM     10  N   UNL     1      -0.877  -2.412  -2.915  0.00  0.00    +0.000 N 
ATOM     11  C   UNL     1      -1.465  -2.379  -4.262  0.00  0.00    +0.000 C 
BRANCH   7  13
ATOM     12  H   UNL     1      -1.112   0.779  -2.269  0.00  0.00    +0.000 HD
ATOM     13  O   UNL     1      -1.121  -0.086  -2.792  0.00  0.00    +0.000 OA
ENDBRANCH   7  13
BRANCH  10  14
ATOM     14  N   UNL     1      -0.394  -3.625  -2.386  0.00  0.00    +0.000 NA
ATOM     15  O   UNL     1      -0.447  -4.693  -3.030  0.00  0.00    +0.000 OA
ENDBRANCH  10  14
ENDBRANCH   1   8
BRANCH   2  16
ATOM     16  O   UNL     1      -1.036   1.363   0.339  0.00  0.00    +0.000 OA
ATOM     17  H   UNL     1      -1.580   1.668   1.112  0.00  0.00    +0.000 HD
ENDBRANCH   2  16
BRANCH   5  18
ATOM     18  O   UNL     1       1.361  -2.293   1.827  0.00  0.00    +0.000 OA
ATOM     19  H   UNL     1       1.935  -3.034   1.498  0.00  0.00    +0.000 HD
ENDBRANCH   5  18
BRANCH   6  20
ATOM     20  O   UNL     1       3.034   0.210  -0.191  0.00  0.00    +0.000 OA
ATOM     21  H   UNL     1       2.789   1.070   0.239  0.00  0.00    +0.000 HD
ENDBRANCH   6  20
BRANCH   4  22
ATOM     22  C   UNL     1       2.498   0.740   3.347  0.00  0.00    +0.000 C 
BRANCH  22  23
ATOM     23  O   UNL     1       3.059  -0.154   4.267  0.00  0.00    +0.000 OA
ATOM     24  H   UNL     1       3.742   0.361   4.770  0.00  0.00    +0.000 HD
ENDBRANCH  22  23
ENDBRANCH   4  22
TORSDOF 8
