REMARK  Name = 5462244
REMARK  10 active torsions:
REMARK  status: ('A' for Active; 'I' for Inactive)
REMARK    1  A    between atoms: C_1  and  C_2
REMARK    2  A    between atoms: N_4  and  C_5
REMARK    3  A    between atoms: C_6  and  O_7
REMARK    4  A    between atoms: C_9  and  C_10
REMARK    5  A    between atoms: C_10  and  O_11
REMARK    6  A    between atoms: C_12  and  O_13
REMARK    7  A    between atoms: C_14  and  O_15
REMARK    8  A    between atoms: O_15  and  C_16
REMARK    9  A    between atoms: C_16  and  C_17
REMARK   10  A    between atoms: C_16  and  C_18
REMARK                            x       y       z     vdW  Elec       q    Type
REMARK                         _______ _______ _______ _____ _____    ______ ____
ROOT
ATOM      1  C   UNL     1       0.347   1.064   1.612  0.00  0.00    +0.000 C 
ATOM      2  C   UNL     1       0.618   1.950   2.846  0.00  0.00    +0.000 C 
ATOM      3  O   UNL     1       1.612   2.912   2.544  0.00  0.00    +0.000 OA
ATOM      4  C   UNL     1       2.861   2.287   2.300  0.00  0.00    +0.000 C 
ATOM      5  C   UNL     1       2.774   1.404   1.026  0.00  0.00    +0.000 C 
ATOM      6  C   UNL     1       1.644   0.363   1.171  0.00  0.00    +0.000 C 
ENDROOT
BRANCH   1  10
ATOM      7  C   UNL     1      -2.929  -1.062   1.659  0.00  0.00    +0.000 C 
ATOM      8  C   UNL     1      -1.931  -0.029   1.248  0.00  0.00    +0.000 C 
ATOM      9  O   UNL     1      -2.220   0.779   0.325  0.00  0.00    +0.000 OA
ATOM     10  N   UNL     1      -0.673   0.059   1.931  0.00  0.00    +0.000 N 
ATOM     11  H   UNL     1      -0.476  -0.621   2.700  0.00  0.00    +0.000 HD
ENDBRANCH   1  10
BRANCH   2  12
ATOM     12  O   UNL     1      -0.556   2.635   3.197  0.00  0.00    +0.000 OA
ATOM     13  H   UNL     1      -1.113   2.008   3.730  0.00  0.00    +0.000 HD
ENDBRANCH   2  12
BRANCH   5  14
ATOM     14  O   UNL     1       3.998   0.766   0.758  0.00  0.00    +0.000 OA
ATOM     15  H   UNL     1       4.228   0.213   1.550  0.00  0.00    +0.000 HD
ENDBRANCH   5  14
BRANCH   4  16
ATOM     16  C   UNL     1       3.919   3.393   2.146  0.00  0.00    +0.000 C 
BRANCH  16  17
ATOM     17  O   UNL     1       5.214   2.856   2.091  0.00  0.00    +0.000 OA
ATOM     18  H   UNL     1       5.447   2.579   3.015  0.00  0.00    +0.000 HD
ENDBRANCH  16  17
ENDBRANCH   4  16
BRANCH   6  19
ATOM     19  O   UNL     1       1.415  -0.264  -0.084  0.00  0.00    +0.000 OA
BRANCH  19  20
ATOM     20  C   UNL     1       1.951  -1.575  -0.129  0.00  0.00    +0.000 C 
ATOM     21  C   UNL     1       2.238  -1.937  -1.585  0.00  0.00    +0.000 C 
BRANCH  20  22
ATOM     22  C   UNL     1       0.973  -2.553   0.459  0.00  0.00    +0.000 C 
ATOM     23  O   UNL     1      -0.196  -2.639  -0.001  0.00  0.00    +0.000 OA
ATOM     24  O   UNL     1       1.355  -3.364   1.520  0.00  0.00    +0.000 OA
ENDBRANCH  20  22
ENDBRANCH  19  20
ENDBRANCH   6  19
TORSDOF 8
