REMARK  Name = 449462
REMARK  6 active torsions:
REMARK  status: ('A' for Active; 'I' for Inactive)
REMARK    1  A    between atoms: N_1  and  C_2
REMARK    2  A    between atoms: C_3  and  O_4
REMARK    3  A    between atoms: C_6  and  C_7
REMARK    4  A    between atoms: C_7  and  O_8
REMARK    5  A    between atoms: C_9  and  O_10
REMARK    6  A    between atoms: C_11  and  O_12
REMARK                            x       y       z     vdW  Elec       q    Type
REMARK                         _______ _______ _______ _____ _____    ______ ____
ROOT
ATOM      1  C   UNL     1       0.934   1.302   0.096  0.00  0.00    +0.000 C 
ATOM      2  C   UNL     1       1.814   0.250   0.809  0.00  0.00    +0.000 C 
ATOM      3  O   UNL     1       1.266  -0.182   2.049  0.00  0.00    +0.000 OA
ATOM      4  C   UNL     1      -0.049  -0.718   1.950  0.00  0.00    +0.000 C 
ATOM      5  C   UNL     1      -1.047   0.253   1.260  0.00  0.00    +0.000 C 
ATOM      6  C   UNL     1      -0.508   0.800  -0.073  0.00  0.00    +0.000 C 
ENDROOT
BRANCH   1   7
ATOM      7  N   UNL     1       0.949   2.581   0.814  0.00  0.00    +0.000 NA
ATOM      8  H   UNL     1       0.783   2.422   1.834  0.00  0.00    +0.000 HD
ATOM      9  H   UNL     1       1.902   3.003   0.723  0.00  0.00    +0.000 HD
ENDBRANCH   1   7
BRANCH   2  10
ATOM     10  O   UNL     1       2.077  -0.835  -0.042  0.00  0.00    +0.000 OA
ATOM     11  H   UNL     1       2.757  -1.394   0.416  0.00  0.00    +0.000 HD
ENDBRANCH   2  10
BRANCH   5  12
ATOM     12  O   UNL     1      -2.296  -0.357   1.057  0.00  0.00    +0.000 OA
ATOM     13  H   UNL     1      -2.726  -0.436   1.949  0.00  0.00    +0.000 HD
ENDBRANCH   5  12
BRANCH   6  14
ATOM     14  O   UNL     1      -0.547  -0.184  -1.076  0.00  0.00    +0.000 OA
ATOM     15  H   UNL     1      -1.478  -0.212  -1.421  0.00  0.00    +0.000 HD
ENDBRANCH   6  14
BRANCH   4  16
ATOM     16  C   UNL     1      -0.049  -2.164   1.397  0.00  0.00    +0.000 C 
BRANCH  16  17
ATOM     17  O   UNL     1      -1.220  -2.843   1.769  0.00  0.00    +0.000 OA
ATOM     18  H   UNL     1      -1.108  -3.108   2.719  0.00  0.00    +0.000 HD
ENDBRANCH  16  17
ENDBRANCH   4  16
TORSDOF 6
