REMARK  Name = 4282259
REMARK  9 active torsions:
REMARK  status: ('A' for Active; 'I' for Inactive)
REMARK    1  A    between atoms: O_2  and  C_3
REMARK    2  A    between atoms: C_3  and  C_37
REMARK    3  A    between atoms: N_4  and  C_5
REMARK    4  A    between atoms: C_7  and  O_9
REMARK    5  A    between atoms: C_11  and  O_13
REMARK    6  A    between atoms: C_15  and  C_17
REMARK    7  A    between atoms: C_17  and  O_20
REMARK    8  A    between atoms: C_23  and  O_25
REMARK    9  A    between atoms: O_25  and  C_26
REMARK                            x       y       z     vdW  Elec       q    Type
REMARK                         _______ _______ _______ _____ _____    ______ ____
ROOT
ATOM      1  C   UNL     1       0.075   0.168   1.096  0.00  0.00    +0.000 C 
ATOM      2  C   UNL     1       1.528  -0.294   0.876  0.00  0.00    +0.000 C 
ATOM      3  C   UNL     1       1.571  -1.820   0.661  0.00  0.00    +0.000 C 
ATOM      4  C   UNL     1       0.569  -2.211  -0.447  0.00  0.00    +0.000 C 
ATOM      5  O   UNL     1      -0.746  -1.807  -0.096  0.00  0.00    +0.000 OA
ATOM      6  C   UNL     1      -0.850  -0.393  -0.008  0.00  0.00    +0.000 C 
ENDROOT
BRANCH   1   8
ATOM      7  C   UNL     1      -0.825   2.380   1.764  0.00  0.00    +0.000 C 
ATOM      8  N   UNL     1       0.025   1.634   1.117  0.00  0.00    +0.000 NA
ATOM      9  C   UNL     1      -1.889   1.799   2.656  0.00  0.00    +0.000 C 
BRANCH   7  11
ATOM     10  H   UNL     1      -1.347   4.391   2.124  0.00  0.00    +0.000 HD
ATOM     11  O   UNL     1      -0.720   3.762   1.637  0.00  0.00    +0.000 OA
ENDBRANCH   7  11
ENDBRANCH   1   8
BRANCH   2  12
ATOM     12  O   UNL     1       2.082   0.368  -0.234  0.00  0.00    +0.000 OA
ATOM     13  H   UNL     1       3.067   0.259  -0.172  0.00  0.00    +0.000 HD
ENDBRANCH   2  12
BRANCH   3  14
ATOM     14  O   UNL     1       1.242  -2.483   1.856  0.00  0.00    +0.000 OA
ATOM     15  H   UNL     1       2.043  -2.431   2.442  0.00  0.00    +0.000 HD
ENDBRANCH   3  14
BRANCH   4  16
ATOM     16  C   UNL     1       0.577  -3.727  -0.689  0.00  0.00    +0.000 C 
BRANCH  16  17
ATOM     17  O   UNL     1      -0.215  -4.047  -1.802  0.00  0.00    +0.000 OA
ATOM     18  H   UNL     1      -1.159  -4.029  -1.496  0.00  0.00    +0.000 HD
ENDBRANCH  16  17
ENDBRANCH   4  16
BRANCH   6  19
ATOM     19  O   UNL     1      -0.575   0.231  -1.267  0.00  0.00    +0.000 OA
BRANCH  19  20
ATOM     20  C   UNL     1      -1.310   0.025  -2.445  0.00  0.00    +0.000 A 
ATOM     21  C   UNL     1      -2.455  -0.796  -2.492  0.00  0.00    +0.000 A 
ATOM     22  C   UNL     1      -3.146  -0.970  -3.696  0.00  0.00    +0.000 A 
ATOM     23  C   UNL     1      -2.705  -0.329  -4.856  0.00  0.00    +0.000 A 
ATOM     24  C   UNL     1      -1.573   0.489  -4.816  0.00  0.00    +0.000 A 
ATOM     25  C   UNL     1      -0.880   0.665  -3.614  0.00  0.00    +0.000 A 
ENDBRANCH  19  20
ENDBRANCH   6  19
TORSDOF 8
