REMARK  Name = 7067772
REMARK  9 active torsions:
REMARK  status: ('A' for Active; 'I' for Inactive)
REMARK    1  A    between atoms: O_2  and  C_3
REMARK    2  A    between atoms: N_4  and  C_6
REMARK    3  A    between atoms: C_8  and  O_10
REMARK    4  A    between atoms: C_13  and  C_15
REMARK    5  A    between atoms: C_15  and  O_18
REMARK    6  A    between atoms: C_20  and  O_22
REMARK    7  A    between atoms: C_24  and  O_26
REMARK    8  A    between atoms: N_28  and  N_29
REMARK    9  A    between atoms: N_28  and  C_31
REMARK                            x       y       z     vdW  Elec       q    Type
REMARK                         _______ _______ _______ _____ _____    ______ ____
ROOT
ATOM      1  C   UNL     1      -0.152  -0.613  -0.158  0.00  0.00    +0.000 C 
ATOM      2  C   UNL     1       0.709  -0.200  -1.378  0.00  0.00    +0.000 C 
ATOM      3  O   UNL     1       1.429   1.000  -1.133  0.00  0.00    +0.000 OA
ATOM      4  C   UNL     1       2.390   0.899  -0.082  0.00  0.00    +0.000 C 
ATOM      5  C   UNL     1       2.056  -0.152   1.015  0.00  0.00    +0.000 C 
ATOM      6  C   UNL     1       0.530  -0.236   1.181  0.00  0.00    +0.000 C 
ENDROOT
BRANCH   1   8
ATOM      7  C   UNL     1      -2.663  -0.621   0.248  0.00  0.00    +0.000 C 
ATOM      8  N   UNL     1      -1.468   0.029  -0.233  0.00  0.00    +0.000 N 
ATOM      9  H   UNL     1      -1.485   1.044  -0.482  0.00  0.00    +0.000 HD
ATOM     10  N   UNL     1      -3.853  -0.093   0.063  0.00  0.00    +0.000 N 
ATOM     11  C   UNL     1      -4.030   1.163  -0.684  0.00  0.00    +0.000 C 
BRANCH   7  13
ATOM     12  H   UNL     1      -3.307  -2.369   1.289  0.00  0.00    +0.000 HD
ATOM     13  O   UNL     1      -2.525  -1.838   0.926  0.00  0.00    +0.000 OA
ENDBRANCH   7  13
BRANCH  10  14
ATOM     14  N   UNL     1      -4.977  -0.738   0.617  0.00  0.00    +0.000 NA
ATOM     15  O   UNL     1      -6.127  -0.260   0.528  0.00  0.00    +0.000 OA
ENDBRANCH  10  14
ENDBRANCH   1   8
BRANCH   2  16
ATOM     16  O   UNL     1       1.577  -1.243  -1.746  0.00  0.00    +0.000 OA
ATOM     17  H   UNL     1       1.971  -0.986  -2.620  0.00  0.00    +0.000 HD
ENDBRANCH   2  16
BRANCH   5  18
ATOM     18  O   UNL     1       2.651   0.233   2.229  0.00  0.00    +0.000 OA
ATOM     19  H   UNL     1       2.727  -0.584   2.787  0.00  0.00    +0.000 HD
ENDBRANCH   5  18
BRANCH   6  20
ATOM     20  O   UNL     1       0.176  -1.142   2.196  0.00  0.00    +0.000 OA
ATOM     21  H   UNL     1       0.552  -2.029   1.953  0.00  0.00    +0.000 HD
ENDBRANCH   6  20
BRANCH   4  22
ATOM     22  C   UNL     1       3.798   0.695  -0.670  0.00  0.00    +0.000 C 
BRANCH  22  23
ATOM     23  O   UNL     1       4.780   0.845   0.319  0.00  0.00    +0.000 OA
ATOM     24  H   UNL     1       4.867   1.820   0.489  0.00  0.00    +0.000 HD
ENDBRANCH  22  23
ENDBRANCH   4  22
TORSDOF 8
