REMARK  Name = 440271
REMARK  9 active torsions:
REMARK  status: ('A' for Active; 'I' for Inactive)
REMARK    1  A    between atoms: C_1  and  C_2
REMARK    2  A    between atoms: C_2  and  O_3
REMARK    3  A    between atoms: N_4  and  C_5
REMARK    4  A    between atoms: C_6  and  O_7
REMARK    5  A    between atoms: C_9  and  C_10
REMARK    6  A    between atoms: C_10  and  O_11
REMARK    7  A    between atoms: O_11  and  S_12
REMARK    8  A    between atoms: C_16  and  O_17
REMARK    9  A    between atoms: C_18  and  O_19
REMARK                            x       y       z     vdW  Elec       q    Type
REMARK                         _______ _______ _______ _____ _____    ______ ____
ROOT
ATOM      1  C   UNL     1      -1.227  -0.066  -0.404  0.00  0.00    +0.000 C 
ATOM      2  C   UNL     1      -0.793  -0.214   1.072  0.00  0.00    +0.000 C 
ATOM      3  O   UNL     1       0.468   0.400   1.286  0.00  0.00    +0.000 OA
ATOM      4  C   UNL     1       1.483  -0.286   0.572  0.00  0.00    +0.000 C 
ATOM      5  C   UNL     1       1.257  -0.146  -0.955  0.00  0.00    +0.000 C 
ATOM      6  C   UNL     1      -0.146  -0.663  -1.329  0.00  0.00    +0.000 C 
ENDROOT
BRANCH   1   9
ATOM      7  C   UNL     1      -4.884  -1.099  -0.680  0.00  0.00    +0.000 C 
ATOM      8  C   UNL     1      -3.670  -0.262  -0.434  0.00  0.00    +0.000 C 
ATOM      9  N   UNL     1      -2.491  -0.771  -0.633  0.00  0.00    +0.000 NA
BRANCH   8  10
ATOM     10  O   UNL     1      -3.814   1.047   0.025  0.00  0.00    +0.000 OA
ATOM     11  H   UNL     1      -4.730   1.445   0.195  0.00  0.00    +0.000 HD
ENDBRANCH   8  10
ENDBRANCH   1   9
BRANCH   2  12
ATOM     12  O   UNL     1      -1.739   0.408   1.898  0.00  0.00    +0.000 OA
ATOM     13  H   UNL     1      -1.484   0.189   2.832  0.00  0.00    +0.000 HD
ENDBRANCH   2  12
BRANCH   5  14
ATOM     14  O   UNL     1       1.448   1.178  -1.399  0.00  0.00    +0.000 OA
ATOM     15  H   UNL     1       0.859   1.771  -0.866  0.00  0.00    +0.000 HD
ENDBRANCH   5  14
BRANCH   6  16
ATOM     16  O   UNL     1      -0.420  -0.346  -2.670  0.00  0.00    +0.000 OA
ATOM     17  H   UNL     1      -1.131  -0.969  -2.975  0.00  0.00    +0.000 HD
ENDBRANCH   6  16
BRANCH   4  18
ATOM     18  C   UNL     1       2.847   0.270   0.999  0.00  0.00    +0.000 C 
BRANCH  18  19
ATOM     19  O   UNL     1       3.874  -0.444   0.353  0.00  0.00    +0.000 OA
BRANCH  19  20
ATOM     20  S   UNL     1       5.358   0.257   0.774  0.00  0.00    +0.000 S 
ATOM     21  O   UNL     1       5.459   1.638   0.188  0.00  0.00    +0.000 OA
ATOM     22  O   UNL     1       6.468  -0.591   0.222  0.00  0.00    +0.000 OA
ATOM     23  O   UNL     1       5.517   0.338   2.446  0.00  0.00    +0.000 OA
ENDBRANCH  19  20
ENDBRANCH  18  19
ENDBRANCH   4  18
TORSDOF 8
