REMARK  Name = 447448
REMARK  10 active torsions:
REMARK  status: ('A' for Active; 'I' for Inactive)
REMARK    1  A    between atoms: O_2  and  C_3
REMARK    2  A    between atoms: C_3  and  N_13
REMARK    3  A    between atoms: C_4  and  C_6
REMARK    4  A    between atoms: C_6  and  C_9
REMARK    5  A    between atoms: N_13  and  C_15
REMARK    6  A    between atoms: C_17  and  O_19
REMARK    7  A    between atoms: C_22  and  C_24
REMARK    8  A    between atoms: C_24  and  O_27
REMARK    9  A    between atoms: C_29  and  O_31
REMARK   10  A    between atoms: C_33  and  O_35
REMARK                            x       y       z     vdW  Elec       q    Type
REMARK                         _______ _______ _______ _____ _____    ______ ____
ROOT
ATOM      1  C   UNL     1       0.166   1.270  -0.410  0.00  0.00    +0.000 C 
ATOM      2  C   UNL     1       1.581   1.292  -1.020  0.00  0.00    +0.000 C 
ATOM      3  O   UNL     1       1.501   1.593  -2.403  0.00  0.00    +0.000 OA
ATOM      4  C   UNL     1       0.835   0.556  -3.106  0.00  0.00    +0.000 C 
ATOM      5  C   UNL     1      -0.647   0.467  -2.657  0.00  0.00    +0.000 C 
ATOM      6  C   UNL     1      -0.720   0.240  -1.133  0.00  0.00    +0.000 C 
ENDROOT
BRANCH   1   7
ATOM      7  N   UNL     1       0.195   1.042   1.042  0.00  0.00    +0.000 N 
ATOM      8  H   UNL     1      -0.197   1.807   1.639  0.00  0.00    +0.000 HD
BRANCH   7   9
ATOM      9  C   UNL     1       0.709  -0.139   1.687  0.00  0.00    +0.000 C 
ATOM     10  C   UNL     1       0.652  -0.225   3.029  0.00  0.00    +0.000 C 
BRANCH   9  12
ATOM     11  H   UNL     1       1.668  -2.006   1.294  0.00  0.00    +0.000 HD
ATOM     12  O   UNL     1       1.258  -1.165   0.911  0.00  0.00    +0.000 OA
ENDBRANCH   9  12
BRANCH  10  13
ATOM     13  C   UNL     1       1.133  -1.405   3.828  0.00  0.00    +0.000 C 
ATOM     14  C   UNL     1       0.140  -2.563   3.758  0.00  0.00    +0.000 C 
ENDBRANCH  10  13
ENDBRANCH   7   9
ENDBRANCH   1   7
BRANCH   2  15
ATOM     15  O   UNL     1       2.334   2.287  -0.382  0.00  0.00    +0.000 OA
ATOM     16  H   UNL     1       3.259   2.209  -0.735  0.00  0.00    +0.000 HD
ENDBRANCH   2  15
BRANCH   5  17
ATOM     17  O   UNL     1      -1.282  -0.597  -3.319  0.00  0.00    +0.000 OA
ATOM     18  H   UNL     1      -2.251  -0.384  -3.347  0.00  0.00    +0.000 HD
ENDBRANCH   5  17
BRANCH   6  19
ATOM     19  O   UNL     1      -2.045   0.380  -0.688  0.00  0.00    +0.000 OA
ATOM     20  H   UNL     1      -2.496  -0.491  -0.841  0.00  0.00    +0.000 HD
ENDBRANCH   6  19
BRANCH   4  21
ATOM     21  C   UNL     1       0.949   0.859  -4.609  0.00  0.00    +0.000 C 
BRANCH  21  22
ATOM     22  O   UNL     1       0.483  -0.214  -5.383  0.00  0.00    +0.000 OA
ATOM     23  H   UNL     1       1.181  -0.919  -5.343  0.00  0.00    +0.000 HD
ENDBRANCH  21  22
ENDBRANCH   4  21
TORSDOF 9
