REMARK  Name = 102416
REMARK  10 active torsions:
REMARK  status: ('A' for Active; 'I' for Inactive)
REMARK    1  A    between atoms: O_2  and  C_3
REMARK    2  A    between atoms: C_3  and  C_39
REMARK    3  A    between atoms: N_4  and  C_5
REMARK    4  A    between atoms: C_7  and  O_9
REMARK    5  A    between atoms: O_9  and  C_10
REMARK    6  A    between atoms: C_15  and  N_16
REMARK    7  A    between atoms: C_24  and  C_26
REMARK    8  A    between atoms: C_26  and  O_29
REMARK    9  A    between atoms: C_31  and  O_33
REMARK   10  A    between atoms: C_35  and  O_37
REMARK                            x       y       z     vdW  Elec       q    Type
REMARK                         _______ _______ _______ _____ _____    ______ ____
ROOT
ATOM      1  C   UNL     1      -0.796  -2.385   0.101  0.00  0.00    +0.000 C 
ATOM      2  C   UNL     1      -0.551  -0.909  -0.268  0.00  0.00    +0.000 C 
ATOM      3  O   UNL     1      -1.686  -0.142   0.093  0.00  0.00    +0.000 OA
ATOM      4  C   UNL     1      -2.805  -0.512  -0.700  0.00  0.00    +0.000 C 
ATOM      5  C   UNL     1      -3.231  -1.969  -0.389  0.00  0.00    +0.000 C 
ATOM      6  C   UNL     1      -2.047  -2.930  -0.618  0.00  0.00    +0.000 C 
ENDROOT
BRANCH   1   8
ATOM      7  C   UNL     1       1.170  -3.454  -1.095  0.00  0.00    +0.000 C 
ATOM      8  N   UNL     1       0.382  -3.250  -0.076  0.00  0.00    +0.000 NA
ATOM      9  C   UNL     1       1.050  -2.732  -2.408  0.00  0.00    +0.000 C 
BRANCH   7  11
ATOM     10  H   UNL     1       2.880  -4.546  -1.674  0.00  0.00    +0.000 HD
ATOM     11  O   UNL     1       2.215  -4.361  -0.933  0.00  0.00    +0.000 OA
ENDBRANCH   7  11
ENDBRANCH   1   8
BRANCH   5  12
ATOM     12  O   UNL     1      -4.304  -2.334  -1.220  0.00  0.00    +0.000 OA
ATOM     13  H   UNL     1      -4.754  -3.106  -0.787  0.00  0.00    +0.000 HD
ENDBRANCH   5  12
BRANCH   6  14
ATOM     14  O   UNL     1      -2.377  -4.198  -0.111  0.00  0.00    +0.000 OA
ATOM     15  H   UNL     1      -1.781  -4.852  -0.561  0.00  0.00    +0.000 HD
ENDBRANCH   6  14
BRANCH   2  16
ATOM     16  O   UNL     1       0.584  -0.434   0.454  0.00  0.00    +0.000 OA
BRANCH  16  17
ATOM     17  C   UNL     1       1.165   0.833   0.290  0.00  0.00    +0.000 A 
ATOM     18  C   UNL     1       2.273   1.160   1.078  0.00  0.00    +0.000 A 
ATOM     19  C   UNL     1       2.892   2.407   0.954  0.00  0.00    +0.000 A 
ATOM     20  C   UNL     1       2.411   3.354   0.035  0.00  0.00    +0.000 A 
ATOM     21  C   UNL     1       1.296   3.025  -0.758  0.00  0.00    +0.000 A 
ATOM     22  C   UNL     1       0.679   1.777  -0.634  0.00  0.00    +0.000 A 
BRANCH  20  23
ATOM     23  N   UNL     1       3.049   4.638  -0.090  0.00  0.00    +0.000 N 
ATOM     24  O   UNL     1       2.625   5.484  -0.905  0.00  0.00    +0.000 OA
ATOM     25  O   UNL     1       4.139   4.956   0.687  0.00  0.00    +0.000 OA
ENDBRANCH  20  23
ENDBRANCH  16  17
ENDBRANCH   2  16
BRANCH   4  26
ATOM     26  C   UNL     1      -3.951   0.465  -0.405  0.00  0.00    +0.000 C 
BRANCH  26  27
ATOM     27  O   UNL     1      -3.549   1.784  -0.665  0.00  0.00    +0.000 OA
ATOM     28  H   UNL     1      -3.538   1.888  -1.652  0.00  0.00    +0.000 HD
ENDBRANCH  26  27
ENDBRANCH   4  26
TORSDOF 9
