REMARK  Name = 102416
REMARK  9 active torsions:
REMARK  status: ('A' for Active; 'I' for Inactive)
REMARK    1  A    between atoms: C_1  and  C_2
REMARK    2  A    between atoms: N_4  and  C_5
REMARK    3  A    between atoms: C_6  and  O_7
REMARK    4  A    between atoms: O_7  and  C_8
REMARK    5  A    between atoms: C_11  and  N_12
REMARK    6  A    between atoms: C_18  and  C_19
REMARK    7  A    between atoms: C_19  and  O_20
REMARK    8  A    between atoms: C_21  and  O_22
REMARK    9  A    between atoms: C_23  and  O_24
REMARK                            x       y       z     vdW  Elec       q    Type
REMARK                         _______ _______ _______ _____ _____    ______ ____
ROOT
ATOM      1  C   UNL     1       1.881   0.555   1.237  0.00  0.00    +0.000 C 
ATOM      2  C   UNL     1       0.701   0.030   0.401  0.00  0.00    +0.000 C 
ATOM      3  O   UNL     1       0.480   0.877  -0.714  0.00  0.00    +0.000 OA
ATOM      4  C   UNL     1       0.029   2.154  -0.293  0.00  0.00    +0.000 C 
ATOM      5  C   UNL     1       1.144   2.870   0.515  0.00  0.00    +0.000 C 
ATOM      6  C   UNL     1       1.576   1.991   1.709  0.00  0.00    +0.000 C 
ENDROOT
BRANCH   1  10
ATOM      7  C   UNL     1       3.183  -2.292   3.563  0.00  0.00    +0.000 C 
ATOM      8  C   UNL     1       3.090  -1.362   2.398  0.00  0.00    +0.000 C 
ATOM      9  O   UNL     1       3.856  -1.525   1.410  0.00  0.00    +0.000 OA
ATOM     10  N   UNL     1       2.106  -0.318   2.394  0.00  0.00    +0.000 N 
ATOM     11  H   UNL     1       1.430  -0.275   3.191  0.00  0.00    +0.000 HD
ENDBRANCH   1  10
BRANCH   5  12
ATOM     12  O   UNL     1       0.728   4.136   0.966  0.00  0.00    +0.000 OA
ATOM     13  H   UNL     1      -0.076   4.004   1.534  0.00  0.00    +0.000 HD
ENDBRANCH   5  12
BRANCH   6  14
ATOM     14  O   UNL     1       2.684   2.550   2.371  0.00  0.00    +0.000 OA
ATOM     15  H   UNL     1       3.437   2.582   1.725  0.00  0.00    +0.000 HD
ENDBRANCH   6  14
BRANCH   2  16
ATOM     16  O   UNL     1       1.017  -1.280  -0.069  0.00  0.00    +0.000 OA
BRANCH  16  17
ATOM     17  C   UNL     1       0.132  -2.119  -0.763  0.00  0.00    +0.000 A 
ATOM     18  C   UNL     1      -1.192  -1.747  -1.059  0.00  0.00    +0.000 A 
ATOM     19  C   UNL     1      -2.032  -2.622  -1.754  0.00  0.00    +0.000 A 
ATOM     20  C   UNL     1      -1.567  -3.884  -2.165  0.00  0.00    +0.000 A 
ATOM     21  C   UNL     1      -0.244  -4.251  -1.865  0.00  0.00    +0.000 A 
ATOM     22  C   UNL     1       0.594  -3.375  -1.171  0.00  0.00    +0.000 A 
BRANCH  20  23
ATOM     23  N   UNL     1      -2.429  -4.788  -2.880  0.00  0.00    +0.000 N 
ATOM     24  O   UNL     1      -3.606  -4.468  -3.149  0.00  0.00    +0.000 OA
ATOM     25  O   UNL     1      -1.971  -6.022  -3.281  0.00  0.00    +0.000 OA
ENDBRANCH  20  23
ENDBRANCH  16  17
ENDBRANCH   2  16
BRANCH   4  26
ATOM     26  C   UNL     1      -0.358   2.954  -1.548  0.00  0.00    +0.000 C 
BRANCH  26  27
ATOM     27  O   UNL     1      -0.982   4.163  -1.209  0.00  0.00    +0.000 OA
ATOM     28  H   UNL     1      -1.901   3.936  -0.912  0.00  0.00    +0.000 HD
ENDBRANCH  26  27
ENDBRANCH   4  26
TORSDOF 8
