REMARK  Name = 5300
REMARK  9 active torsions:
REMARK  status: ('A' for Active; 'I' for Inactive)
REMARK    1  A    between atoms: O_2  and  C_3
REMARK    2  A    between atoms: N_4  and  C_5
REMARK    3  A    between atoms: C_7  and  O_9
REMARK    4  A    between atoms: C_12  and  C_14
REMARK    5  A    between atoms: C_14  and  O_17
REMARK    6  A    between atoms: C_19  and  O_21
REMARK    7  A    between atoms: C_23  and  O_25
REMARK    8  A    between atoms: N_27  and  N_28
REMARK    9  A    between atoms: N_27  and  C_30
REMARK                            x       y       z     vdW  Elec       q    Type
REMARK                         _______ _______ _______ _____ _____    ______ ____
ROOT
ATOM      1  C   UNL     1       0.201  -0.737  -0.248  0.00  0.00    +0.000 C 
ATOM      2  C   UNL     1      -0.095   0.519   0.599  0.00  0.00    +0.000 C 
ATOM      3  O   UNL     1      -1.105   0.233   1.553  0.00  0.00    +0.000 OA
ATOM      4  C   UNL     1      -0.648  -0.725   2.497  0.00  0.00    +0.000 C 
ATOM      5  C   UNL     1      -0.387  -2.089   1.803  0.00  0.00    +0.000 C 
ATOM      6  C   UNL     1       0.633  -1.910   0.659  0.00  0.00    +0.000 C 
ENDROOT
BRANCH   1   8
ATOM      7  C   UNL     1       2.415  -0.087  -1.180  0.00  0.00    +0.000 C 
ATOM      8  N   UNL     1       1.178  -0.475  -1.314  0.00  0.00    +0.000 NA
ATOM      9  N   UNL     1       3.229   0.121  -2.350  0.00  0.00    +0.000 N 
ATOM     10  C   UNL     1       2.705  -0.177  -3.688  0.00  0.00    +0.000 C 
BRANCH   7  12
ATOM     11  H   UNL     1       3.913   0.415   0.229  0.00  0.00    +0.000 HD
ATOM     12  O   UNL     1       2.952   0.131   0.090  0.00  0.00    +0.000 OA
ENDBRANCH   7  12
BRANCH   9  13
ATOM     13  N   UNL     1       4.479   0.749  -2.203  0.00  0.00    +0.000 NA
ATOM     14  O   UNL     1       5.186   1.042  -3.189  0.00  0.00    +0.000 OA
ENDBRANCH   9  13
ENDBRANCH   1   8
BRANCH   2  15
ATOM     15  O   UNL     1      -0.548   1.540  -0.248  0.00  0.00    +0.000 OA
ATOM     16  H   UNL     1      -0.635   2.353   0.314  0.00  0.00    +0.000 HD
ENDBRANCH   2  15
BRANCH   5  17
ATOM     17  O   UNL     1       0.064  -3.056   2.720  0.00  0.00    +0.000 OA
ATOM     18  H   UNL     1       0.898  -2.711   3.135  0.00  0.00    +0.000 HD
ENDBRANCH   5  17
BRANCH   6  19
ATOM     19  O   UNL     1       0.773  -3.097  -0.082  0.00  0.00    +0.000 OA
ATOM     20  H   UNL     1      -0.109  -3.309  -0.485  0.00  0.00    +0.000 HD
ENDBRANCH   6  19
BRANCH   4  21
ATOM     21  C   UNL     1      -1.695  -0.853   3.610  0.00  0.00    +0.000 C 
BRANCH  21  22
ATOM     22  O   UNL     1      -2.929  -1.250   3.077  0.00  0.00    +0.000 OA
ATOM     23  H   UNL     1      -3.553  -1.315   3.846  0.00  0.00    +0.000 HD
ENDBRANCH  21  22
ENDBRANCH   4  21
TORSDOF 8
