REMARK  Name = 18897
REMARK  6 active torsions:
REMARK  status: ('A' for Active; 'I' for Inactive)
REMARK    1  A    between atoms: N_1  and  C_2
REMARK    2  A    between atoms: C_3  and  O_4
REMARK    3  A    between atoms: C_5  and  O_6
REMARK    4  A    between atoms: C_7  and  C_8
REMARK    5  A    between atoms: C_8  and  O_9
REMARK    6  A    between atoms: C_11  and  O_12
REMARK                            x       y       z     vdW  Elec       q    Type
REMARK                         _______ _______ _______ _____ _____    ______ ____
ROOT
ATOM      1  C   UNL     1      -1.707  -0.108   0.387  0.00  0.00    +0.000 C 
ATOM      2  C   UNL     1      -0.532  -0.832   1.081  0.00  0.00    +0.000 C 
ATOM      3  C   UNL     1       0.728  -0.806   0.198  0.00  0.00    +0.000 C 
ATOM      4  C   UNL     1       1.012   0.651  -0.241  0.00  0.00    +0.000 C 
ATOM      5  O   UNL     1      -0.103   1.199  -0.930  0.00  0.00    +0.000 OA
ATOM      6  C   UNL     1      -1.246   1.290  -0.092  0.00  0.00    +0.000 C 
ENDROOT
BRANCH   1   7
ATOM      7  N   UNL     1      -2.206  -0.887  -0.751  0.00  0.00    +0.000 NA
ATOM      8  H   UNL     1      -3.005  -0.369  -1.184  0.00  0.00    +0.000 HD
ATOM      9  H   UNL     1      -2.618  -1.779  -0.392  0.00  0.00    +0.000 HD
ENDBRANCH   1   7
BRANCH   2  10
ATOM     10  O   UNL     1      -0.889  -2.153   1.397  0.00  0.00    +0.000 OA
ATOM     11  H   UNL     1      -0.216  -2.485   2.047  0.00  0.00    +0.000 HD
ENDBRANCH   2  10
BRANCH   3  12
ATOM     12  O   UNL     1       0.540  -1.634  -0.924  0.00  0.00    +0.000 OA
ATOM     13  H   UNL     1       1.421  -2.034  -1.145  0.00  0.00    +0.000 HD
ENDBRANCH   3  12
BRANCH   6  14
ATOM     14  O   UNL     1      -0.997   2.147   0.997  0.00  0.00    +0.000 OA
ATOM     15  H   UNL     1      -1.879   2.374   1.392  0.00  0.00    +0.000 HD
ENDBRANCH   6  14
BRANCH   4  16
ATOM     16  C   UNL     1       2.244   0.744  -1.156  0.00  0.00    +0.000 C 
BRANCH  16  17
ATOM     17  O   UNL     1       3.384   0.232  -0.520  0.00  0.00    +0.000 OA
ATOM     18  H   UNL     1       3.665   0.909   0.149  0.00  0.00    +0.000 HD
ENDBRANCH  16  17
ENDBRANCH   4  16
TORSDOF 6
