REMARK  Name = 82398
REMARK  10 active torsions:
REMARK  status: ('A' for Active; 'I' for Inactive)
REMARK    1  A    between atoms: O_2  and  C_3
REMARK    2  A    between atoms: C_3  and  C_39
REMARK    3  A    between atoms: N_4  and  C_5
REMARK    4  A    between atoms: C_7  and  O_9
REMARK    5  A    between atoms: O_9  and  C_10
REMARK    6  A    between atoms: C_15  and  N_16
REMARK    7  A    between atoms: C_24  and  C_26
REMARK    8  A    between atoms: C_26  and  O_29
REMARK    9  A    between atoms: C_31  and  O_33
REMARK   10  A    between atoms: C_35  and  O_37
REMARK                            x       y       z     vdW  Elec       q    Type
REMARK                         _______ _______ _______ _____ _____    ______ ____
ROOT
ATOM      1  C   UNL     1      -1.484  -0.734  -1.111  0.00  0.00    +0.000 C 
ATOM      2  C   UNL     1      -1.824   0.482  -0.215  0.00  0.00    +0.000 C 
ATOM      3  O   UNL     1      -2.254   1.573  -1.015  0.00  0.00    +0.000 OA
ATOM      4  C   UNL     1      -1.228   2.036  -1.883  0.00  0.00    +0.000 C 
ATOM      5  C   UNL     1      -0.828   0.930  -2.893  0.00  0.00    +0.000 C 
ATOM      6  C   UNL     1      -0.401  -0.334  -2.127  0.00  0.00    +0.000 C 
ENDROOT
BRANCH   1   8
ATOM      7  C   UNL     1      -1.730  -2.804   0.224  0.00  0.00    +0.000 C 
ATOM      8  N   UNL     1      -1.003  -1.865  -0.312  0.00  0.00    +0.000 NA
ATOM      9  C   UNL     1      -3.220  -2.867   0.055  0.00  0.00    +0.000 C 
BRANCH   7  11
ATOM     10  H   UNL     1      -0.104  -3.792   1.118  0.00  0.00    +0.000 HD
ATOM     11  O   UNL     1      -1.107  -3.798   0.973  0.00  0.00    +0.000 OA
ENDBRANCH   7  11
ENDBRANCH   1   8
BRANCH   5  12
ATOM     12  O   UNL     1       0.248   1.359  -3.689  0.00  0.00    +0.000 OA
ATOM     13  H   UNL     1      -0.130   1.660  -4.557  0.00  0.00    +0.000 HD
ENDBRANCH   5  12
BRANCH   6  14
ATOM     14  O   UNL     1      -0.132  -1.390  -3.018  0.00  0.00    +0.000 OA
ATOM     15  H   UNL     1      -0.971  -1.595  -3.508  0.00  0.00    +0.000 HD
ENDBRANCH   6  14
BRANCH   2  16
ATOM     16  O   UNL     1      -0.710   0.876   0.600  0.00  0.00    +0.000 OA
BRANCH  16  17
ATOM     17  C   UNL     1      -0.298   0.282   1.804  0.00  0.00    +0.000 A 
ATOM     18  C   UNL     1      -1.125  -0.561   2.570  0.00  0.00    +0.000 A 
ATOM     19  C   UNL     1      -0.651  -1.128   3.756  0.00  0.00    +0.000 A 
ATOM     20  C   UNL     1       0.653  -0.857   4.208  0.00  0.00    +0.000 A 
ATOM     21  C   UNL     1       1.468  -0.001   3.450  0.00  0.00    +0.000 A 
ATOM     22  C   UNL     1       0.993   0.564   2.263  0.00  0.00    +0.000 A 
BRANCH  20  23
ATOM     23  N   UNL     1       1.145  -1.440   5.429  0.00  0.00    +0.000 N 
ATOM     24  O   UNL     1       0.424  -2.203   6.106  0.00  0.00    +0.000 OA
ATOM     25  O   UNL     1       2.420  -1.170   5.869  0.00  0.00    +0.000 OA
ENDBRANCH  20  23
ENDBRANCH  16  17
ENDBRANCH   2  16
BRANCH   4  26
ATOM     26  C   UNL     1      -1.751   3.288  -2.602  0.00  0.00    +0.000 C 
BRANCH  26  27
ATOM     27  O   UNL     1      -0.706   3.949  -3.260  0.00  0.00    +0.000 OA
ATOM     28  H   UNL     1      -1.116   4.730  -3.714  0.00  0.00    +0.000 HD
ENDBRANCH  26  27
ENDBRANCH   4  26
TORSDOF 9
