REMARK  Name = 82313
REMARK  7 active torsions:
REMARK  status: ('A' for Active; 'I' for Inactive)
REMARK    1  A    between atoms: C_1  and  C_2
REMARK    2  A    between atoms: N_4  and  C_5
REMARK    3  A    between atoms: C_6  and  O_7
REMARK    4  A    between atoms: C_9  and  C_10
REMARK    5  A    between atoms: C_10  and  O_11
REMARK    6  A    between atoms: C_12  and  O_13
REMARK    7  A    between atoms: C_14  and  O_15
REMARK                            x       y       z     vdW  Elec       q    Type
REMARK                         _______ _______ _______ _____ _____    ______ ____
ROOT
ATOM      1  C   UNL     1       0.498  -0.496  -1.002  0.00  0.00    +0.000 C 
ATOM      2  C   UNL     1      -0.044   0.692  -1.825  0.00  0.00    +0.000 C 
ATOM      3  O   UNL     1      -1.460   0.739  -1.783  0.00  0.00    +0.000 OA
ATOM      4  C   UNL     1      -1.965   0.946  -0.470  0.00  0.00    +0.000 C 
ATOM      5  C   UNL     1      -1.492  -0.137   0.534  0.00  0.00    +0.000 C 
ATOM      6  C   UNL     1       0.031  -0.372   0.462  0.00  0.00    +0.000 C 
ENDROOT
BRANCH   1  10
ATOM      7  C   UNL     1       0.102  -4.303  -1.731  0.00  0.00    +0.000 C 
ATOM      8  C   UNL     1       0.691  -3.017  -1.253  0.00  0.00    +0.000 C 
ATOM      9  O   UNL     1       1.726  -3.037  -0.534  0.00  0.00    +0.000 OA
ATOM     10  N   UNL     1       0.057  -1.774  -1.576  0.00  0.00    +0.000 N 
ATOM     11  H   UNL     1      -0.760  -1.794  -2.227  0.00  0.00    +0.000 HD
ENDBRANCH   1  10
BRANCH   2  12
ATOM     12  O   UNL     1       0.349   0.554  -3.165  0.00  0.00    +0.000 OA
ATOM     13  H   UNL     1       1.321   0.765  -3.207  0.00  0.00    +0.000 HD
ENDBRANCH   2  12
BRANCH   5  14
ATOM     14  O   UNL     1      -2.172  -1.335   0.254  0.00  0.00    +0.000 OA
ATOM     15  H   UNL     1      -2.080  -1.914   1.055  0.00  0.00    +0.000 HD
ENDBRANCH   5  14
BRANCH   6  16
ATOM     16  O   UNL     1       0.703   0.684   1.099  0.00  0.00    +0.000 OA
ATOM     17  H   UNL     1       1.623   0.365   1.291  0.00  0.00    +0.000 HD
ENDBRANCH   6  16
BRANCH   4  18
ATOM     18  C   UNL     1      -1.756   2.391   0.029  0.00  0.00    +0.000 C 
BRANCH  18  19
ATOM     19  O   UNL     1      -2.202   3.296  -0.944  0.00  0.00    +0.000 OA
ATOM     20  H   UNL     1      -1.986   4.201  -0.600  0.00  0.00    +0.000 HD
ENDBRANCH  18  19
ENDBRANCH   4  18
TORSDOF 6
