REMARK  Name = 96523
REMARK  8 active torsions:
REMARK  status: ('A' for Active; 'I' for Inactive)
REMARK    1  A    between atoms: C_1  and  O_2
REMARK    2  A    between atoms: O_2  and  C_3
REMARK    3  A    between atoms: C_5  and  C_6
REMARK    4  A    between atoms: C_6  and  O_7
REMARK    5  A    between atoms: C_8  and  O_9
REMARK    6  A    between atoms: C_10  and  O_11
REMARK    7  A    between atoms: C_12  and  N_13
REMARK    8  A    between atoms: C_14  and  C_15
REMARK                            x       y       z     vdW  Elec       q    Type
REMARK                         _______ _______ _______ _____ _____    ______ ____
ROOT
ATOM      1  C   UNL     1       0.866   1.001  -0.000  0.00  0.00    +0.000 C 
ATOM      2  O   UNL     1       0.043   1.707  -0.915  0.00  0.00    +0.000 OA
ATOM      3  C   UNL     1      -0.430   2.946  -0.398  0.00  0.00    +0.000 C 
ATOM      4  C   UNL     1      -1.222   2.782   0.928  0.00  0.00    +0.000 C 
ATOM      5  C   UNL     1      -0.478   1.897   1.945  0.00  0.00    +0.000 C 
ATOM      6  C   UNL     1       0.069   0.623   1.269  0.00  0.00    +0.000 C 
ENDROOT
BRANCH   6   7
ATOM      7  N   UNL     1      -1.027  -0.300   0.943  0.00  0.00    +0.000 N 
ATOM      8  C   UNL     1      -1.683  -1.096   1.940  0.00  0.00    +0.000 C 
ATOM      9  C   UNL     1      -2.813  -1.993   1.552  0.00  0.00    +0.000 C 
ATOM     10  O   UNL     1      -1.294  -1.067   3.139  0.00  0.00    +0.000 OA
ATOM     11  H   UNL     1      -1.334  -0.408  -0.051  0.00  0.00    +0.000 HD
ENDBRANCH   6   7
BRANCH   1  13
ATOM     12  C   UNL     1       2.627  -0.507  -0.274  0.00  0.00    +0.000 C 
ATOM     13  O   UNL     1       1.304  -0.184  -0.645  0.00  0.00    +0.000 OA
ENDBRANCH   1  13
BRANCH   4  14
ATOM     14  O   UNL     1      -2.476   2.208   0.658  0.00  0.00    +0.000 OA
ATOM     15  H   UNL     1      -3.055   2.929   0.298  0.00  0.00    +0.000 HD
ENDBRANCH   4  14
BRANCH   5  16
ATOM     16  O   UNL     1       0.571   2.625   2.529  0.00  0.00    +0.000 OA
ATOM     17  H   UNL     1       0.840   2.136   3.351  0.00  0.00    +0.000 HD
ENDBRANCH   5  16
BRANCH   3  18
ATOM     18  C   UNL     1       0.670   4.028  -0.332  0.00  0.00    +0.000 C 
BRANCH  18  19
ATOM     19  O   UNL     1       1.387   4.073  -1.536  0.00  0.00    +0.000 OA
ATOM     20  H   UNL     1       0.798   4.516  -2.202  0.00  0.00    +0.000 HD
ENDBRANCH  18  19
ENDBRANCH   3  18
TORSDOF 6
