REMARK  Name = 57339290
REMARK  11 active torsions:
REMARK  status: ('A' for Active; 'I' for Inactive)
REMARK    1  A    between atoms: C_1  and  C_2
REMARK    2  A    between atoms: N_4  and  C_5
REMARK    3  A    between atoms: C_6  and  O_7
REMARK    4  A    between atoms: O_7  and  C_8
REMARK    5  A    between atoms: C_8  and  C_9
REMARK    6  A    between atoms: C_8  and  C_13
REMARK    7  A    between atoms: C_9  and  C_10
REMARK    8  A    between atoms: C_17  and  C_18
REMARK    9  A    between atoms: C_18  and  O_19
REMARK   10  A    between atoms: C_20  and  O_21
REMARK   11  A    between atoms: C_22  and  O_23
REMARK                            x       y       z     vdW  Elec       q    Type
REMARK                         _______ _______ _______ _____ _____    ______ ____
ROOT
ATOM      1  C   UNL     1      -1.103   0.204   0.927  0.00  0.00    +0.000 C 
ATOM      2  C   UNL     1      -0.336   0.556  -0.364  0.00  0.00    +0.000 C 
ATOM      3  O   UNL     1      -1.103   0.227  -1.514  0.00  0.00    +0.000 OA
ATOM      4  C   UNL     1      -1.363  -1.166  -1.597  0.00  0.00    +0.000 C 
ATOM      5  C   UNL     1      -2.210  -1.638  -0.391  0.00  0.00    +0.000 C 
ATOM      6  C   UNL     1      -1.486  -1.286   0.921  0.00  0.00    +0.000 C 
ENDROOT
BRANCH   1  10
ATOM      7  C   UNL     1       0.858   2.143   3.685  0.00  0.00    +0.000 C 
ATOM      8  C   UNL     1      -0.060   1.874   2.537  0.00  0.00    +0.000 C 
ATOM      9  O   UNL     1      -0.615   2.839   1.944  0.00  0.00    +0.000 OA
ATOM     10  N   UNL     1      -0.289   0.526   2.106  0.00  0.00    +0.000 N 
ATOM     11  H   UNL     1       0.146  -0.247   2.659  0.00  0.00    +0.000 HD
ENDBRANCH   1  10
BRANCH   5  12
ATOM     12  O   UNL     1      -2.404  -3.028  -0.463  0.00  0.00    +0.000 OA
ATOM     13  H   UNL     1      -3.227  -3.233   0.049  0.00  0.00    +0.000 HD
ENDBRANCH   5  12
BRANCH   6  14
ATOM     14  O   UNL     1      -2.321  -1.550   2.018  0.00  0.00    +0.000 OA
ATOM     15  H   UNL     1      -2.234  -2.518   2.218  0.00  0.00    +0.000 HD
ENDBRANCH   6  14
BRANCH   2  16
ATOM     16  O   UNL     1       0.925  -0.098  -0.374  0.00  0.00    +0.000 OA
BRANCH  16  17
ATOM     17  C   UNL     1       1.823   0.512  -1.285  0.00  0.00    +0.000 C 
BRANCH  17  18
ATOM     18  C   UNL     1       2.680  -0.572  -1.875  0.00  0.00    +0.000 C 
ATOM     19  O   UNL     1       2.712  -0.749  -3.121  0.00  0.00    +0.000 OA
ATOM     20  O   UNL     1       3.433  -1.392  -1.047  0.00  0.00    +0.000 OA
ENDBRANCH  17  18
BRANCH  17  21
ATOM     21  C   UNL     1       2.696   1.538  -0.534  0.00  0.00    +0.000 C 
BRANCH  21  22
ATOM     22  C   UNL     1       3.647   2.242  -1.455  0.00  0.00    +0.000 C 
ATOM     23  O   UNL     1       4.883   2.007  -1.388  0.00  0.00    +0.000 OA
ATOM     24  O   UNL     1       3.166   3.135  -2.403  0.00  0.00    +0.000 OA
ENDBRANCH  21  22
ENDBRANCH  17  21
ENDBRANCH  16  17
ENDBRANCH   2  16
BRANCH   4  25
ATOM     25  C   UNL     1      -2.092  -1.426  -2.922  0.00  0.00    +0.000 C 
BRANCH  25  26
ATOM     26  O   UNL     1      -2.155  -2.800  -3.186  0.00  0.00    +0.000 OA
ATOM     27  H   UNL     1      -2.788  -2.909  -3.944  0.00  0.00    +0.000 HD
ENDBRANCH  25  26
ENDBRANCH   4  25
TORSDOF 10
