REMARK  Name = 84265
REMARK  8 active torsions:
REMARK  status: ('A' for Active; 'I' for Inactive)
REMARK    1  A    between atoms: O_2  and  C_3
REMARK    2  A    between atoms: C_3  and  C_27
REMARK    3  A    between atoms: N_4  and  C_5
REMARK    4  A    between atoms: C_7  and  O_9
REMARK    5  A    between atoms: C_12  and  C_14
REMARK    6  A    between atoms: C_14  and  O_17
REMARK    7  A    between atoms: C_19  and  O_21
REMARK    8  A    between atoms: C_23  and  O_25
REMARK                            x       y       z     vdW  Elec       q    Type
REMARK                         _______ _______ _______ _____ _____    ______ ____
ROOT
ATOM      1  C   UNL     1       0.755  -0.071   0.098  0.00  0.00    +0.000 C 
ATOM      2  C   UNL     1       0.121   0.705  -1.083  0.00  0.00    +0.000 C 
ATOM      3  O   UNL     1      -1.247   0.997  -0.835  0.00  0.00    +0.000 OA
ATOM      4  C   UNL     1      -2.014  -0.188  -0.673  0.00  0.00    +0.000 C 
ATOM      5  C   UNL     1      -1.547  -0.986   0.564  0.00  0.00    +0.000 C 
ATOM      6  C   UNL     1      -0.058  -1.342   0.393  0.00  0.00    +0.000 C 
ENDROOT
BRANCH   1   8
ATOM      7  C   UNL     1       3.205   0.280  -0.019  0.00  0.00    +0.000 C 
ATOM      8  N   UNL     1       2.139  -0.445  -0.211  0.00  0.00    +0.000 NA
ATOM      9  C   UNL     1       3.155   1.640   0.614  0.00  0.00    +0.000 C 
BRANCH   7  11
ATOM     10  H   UNL     1       4.529  -1.145  -0.820  0.00  0.00    +0.000 HD
ATOM     11  O   UNL     1       4.446  -0.229  -0.395  0.00  0.00    +0.000 OA
ENDBRANCH   7  11
ENDBRANCH   1   8
BRANCH   2  12
ATOM     12  O   UNL     1       0.262   0.004  -2.297  0.00  0.00    +0.000 OA
ATOM     13  H   UNL     1       1.184   0.171  -2.626  0.00  0.00    +0.000 HD
ENDBRANCH   2  12
BRANCH   5  14
ATOM     14  O   UNL     1      -1.731  -0.223   1.731  0.00  0.00    +0.000 OA
ATOM     15  H   UNL     1      -1.793  -0.861   2.488  0.00  0.00    +0.000 HD
ENDBRANCH   5  14
BRANCH   6  16
ATOM     16  O   UNL     1       0.437  -1.958   1.554  0.00  0.00    +0.000 OA
ATOM     17  H   UNL     1       0.058  -2.875   1.574  0.00  0.00    +0.000 HD
ENDBRANCH   6  16
BRANCH   4  18
ATOM     18  C   UNL     1      -3.506   0.177  -0.591  0.00  0.00    +0.000 C 
BRANCH  18  19
ATOM     19  O   UNL     1      -3.756   1.095   0.441  0.00  0.00    +0.000 OA
ATOM     20  H   UNL     1      -3.510   1.992   0.093  0.00  0.00    +0.000 HD
ENDBRANCH  18  19
ENDBRANCH   4  18
TORSDOF 7
