REMARK  Name = 408523
REMARK  14 active torsions:
REMARK  status: ('A' for Active; 'I' for Inactive)
REMARK    1  A    between atoms: C_1  and  C_2
REMARK    2  A    between atoms: C_2  and  O_4
REMARK    3  A    between atoms: O_4  and  C_5
REMARK    4  A    between atoms: C_5  and  C_6
REMARK    5  A    between atoms: C_8  and  O_9
REMARK    6  A    between atoms: O_9  and  C_10
REMARK    7  A    between atoms: C_10  and  C_11
REMARK    8  A    between atoms: C_13  and  N_14
REMARK    9  A    between atoms: C_15  and  O_16
REMARK   10  A    between atoms: O_16  and  C_17
REMARK   11  A    between atoms: C_17  and  C_18
REMARK   12  A    between atoms: C_20  and  O_21
REMARK   13  A    between atoms: O_21  and  C_22
REMARK   14  A    between atoms: C_22  and  C_23
REMARK                            x       y       z     vdW  Elec       q    Type
REMARK                         _______ _______ _______ _____ _____    ______ ____
ROOT
ATOM      1  C   UNL     1      -1.563  -0.482   1.018  0.00  0.00    +0.000 C 
ATOM      2  O   UNL     1      -2.460   0.490   0.502  0.00  0.00    +0.000 OA
ATOM      3  C   UNL     1      -2.157   1.773   1.019  0.00  0.00    +0.000 C 
ATOM      4  C   UNL     1      -0.775   2.240   0.501  0.00  0.00    +0.000 C 
ATOM      5  C   UNL     1       0.290   1.228   0.970  0.00  0.00    +0.000 C 
ATOM      6  C   UNL     1      -0.116  -0.199   0.547  0.00  0.00    +0.000 C 
ENDROOT
BRANCH   4   7
ATOM      7  N   UNL     1      -0.787   2.347  -0.963  0.00  0.00    +0.000 NA
ATOM      8  H   UNL     1       0.134   2.730  -1.278  0.00  0.00    +0.000 HD
ATOM      9  H   UNL     1      -1.492   3.067  -1.240  0.00  0.00    +0.000 HD
ENDBRANCH   4   7
BRANCH   1  10
ATOM     10  C   UNL     1      -2.033  -1.869   0.564  0.00  0.00    +0.000 C 
BRANCH  10  11
ATOM     11  O   UNL     1      -2.050  -1.945  -0.859  0.00  0.00    +0.000 OA
BRANCH  11  13
ATOM     12  C   UNL     1      -2.421  -3.101  -3.039  0.00  0.00    +0.000 C 
ATOM     13  C   UNL     1      -2.419  -3.103  -1.548  0.00  0.00    +0.000 C 
ATOM     14  O   UNL     1      -2.790  -4.134  -0.924  0.00  0.00    +0.000 OA
ENDBRANCH  11  13
ENDBRANCH  10  11
ENDBRANCH   1  10
BRANCH   3  15
ATOM     15  O   UNL     1      -3.179   2.678   0.601  0.00  0.00    +0.000 OA
BRANCH  15  16
ATOM     16  C   UNL     1      -3.364   3.949   1.159  0.00  0.00    +0.000 C 
ATOM     17  C   UNL     1      -4.436   4.835   0.623  0.00  0.00    +0.000 C 
ATOM     18  O   UNL     1      -2.669   4.333   2.138  0.00  0.00    +0.000 OA
ENDBRANCH  15  16
ENDBRANCH   3  15
BRANCH   5  19
ATOM     19  O   UNL     1       1.564   1.580   0.424  0.00  0.00    +0.000 OA
BRANCH  19  20
ATOM     20  C   UNL     1       2.782   1.361   1.079  0.00  0.00    +0.000 C 
ATOM     21  C   UNL     1       4.057   1.709   0.392  0.00  0.00    +0.000 C 
ATOM     22  O   UNL     1       2.813   0.906   2.255  0.00  0.00    +0.000 OA
ENDBRANCH  19  20
ENDBRANCH   5  19
BRANCH   6  23
ATOM     23  O   UNL     1       0.767  -1.158   1.135  0.00  0.00    +0.000 OA
BRANCH  23  24
ATOM     24  C   UNL     1       1.894  -1.679   0.488  0.00  0.00    +0.000 C 
ATOM     25  C   UNL     1       2.764  -2.654   1.204  0.00  0.00    +0.000 C 
ATOM     26  O   UNL     1       2.164  -1.361  -0.702  0.00  0.00    +0.000 OA
ENDBRANCH  23  24
ENDBRANCH   6  23
TORSDOF 10
