REMARK  Name = 739
REMARK  6 active torsions:
REMARK  status: ('A' for Active; 'I' for Inactive)
REMARK    1  A    between atoms: N_1  and  C_2
REMARK    2  A    between atoms: C_3  and  O_4
REMARK    3  A    between atoms: C_6  and  C_7
REMARK    4  A    between atoms: C_7  and  O_8
REMARK    5  A    between atoms: C_9  and  O_10
REMARK    6  A    between atoms: C_11  and  O_12
REMARK                            x       y       z     vdW  Elec       q    Type
REMARK                         _______ _______ _______ _____ _____    ______ ____
ROOT
ATOM      1  C   UNL     1      -0.634  -1.318  -0.011  0.00  0.00    +0.000 C 
ATOM      2  C   UNL     1      -0.713  -0.160   1.008  0.00  0.00    +0.000 C 
ATOM      3  O   UNL     1       0.197   0.868   0.653  0.00  0.00    +0.000 OA
ATOM      4  C   UNL     1       1.536   0.413   0.756  0.00  0.00    +0.000 C 
ATOM      5  C   UNL     1       1.800  -0.700  -0.284  0.00  0.00    +0.000 C 
ATOM      6  C   UNL     1       0.807  -1.862  -0.072  0.00  0.00    +0.000 C 
ENDROOT
BRANCH   1   7
ATOM      7  N   UNL     1      -1.564  -2.390   0.356  0.00  0.00    +0.000 NA
ATOM      8  H   UNL     1      -1.483  -3.153  -0.355  0.00  0.00    +0.000 HD
ATOM      9  H   UNL     1      -2.541  -2.027   0.271  0.00  0.00    +0.000 HD
ENDBRANCH   1   7
BRANCH   2  10
ATOM     10  O   UNL     1      -2.011   0.371   1.001  0.00  0.00    +0.000 OA
ATOM     11  H   UNL     1      -2.047   1.034   1.739  0.00  0.00    +0.000 HD
ENDBRANCH   2  10
BRANCH   5  12
ATOM     12  O   UNL     1       3.121  -1.165  -0.169  0.00  0.00    +0.000 OA
ATOM     13  H   UNL     1       3.316  -1.677  -0.997  0.00  0.00    +0.000 HD
ENDBRANCH   5  12
BRANCH   6  14
ATOM     14  O   UNL     1       1.106  -2.548   1.120  0.00  0.00    +0.000 OA
ATOM     15  H   UNL     1       1.826  -3.198   0.909  0.00  0.00    +0.000 HD
ENDBRANCH   6  14
BRANCH   4  16
ATOM     16  C   UNL     1       2.476   1.606   0.525  0.00  0.00    +0.000 C 
BRANCH  16  17
ATOM     17  O   UNL     1       2.273   2.585   1.509  0.00  0.00    +0.000 OA
ATOM     18  H   UNL     1       1.485   3.119   1.224  0.00  0.00    +0.000 HD
ENDBRANCH  16  17
ENDBRANCH   4  16
TORSDOF 6
