REMARK  Name = ZINC000003956714
REMARK  9 active torsions:
REMARK  status: ('A' for Active; 'I' for Inactive)
REMARK    1  A    between atoms: C_1  and  C_2
REMARK    2  A    between atoms: N_4  and  C_5
REMARK    3  A    between atoms: C_6  and  O_7
REMARK    4  A    between atoms: O_7  and  C_8
REMARK    5  A    between atoms: C_8  and  C_9
REMARK    6  A    between atoms: C_16  and  C_17
REMARK    7  A    between atoms: C_17  and  O_18
REMARK    8  A    between atoms: C_19  and  O_20
REMARK    9  A    between atoms: C_21  and  O_22
REMARK                            x       y       z     vdW  Elec       q    Type
REMARK                         _______ _______ _______ _____ _____    ______ ____
ROOT
ATOM      1  C   UNL     1      -0.919   1.478  -0.875  0.00  0.00    +0.000 C 
ATOM      2  C   UNL     1      -0.970   0.224   0.027  0.00  0.00    +0.000 C 
ATOM      3  O   UNL     1      -1.366   0.567   1.348  0.00  0.00    +0.000 OA
ATOM      4  C   UNL     1      -0.452   1.462   1.966  0.00  0.00    +0.000 C 
ATOM      5  C   UNL     1      -0.394   2.803   1.194  0.00  0.00    +0.000 C 
ATOM      6  C   UNL     1       0.010   2.547  -0.267  0.00  0.00    +0.000 C 
ENDROOT
BRANCH   1  10
ATOM      7  C   UNL     1      -0.856   0.046  -4.504  0.00  0.00    +0.000 C 
ATOM      8  C   UNL     1      -1.359   0.425  -3.149  0.00  0.00    +0.000 C 
ATOM      9  O   UNL     1      -2.550   0.161  -2.832  0.00  0.00    +0.000 OA
ATOM     10  N   UNL     1      -0.499   1.123  -2.237  0.00  0.00    +0.000 N 
ATOM     11  H   UNL     1       0.441   1.421  -2.586  0.00  0.00    +0.000 HD
ENDBRANCH   1  10
BRANCH   5  12
ATOM     12  O   UNL     1       0.537   3.675   1.787  0.00  0.00    +0.000 OA
ATOM     13  H   UNL     1       0.035   4.265   2.406  0.00  0.00    +0.000 HD
ENDBRANCH   5  12
BRANCH   6  14
ATOM     14  O   UNL     1       1.351   2.125  -0.335  0.00  0.00    +0.000 OA
ATOM     15  H   UNL     1       1.914   2.942  -0.335  0.00  0.00    +0.000 HD
ENDBRANCH   6  14
BRANCH   2  16
ATOM     16  O   UNL     1       0.290  -0.437   0.021  0.00  0.00    +0.000 OA
BRANCH  16  17
ATOM     17  C   UNL     1       0.152  -1.834   0.199  0.00  0.00    +0.000 C 
BRANCH  17  18
ATOM     18  C   UNL     1      -0.081  -2.180   1.645  0.00  0.00    +0.000 A 
ATOM     19  C   UNL     1       0.954  -2.023   2.581  0.00  0.00    +0.000 A 
ATOM     20  C   UNL     1       0.740  -2.340   3.926  0.00  0.00    +0.000 A 
ATOM     21  C   UNL     1      -0.508  -2.808   4.346  0.00  0.00    +0.000 A 
ATOM     22  C   UNL     1      -1.546  -2.955   3.422  0.00  0.00    +0.000 A 
ATOM     23  C   UNL     1      -1.337  -2.639   2.075  0.00  0.00    +0.000 A 
ENDBRANCH  17  18
ENDBRANCH  16  17
ENDBRANCH   2  16
BRANCH   4  24
ATOM     24  C   UNL     1      -0.906   1.692   3.416  0.00  0.00    +0.000 C 
BRANCH  24  25
ATOM     25  O   UNL     1      -0.955   0.478   4.114  0.00  0.00    +0.000 OA
ATOM     26  H   UNL     1      -1.830   0.060   3.903  0.00  0.00    +0.000 HD
ENDBRANCH  24  25
ENDBRANCH   4  24
TORSDOF 8
