REMARK  Name = 198514
REMARK  16 active torsions:
REMARK  status: ('A' for Active; 'I' for Inactive)
REMARK    1  A    between atoms: O_2  and  C_3
REMARK    2  A    between atoms: C_3  and  C_47
REMARK    3  A    between atoms: N_4  and  C_5
REMARK    4  A    between atoms: C_7  and  O_9
REMARK    5  A    between atoms: O_9  and  C_10
REMARK    6  A    between atoms: C_10  and  C_12
REMARK    7  A    between atoms: C_17  and  C_19
REMARK    8  A    between atoms: C_19  and  O_22
REMARK    9  A    between atoms: O_22  and  C_23
REMARK   10  A    between atoms: C_23  and  C_25
REMARK   11  A    between atoms: C_29  and  O_31
REMARK   12  A    between atoms: O_31  and  C_32
REMARK   13  A    between atoms: C_32  and  C_34
REMARK   14  A    between atoms: C_38  and  O_40
REMARK   15  A    between atoms: O_40  and  C_41
REMARK   16  A    between atoms: C_41  and  C_43
REMARK                            x       y       z     vdW  Elec       q    Type
REMARK                         _______ _______ _______ _____ _____    ______ ____
ROOT
ATOM      1  C   UNL     1       1.001  -0.880  -1.961  0.00  0.00    +0.000 C 
ATOM      2  C   UNL     1      -0.361  -0.341  -2.443  0.00  0.00    +0.000 C 
ATOM      3  O   UNL     1      -0.227   1.009  -2.846  0.00  0.00    +0.000 OA
ATOM      4  C   UNL     1       0.095   1.826  -1.732  0.00  0.00    +0.000 C 
ATOM      5  C   UNL     1       1.501   1.473  -1.195  0.00  0.00    +0.000 C 
ATOM      6  C   UNL     1       1.554  -0.018  -0.805  0.00  0.00    +0.000 C 
ENDROOT
BRANCH   1   8
ATOM      7  C   UNL     1       0.199  -2.857  -0.692  0.00  0.00    +0.000 C 
ATOM      8  N   UNL     1       0.934  -2.305  -1.613  0.00  0.00    +0.000 NA
BRANCH   7  10
ATOM      9  H   UNL     1      -1.239  -2.523   0.810  0.00  0.00    +0.000 HD
ATOM     10  O   UNL     1      -0.652  -2.094   0.106  0.00  0.00    +0.000 OA
ENDBRANCH   7  10
BRANCH   7  11
ATOM     11  C   UNL     1       0.248  -4.340  -0.514  0.00  0.00    +0.000 C 
ATOM     12 BR   UNL     1      -1.127  -5.164  -1.597  0.00  0.00    +0.000 Br
ENDBRANCH   7  11
ENDBRANCH   1   8
BRANCH   2  13
ATOM     13  O   UNL     1      -0.796  -1.116  -3.557  0.00  0.00    +0.000 OA
BRANCH  13  14
ATOM     14  C   UNL     1      -2.051  -0.954  -4.152  0.00  0.00    +0.000 C 
ATOM     15  O   UNL     1      -2.875  -0.113  -3.699  0.00  0.00    +0.000 OA
ATOM     16  C   UNL     1      -2.437  -1.827  -5.296  0.00  0.00    +0.000 C 
ENDBRANCH  13  14
ENDBRANCH   2  13
BRANCH   4  17
ATOM     17  C   UNL     1       0.035   3.296  -2.175  0.00  0.00    +0.000 C 
BRANCH  17  18
ATOM     18  O   UNL     1      -1.230   3.592  -2.765  0.00  0.00    +0.000 OA
BRANCH  18  19
ATOM     19  C   UNL     1      -2.409   3.746  -2.027  0.00  0.00    +0.000 C 
ATOM     20  O   UNL     1      -2.397   3.682  -0.768  0.00  0.00    +0.000 OA
ATOM     21  C   UNL     1      -3.701   3.941  -2.744  0.00  0.00    +0.000 C 
ENDBRANCH  18  19
ENDBRANCH  17  18
ENDBRANCH   4  17
BRANCH   5  22
ATOM     22  O   UNL     1       1.787   2.284  -0.052  0.00  0.00    +0.000 OA
BRANCH  22  23
ATOM     23  C   UNL     1       3.082   2.573   0.393  0.00  0.00    +0.000 C 
ATOM     24  O   UNL     1       4.091   2.220  -0.275  0.00  0.00    +0.000 OA
ATOM     25  C   UNL     1       3.265   3.368   1.640  0.00  0.00    +0.000 C 
ENDBRANCH  22  23
ENDBRANCH   5  22
BRANCH   6  26
ATOM     26  O   UNL     1       2.910  -0.382  -0.537  0.00  0.00    +0.000 OA
BRANCH  26  27
ATOM     27  C   UNL     1       3.293  -1.335   0.413  0.00  0.00    +0.000 C 
ATOM     28  O   UNL     1       2.445  -1.859   1.186  0.00  0.00    +0.000 OA
ATOM     29  C   UNL     1       4.735  -1.679   0.559  0.00  0.00    +0.000 C 
ENDBRANCH  26  27
ENDBRANCH   6  26
TORSDOF 12
