REMARK  Name = 312829
REMARK  16 active torsions:
REMARK  status: ('A' for Active; 'I' for Inactive)
REMARK    1  A    between atoms: O_2  and  C_3
REMARK    2  A    between atoms: C_3  and  C_47
REMARK    3  A    between atoms: N_4  and  C_5
REMARK    4  A    between atoms: C_7  and  O_9
REMARK    5  A    between atoms: O_9  and  C_10
REMARK    6  A    between atoms: C_10  and  C_12
REMARK    7  A    between atoms: C_17  and  C_19
REMARK    8  A    between atoms: C_19  and  O_22
REMARK    9  A    between atoms: O_22  and  C_23
REMARK   10  A    between atoms: C_23  and  C_25
REMARK   11  A    between atoms: C_29  and  O_31
REMARK   12  A    between atoms: O_31  and  C_32
REMARK   13  A    between atoms: C_32  and  C_34
REMARK   14  A    between atoms: C_38  and  O_40
REMARK   15  A    between atoms: O_40  and  C_41
REMARK   16  A    between atoms: C_41  and  C_43
REMARK                            x       y       z     vdW  Elec       q    Type
REMARK                         _______ _______ _______ _____ _____    ______ ____
ROOT
ATOM      1  C   UNL     1      -1.762   0.285  -0.468  0.00  0.00    +0.000 C 
ATOM      2  C   UNL     1      -0.780  -0.829  -0.903  0.00  0.00    +0.000 C 
ATOM      3  O   UNL     1       0.412  -0.281  -1.447  0.00  0.00    +0.000 OA
ATOM      4  C   UNL     1       1.101   0.507  -0.490  0.00  0.00    +0.000 C 
ATOM      5  C   UNL     1       0.263   1.746  -0.101  0.00  0.00    +0.000 C 
ATOM      6  C   UNL     1      -1.077   1.273   0.495  0.00  0.00    +0.000 C 
ENDROOT
BRANCH   1   8
ATOM      7  C   UNL     1      -3.906  -0.894  -0.455  0.00  0.00    +0.000 C 
ATOM      8  N   UNL     1      -2.946  -0.286   0.176  0.00  0.00    +0.000 NA
ATOM      9  C   UNL     1      -5.067  -1.434   0.316  0.00  0.00    +0.000 C 
BRANCH   7  11
ATOM     10  H   UNL     1      -4.633  -1.468  -2.346  0.00  0.00    +0.000 HD
ATOM     11  O   UNL     1      -3.880  -1.012  -1.845  0.00  0.00    +0.000 OA
ENDBRANCH   7  11
ENDBRANCH   1   8
BRANCH   2  12
ATOM     12  O   UNL     1      -0.494  -1.713   0.185  0.00  0.00    +0.000 OA
BRANCH  12  13
ATOM     13  C   UNL     1       0.312  -2.848   0.053  0.00  0.00    +0.000 C 
ATOM     14  O   UNL     1       0.766  -3.190  -1.073  0.00  0.00    +0.000 OA
ATOM     15  C   UNL     1       0.624  -3.672   1.254  0.00  0.00    +0.000 C 
ENDBRANCH  12  13
ENDBRANCH   2  12
BRANCH   4  16
ATOM     16  C   UNL     1       2.473   0.891  -1.060  0.00  0.00    +0.000 C 
BRANCH  16  17
ATOM     17  O   UNL     1       3.239  -0.281  -1.342  0.00  0.00    +0.000 OA
BRANCH  17  18
ATOM     18  C   UNL     1       3.827  -1.075  -0.351  0.00  0.00    +0.000 C 
ATOM     19  O   UNL     1       3.827  -0.709   0.856  0.00  0.00    +0.000 OA
ATOM     20  C   UNL     1       4.504  -2.345  -0.735  0.00  0.00    +0.000 C 
ENDBRANCH  17  18
ENDBRANCH  16  17
ENDBRANCH   4  16
BRANCH   5  21
ATOM     21  O   UNL     1      -0.004   2.560  -1.247  0.00  0.00    +0.000 OA
BRANCH  21  22
ATOM     22  C   UNL     1       0.744   3.689  -1.599  0.00  0.00    +0.000 C 
ATOM     23  O   UNL     1       1.717   4.069  -0.893  0.00  0.00    +0.000 OA
ATOM     24  C   UNL     1       0.413   4.424  -2.852  0.00  0.00    +0.000 C 
ENDBRANCH  21  22
ENDBRANCH   5  21
BRANCH   6  25
ATOM     25  O   UNL     1      -0.866   0.640   1.761  0.00  0.00    +0.000 OA
BRANCH  25  26
ATOM     26  C   UNL     1      -0.573   1.337   2.938  0.00  0.00    +0.000 C 
ATOM     27  O   UNL     1      -0.571   2.598   2.961  0.00  0.00    +0.000 OA
ATOM     28  C   UNL     1      -0.315   0.575   4.193  0.00  0.00    +0.000 C 
ENDBRANCH  25  26
ENDBRANCH   6  25
TORSDOF 11
