REMARK  Name = 439213
REMARK  6 active torsions:
REMARK  status: ('A' for Active; 'I' for Inactive)
REMARK    1  A    between atoms: N_1  and  C_2
REMARK    2  A    between atoms: C_3  and  O_4
REMARK    3  A    between atoms: C_6  and  C_7
REMARK    4  A    between atoms: C_7  and  O_8
REMARK    5  A    between atoms: C_9  and  O_10
REMARK    6  A    between atoms: C_11  and  O_12
REMARK                            x       y       z     vdW  Elec       q    Type
REMARK                         _______ _______ _______ _____ _____    ______ ____
ROOT
ATOM      1  C   UNL     1       0.893   0.873  -0.897  0.00  0.00    +0.000 C 
ATOM      2  C   UNL     1      -0.308   0.239  -1.637  0.00  0.00    +0.000 C 
ATOM      3  O   UNL     1      -1.369  -0.053  -0.739  0.00  0.00    +0.000 OA
ATOM      4  C   UNL     1      -0.980  -1.002   0.243  0.00  0.00    +0.000 C 
ATOM      5  C   UNL     1       0.169  -0.446   1.123  0.00  0.00    +0.000 C 
ATOM      6  C   UNL     1       1.369  -0.051   0.241  0.00  0.00    +0.000 C 
ENDROOT
BRANCH   1   7
ATOM      7  N   UNL     1       1.989   1.171  -1.829  0.00  0.00    +0.000 N 
ATOM      8  H   UNL     1       1.639   1.779  -2.605  0.00  0.00    +0.000 HD
ATOM      9  H   UNL     1       2.384   0.291  -2.235  0.00  0.00    +0.000 HD
ATOM     10  H   UNL     1       2.749   1.687  -1.331  0.00  0.00    +0.000 HD
ENDBRANCH   1   7
BRANCH   2  11
ATOM     11  O   UNL     1       0.083  -0.907  -2.352  0.00  0.00    +0.000 OA
ATOM     12  H   UNL     1      -0.705  -1.185  -2.887  0.00  0.00    +0.000 HD
ENDBRANCH   2  11
BRANCH   5  13
ATOM     13  O   UNL     1       0.559  -1.379   2.101  0.00  0.00    +0.000 OA
ATOM     14  H   UNL     1       0.866  -2.198   1.631  0.00  0.00    +0.000 HD
ENDBRANCH   5  13
BRANCH   6  15
ATOM     15  O   UNL     1       2.330   0.619   1.017  0.00  0.00    +0.000 OA
ATOM     16  H   UNL     1       2.842  -0.077   1.505  0.00  0.00    +0.000 HD
ENDBRANCH   6  15
BRANCH   4  17
ATOM     17  C   UNL     1      -2.210  -1.364   1.091  0.00  0.00    +0.000 C 
BRANCH  17  18
ATOM     18  O   UNL     1      -2.706  -0.242   1.773  0.00  0.00    +0.000 OA
ATOM     19  H   UNL     1      -3.236   0.281   1.117  0.00  0.00    +0.000 HD
ENDBRANCH  17  18
ENDBRANCH   4  17
TORSDOF 6
