REMARK  Name = ZINC000004027859
REMARK  6 active torsions:
REMARK  status: ('A' for Active; 'I' for Inactive)
REMARK    1  A    between atoms: O_2  and  C_3
REMARK    2  A    between atoms: C_3  and  C_38
REMARK    3  A    between atoms: N_4  and  C_5
REMARK    4  A    between atoms: C_7  and  O_9
REMARK    5  A    between atoms: C_14  and  C_16
REMARK    6  A    between atoms: C_34  and  O_36
REMARK                            x       y       z     vdW  Elec       q    Type
REMARK                         _______ _______ _______ _____ _____    ______ ____
ROOT
ATOM      1  C   UNL     1       1.988   0.553  -1.659  0.00  0.00    +0.000 C 
ATOM      2  C   UNL     1       1.051  -0.313  -0.787  0.00  0.00    +0.000 C 
ATOM      3  C   UNL     1       0.634   0.495   0.452  0.00  0.00    +0.000 C 
ATOM      4  O   UNL     1      -0.316  -0.215   1.221  0.00  0.00    +0.000 OA
ATOM      5  C   UNL     1      -0.663   0.549   2.369  0.00  0.00    +0.000 C 
ATOM      6  O   UNL     1      -1.297   1.766   2.001  0.00  0.00    +0.000 OA
ATOM      7  C   UNL     1      -0.404   2.576   1.261  0.00  0.00    +0.000 C 
ATOM      8  C   UNL     1       0.048   1.840   0.002  0.00  0.00    +0.000 C 
ATOM      9  O   UNL     1       1.023   2.595  -0.692  0.00  0.00    +0.000 OA
ATOM     10  C   UNL     1       1.357   1.946  -1.913  0.00  0.00    +0.000 C 
ENDROOT
BRANCH   5  11
ATOM     11  C   UNL     1      -1.627  -0.256   3.199  0.00  0.00    +0.000 A 
ATOM     12  C   UNL     1      -2.851  -0.674   2.646  0.00  0.00    +0.000 A 
ATOM     13  C   UNL     1      -3.753  -1.420   3.411  0.00  0.00    +0.000 A 
ATOM     14  C   UNL     1      -3.442  -1.755   4.731  0.00  0.00    +0.000 A 
ATOM     15  C   UNL     1      -2.229  -1.344   5.290  0.00  0.00    +0.000 A 
ATOM     16  C   UNL     1      -1.324  -0.597   4.529  0.00  0.00    +0.000 A 
ENDBRANCH   5  11
BRANCH   1  18
ATOM     17  C   UNL     1       3.048  -1.119  -3.095  0.00  0.00    +0.000 C 
ATOM     18  N   UNL     1       2.254  -0.102  -2.942  0.00  0.00    +0.000 NA
ATOM     19  C   UNL     1       3.220  -1.723  -4.451  0.00  0.00    +0.000 C 
BRANCH  17  21
ATOM     20  H   UNL     1       4.331  -2.468  -2.111  0.00  0.00    +0.000 HD
ATOM     21  O   UNL     1       3.722  -1.666  -2.003  0.00  0.00    +0.000 OA
ENDBRANCH  17  21
ENDBRANCH   1  18
BRANCH   2  22
ATOM     22  O   UNL     1      -0.080  -0.694  -1.532  0.00  0.00    +0.000 OA
ATOM     23  H   UNL     1      -0.460  -1.497  -1.089  0.00  0.00    +0.000 HD
ENDBRANCH   2  22
BRANCH  10  24
ATOM     24  O   UNL     1       2.249   2.752  -2.637  0.00  0.00    +0.000 OA
ATOM     25  H   UNL     1       3.006   2.967  -2.031  0.00  0.00    +0.000 HD
ENDBRANCH  10  24
TORSDOF 5
