REMARK  Name = 254124
REMARK  8 active torsions:
REMARK  status: ('A' for Active; 'I' for Inactive)
REMARK    1  A    between atoms: C_1  and  O_2
REMARK    2  A    between atoms: O_2  and  C_3
REMARK    3  A    between atoms: C_5  and  C_6
REMARK    4  A    between atoms: C_6  and  O_7
REMARK    5  A    between atoms: C_8  and  O_9
REMARK    6  A    between atoms: C_10  and  O_11
REMARK    7  A    between atoms: C_12  and  N_13
REMARK    8  A    between atoms: C_14  and  C_15
REMARK                            x       y       z     vdW  Elec       q    Type
REMARK                         _______ _______ _______ _____ _____    ______ ____
ROOT
ATOM      1  C   UNL     1       0.272   0.800  -1.675  0.00  0.00    +0.000 C 
ATOM      2  O   UNL     1       0.714  -0.296  -0.891  0.00  0.00    +0.000 OA
ATOM      3  C   UNL     1       1.851   0.054  -0.117  0.00  0.00    +0.000 C 
ATOM      4  C   UNL     1       1.485   1.138   0.927  0.00  0.00    +0.000 C 
ATOM      5  C   UNL     1       0.891   2.361   0.212  0.00  0.00    +0.000 C 
ATOM      6  C   UNL     1      -0.232   1.938  -0.757  0.00  0.00    +0.000 C 
ENDROOT
BRANCH   6   7
ATOM      7  N   UNL     1      -1.425   1.506  -0.016  0.00  0.00    +0.000 N 
ATOM      8  C   UNL     1      -2.536   2.375   0.243  0.00  0.00    +0.000 C 
ATOM      9  C   UNL     1      -3.680   1.891   1.074  0.00  0.00    +0.000 C 
ATOM     10  O   UNL     1      -2.546   3.554  -0.202  0.00  0.00    +0.000 OA
ATOM     11  H   UNL     1      -1.428   0.559   0.429  0.00  0.00    +0.000 HD
ENDBRANCH   6   7
BRANCH   1  13
ATOM     12  C   UNL     1      -0.781   0.987  -3.748  0.00  0.00    +0.000 C 
ATOM     13  O   UNL     1      -0.795   0.345  -2.490  0.00  0.00    +0.000 OA
ENDBRANCH   1  13
BRANCH   4  14
ATOM     14  O   UNL     1       2.633   1.539   1.633  0.00  0.00    +0.000 OA
ATOM     15  H   UNL     1       2.680   0.985   2.455  0.00  0.00    +0.000 HD
ENDBRANCH   4  14
BRANCH   5  16
ATOM     16  O   UNL     1       0.406   3.272   1.165  0.00  0.00    +0.000 OA
ATOM     17  H   UNL     1       0.270   4.134   0.692  0.00  0.00    +0.000 HD
ENDBRANCH   5  16
BRANCH   3  18
ATOM     18  C   UNL     1       2.399  -1.218   0.545  0.00  0.00    +0.000 C 
BRANCH  18  19
ATOM     19  O   UNL     1       1.422  -1.829   1.347  0.00  0.00    +0.000 OA
ATOM     20  H   UNL     1       1.544  -1.480   2.268  0.00  0.00    +0.000 HD
ENDBRANCH  18  19
ENDBRANCH   3  18
TORSDOF 6
