REMARK  Name = 99461
REMARK  16 active torsions:
REMARK  status: ('A' for Active; 'I' for Inactive)
REMARK    1  A    between atoms: O_2  and  C_3
REMARK    2  A    between atoms: C_3  and  C_47
REMARK    3  A    between atoms: N_4  and  C_5
REMARK    4  A    between atoms: C_7  and  O_9
REMARK    5  A    between atoms: O_9  and  C_10
REMARK    6  A    between atoms: C_10  and  C_12
REMARK    7  A    between atoms: C_17  and  C_19
REMARK    8  A    between atoms: C_19  and  O_22
REMARK    9  A    between atoms: O_22  and  C_23
REMARK   10  A    between atoms: C_23  and  C_25
REMARK   11  A    between atoms: C_29  and  O_31
REMARK   12  A    between atoms: O_31  and  C_32
REMARK   13  A    between atoms: C_32  and  C_34
REMARK   14  A    between atoms: C_38  and  O_40
REMARK   15  A    between atoms: O_40  and  C_41
REMARK   16  A    between atoms: C_41  and  C_43
REMARK                            x       y       z     vdW  Elec       q    Type
REMARK                         _______ _______ _______ _____ _____    ______ ____
ROOT
ATOM      1  C   UNL     1       1.195   1.465  -0.721  0.00  0.00    +0.000 C 
ATOM      2  C   UNL     1      -0.042   1.105  -1.565  0.00  0.00    +0.000 C 
ATOM      3  O   UNL     1      -1.061   0.568  -0.740  0.00  0.00    +0.000 OA
ATOM      4  C   UNL     1      -0.653  -0.672  -0.188  0.00  0.00    +0.000 C 
ATOM      5  C   UNL     1       0.546  -0.462   0.770  0.00  0.00    +0.000 C 
ATOM      6  C   UNL     1       1.701   0.206   0.009  0.00  0.00    +0.000 C 
ENDROOT
BRANCH   1   8
ATOM      7  C   UNL     1       2.566   3.230  -1.798  0.00  0.00    +0.000 C 
ATOM      8  N   UNL     1       2.255   1.982  -1.594  0.00  0.00    +0.000 NA
ATOM      9  C   UNL     1       1.865   4.361  -1.094  0.00  0.00    +0.000 C 
BRANCH   7  11
ATOM     10  H   UNL     1       3.898   4.466  -2.868  0.00  0.00    +0.000 HD
ATOM     11  O   UNL     1       3.604   3.515  -2.681  0.00  0.00    +0.000 OA
ENDBRANCH   7  11
ENDBRANCH   1   8
BRANCH   2  12
ATOM     12  O   UNL     1      -0.536   2.283  -2.197  0.00  0.00    +0.000 OA
BRANCH  12  13
ATOM     13  C   UNL     1      -1.585   2.271  -3.120  0.00  0.00    +0.000 C 
ATOM     14  O   UNL     1      -2.131   1.187  -3.463  0.00  0.00    +0.000 OA
ATOM     15  C   UNL     1      -2.027   3.551  -3.744  0.00  0.00    +0.000 C 
ENDBRANCH  12  13
ENDBRANCH   2  12
BRANCH   4  16
ATOM     16  C   UNL     1      -1.855  -1.300   0.525  0.00  0.00    +0.000 C 
BRANCH  16  17
ATOM     17  O   UNL     1      -2.293  -0.462   1.591  0.00  0.00    +0.000 OA
BRANCH  17  18
ATOM     18  C   UNL     1      -3.357  -0.801   2.430  0.00  0.00    +0.000 C 
ATOM     19  O   UNL     1      -3.975  -1.890   2.278  0.00  0.00    +0.000 OA
ATOM     20  C   UNL     1      -3.728   0.110   3.550  0.00  0.00    +0.000 C 
ENDBRANCH  17  18
ENDBRANCH  16  17
ENDBRANCH   4  16
BRANCH   5  21
ATOM     21  O   UNL     1       1.007  -1.716   1.282  0.00  0.00    +0.000 OA
BRANCH  21  22
ATOM     22  C   UNL     1       0.671  -2.219   2.545  0.00  0.00    +0.000 C 
ATOM     23  O   UNL     1      -0.029  -1.545   3.348  0.00  0.00    +0.000 OA
ATOM     24  C   UNL     1       1.186  -3.554   2.962  0.00  0.00    +0.000 C 
ENDBRANCH  21  22
ENDBRANCH   5  21
BRANCH   6  25
ATOM     25  O   UNL     1       2.723   0.555   0.946  0.00  0.00    +0.000 OA
BRANCH  25  26
ATOM     26  C   UNL     1       4.076   0.689   0.613  0.00  0.00    +0.000 C 
ATOM     27  O   UNL     1       4.492   0.390  -0.539  0.00  0.00    +0.000 OA
ATOM     28  C   UNL     1       5.045   1.136   1.653  0.00  0.00    +0.000 C 
ENDBRANCH  25  26
ENDBRANCH   6  25
TORSDOF 11
