REMARK  Name = 90220
REMARK  10 active torsions:
REMARK  status: ('A' for Active; 'I' for Inactive)
REMARK    1  A    between atoms: O_2  and  C_3
REMARK    2  A    between atoms: C_3  and  C_39
REMARK    3  A    between atoms: N_4  and  C_5
REMARK    4  A    between atoms: C_7  and  O_9
REMARK    5  A    between atoms: O_9  and  C_10
REMARK    6  A    between atoms: C_15  and  N_16
REMARK    7  A    between atoms: C_24  and  C_26
REMARK    8  A    between atoms: C_26  and  O_29
REMARK    9  A    between atoms: C_31  and  O_33
REMARK   10  A    between atoms: C_35  and  O_37
REMARK                            x       y       z     vdW  Elec       q    Type
REMARK                         _______ _______ _______ _____ _____    ______ ____
ROOT
ATOM      1  C   UNL     1      -0.346   0.647  -0.862  0.00  0.00    +0.000 C 
ATOM      2  C   UNL     1      -1.718   0.779  -0.154  0.00  0.00    +0.000 C 
ATOM      3  O   UNL     1      -2.346   2.004  -0.501  0.00  0.00    +0.000 OA
ATOM      4  C   UNL     1      -1.583   3.123  -0.074  0.00  0.00    +0.000 C 
ATOM      5  C   UNL     1      -0.225   3.167  -0.808  0.00  0.00    +0.000 C 
ATOM      6  C   UNL     1       0.541   1.863  -0.529  0.00  0.00    +0.000 C 
ENDROOT
BRANCH   1   8
ATOM      7  C   UNL     1       1.175  -1.254  -1.159  0.00  0.00    +0.000 C 
ATOM      8  N   UNL     1       0.312  -0.593  -0.448  0.00  0.00    +0.000 NA
ATOM      9  C   UNL     1       1.788  -2.497  -0.601  0.00  0.00    +0.000 C 
BRANCH   7  11
ATOM     10  H   UNL     1       2.226  -1.311  -2.982  0.00  0.00    +0.000 HD
ATOM     11  O   UNL     1       1.545  -0.807  -2.427  0.00  0.00    +0.000 OA
ENDBRANCH   7  11
ENDBRANCH   1   8
BRANCH   5  12
ATOM     12  O   UNL     1      -0.418   3.310  -2.194  0.00  0.00    +0.000 OA
ATOM     13  H   UNL     1      -0.393   4.282  -2.394  0.00  0.00    +0.000 HD
ENDBRANCH   5  12
BRANCH   6  14
ATOM     14  O   UNL     1       1.717   1.823  -1.296  0.00  0.00    +0.000 OA
ATOM     15  H   UNL     1       2.357   2.452  -0.872  0.00  0.00    +0.000 HD
ENDBRANCH   6  14
BRANCH   2  16
ATOM     16  O   UNL     1      -1.601   0.672   1.273  0.00  0.00    +0.000 OA
BRANCH  16  17
ATOM     17  C   UNL     1      -1.500  -0.513   2.023  0.00  0.00    +0.000 A 
ATOM     18  C   UNL     1      -1.207  -0.399   3.386  0.00  0.00    +0.000 A 
ATOM     19  C   UNL     1      -1.087  -1.537   4.189  0.00  0.00    +0.000 A 
ATOM     20  C   UNL     1      -1.263  -2.818   3.640  0.00  0.00    +0.000 A 
ATOM     21  C   UNL     1      -1.566  -2.934   2.272  0.00  0.00    +0.000 A 
ATOM     22  C   UNL     1      -1.688  -1.795   1.471  0.00  0.00    +0.000 A 
BRANCH  20  23
ATOM     23  N   UNL     1      -1.135  -3.989   4.467  0.00  0.00    +0.000 N 
ATOM     24  O   UNL     1      -1.290  -5.130   3.984  0.00  0.00    +0.000 OA
ATOM     25  O   UNL     1      -0.840  -3.870   5.806  0.00  0.00    +0.000 OA
ENDBRANCH  20  23
ENDBRANCH  16  17
ENDBRANCH   2  16
BRANCH   4  26
ATOM     26  C   UNL     1      -2.391   4.404  -0.325  0.00  0.00    +0.000 C 
BRANCH  26  27
ATOM     27  O   UNL     1      -3.532   4.430   0.491  0.00  0.00    +0.000 OA
ATOM     28  H   UNL     1      -4.207   3.846   0.057  0.00  0.00    +0.000 HD
ENDBRANCH  26  27
ENDBRANCH   4  26
TORSDOF 9
