REMARK  Name = 18897
REMARK  6 active torsions:
REMARK  status: ('A' for Active; 'I' for Inactive)
REMARK    1  A    between atoms: N_1  and  C_2
REMARK    2  A    between atoms: C_3  and  O_4
REMARK    3  A    between atoms: C_5  and  O_6
REMARK    4  A    between atoms: C_7  and  C_8
REMARK    5  A    between atoms: C_8  and  O_9
REMARK    6  A    between atoms: C_11  and  O_12
REMARK                            x       y       z     vdW  Elec       q    Type
REMARK                         _______ _______ _______ _____ _____    ______ ____
ROOT
ATOM      1  C   UNL     1      -1.454  -0.230  -0.793  0.00  0.00    +0.000 C 
ATOM      2  C   UNL     1      -1.042  -0.987   0.487  0.00  0.00    +0.000 C 
ATOM      3  C   UNL     1       0.493  -0.991   0.649  0.00  0.00    +0.000 C 
ATOM      4  C   UNL     1       1.054   0.444   0.470  0.00  0.00    +0.000 C 
ATOM      5  O   UNL     1       0.678   0.991  -0.785  0.00  0.00    +0.000 OA
ATOM      6  C   UNL     1      -0.732   1.135  -0.891  0.00  0.00    +0.000 C 
ENDROOT
BRANCH   1   7
ATOM      7  N   UNL     1      -2.906  -0.043  -0.833  0.00  0.00    +0.000 NA
ATOM      8  H   UNL     1      -3.157   0.401  -1.747  0.00  0.00    +0.000 HD
ATOM      9  H   UNL     1      -3.358  -0.987  -0.837  0.00  0.00    +0.000 HD
ENDBRANCH   1   7
BRANCH   2  10
ATOM     10  O   UNL     1      -1.639  -0.382   1.608  0.00  0.00    +0.000 OA
ATOM     11  H   UNL     1      -1.614  -1.049   2.343  0.00  0.00    +0.000 HD
ENDBRANCH   2  10
BRANCH   3  12
ATOM     12  O   UNL     1       1.086  -1.911  -0.238  0.00  0.00    +0.000 OA
ATOM     13  H   UNL     1       0.978  -1.567  -1.161  0.00  0.00    +0.000 HD
ENDBRANCH   3  12
BRANCH   6  14
ATOM     14  O   UNL     1      -1.226   2.037   0.068  0.00  0.00    +0.000 OA
ATOM     15  H   UNL     1      -0.803   2.913  -0.129  0.00  0.00    +0.000 HD
ENDBRANCH   6  14
BRANCH   4  16
ATOM     16  C   UNL     1       2.582   0.485   0.606  0.00  0.00    +0.000 C 
BRANCH  16  17
ATOM     17  O   UNL     1       3.196  -0.125  -0.497  0.00  0.00    +0.000 OA
ATOM     18  H   UNL     1       4.173  -0.068  -0.334  0.00  0.00    +0.000 HD
ENDBRANCH  16  17
ENDBRANCH   4  16
TORSDOF 6
