REMARK  Name = ZINC000019893747
REMARK  10 active torsions:
REMARK  status: ('A' for Active; 'I' for Inactive)
REMARK    1  A    between atoms: C_1  and  O_2
REMARK    2  A    between atoms: O_2  and  C_3
REMARK    3  A    between atoms: C_5  and  C_6
REMARK    4  A    between atoms: C_6  and  O_7
REMARK    5  A    between atoms: C_8  and  O_9
REMARK    6  A    between atoms: C_10  and  O_11
REMARK    7  A    between atoms: O_11  and  S_12
REMARK    8  A    between atoms: S_12  and  C_13
REMARK    9  A    between atoms: C_16  and  N_17
REMARK   10  A    between atoms: C_18  and  C_20
REMARK                            x       y       z     vdW  Elec       q    Type
REMARK                         _______ _______ _______ _____ _____    ______ ____
ROOT
ATOM      1  C   UNL     1      -2.063  -0.968   1.339  0.00  0.00    +0.000 C 
ATOM      2  O   UNL     1      -3.337  -1.383   0.871  0.00  0.00    +0.000 OA
ATOM      3  C   UNL     1      -3.929  -0.378   0.065  0.00  0.00    +0.000 C 
ATOM      4  C   UNL     1      -3.095  -0.169  -1.223  0.00  0.00    +0.000 C 
ATOM      5  C   UNL     1      -1.644   0.211  -0.862  0.00  0.00    +0.000 C 
ATOM      6  C   UNL     1      -1.094  -0.821   0.146  0.00  0.00    +0.000 C 
ENDROOT
BRANCH   6   7
ATOM      7  N   UNL     1       0.243  -0.430   0.607  0.00  0.00    +0.000 N 
ATOM      8  C   UNL     1       1.424  -0.679  -0.173  0.00  0.00    +0.000 C 
ATOM      9  O   UNL     1       1.345  -1.382  -1.218  0.00  0.00    +0.000 OA
ATOM     10  H   UNL     1       0.346  -0.033   1.569  0.00  0.00    +0.000 HD
BRANCH   8  11
ATOM     11  C   UNL     1       2.740  -0.130   0.234  0.00  0.00    +0.000 A 
ATOM     12  C   UNL     1       2.831   1.026   1.033  0.00  0.00    +0.000 A 
ATOM     13  C   UNL     1       4.080   1.538   1.399  0.00  0.00    +0.000 A 
ATOM     14  C   UNL     1       5.249   0.907   0.969  0.00  0.00    +0.000 A 
ATOM     15  C   UNL     1       5.173  -0.234   0.167  0.00  0.00    +0.000 A 
ATOM     16  C   UNL     1       3.926  -0.748  -0.203  0.00  0.00    +0.000 A 
ENDBRANCH   8  11
ENDBRANCH   6   7
BRANCH   1  18
ATOM     17  C   UNL     1      -2.192  -1.882   3.464  0.00  0.00    +0.000 C 
ATOM     18  O   UNL     1      -1.549  -1.958   2.210  0.00  0.00    +0.000 OA
ENDBRANCH   1  18
BRANCH   4  19
ATOM     19  O   UNL     1      -3.676   0.839  -2.009  0.00  0.00    +0.000 OA
ATOM     20  H   UNL     1      -3.397   0.668  -2.946  0.00  0.00    +0.000 HD
ENDBRANCH   4  19
BRANCH   3  21
ATOM     21  C   UNL     1      -5.361  -0.811  -0.279  0.00  0.00    +0.000 C 
BRANCH  21  22
ATOM     22  O   UNL     1      -6.126  -0.941   0.890  0.00  0.00    +0.000 OA
ATOM     23  H   UNL     1      -5.916  -1.832   1.273  0.00  0.00    +0.000 HD
ENDBRANCH  21  22
ENDBRANCH   3  21
BRANCH   5  24
ATOM     24  O   UNL     1      -1.630   1.501  -0.271  0.00  0.00    +0.000 OA
BRANCH  24  25
ATOM     25  S   UNL     1      -0.663   2.578  -1.162  0.00  0.00    +0.000 S 
ATOM     26  C   UNL     1      -1.407   2.961  -2.733  0.00  0.00    +0.000 C 
ATOM     27  O   UNL     1      -0.528   3.853  -0.378  0.00  0.00    +0.000 OA
ATOM     28  O   UNL     1       0.709   2.006  -1.384  0.00  0.00    +0.000 OA
ENDBRANCH  24  25
ENDBRANCH   5  24
TORSDOF 8
