REMARK  Name = ZINC000101178654
REMARK  11 active torsions:
REMARK  status: ('A' for Active; 'I' for Inactive)
REMARK    1  A    between atoms: O_2  and  C_3
REMARK    2  A    between atoms: C_3  and  C_36
REMARK    3  A    between atoms: N_4  and  C_5
REMARK    4  A    between atoms: C_7  and  O_9
REMARK    5  A    between atoms: C_11  and  O_13
REMARK    6  A    between atoms: C_15  and  C_17
REMARK    7  A    between atoms: C_17  and  O_20
REMARK    8  A    between atoms: C_23  and  O_25
REMARK    9  A    between atoms: O_25  and  C_26
REMARK   10  A    between atoms: C_26  and  C_28
REMARK   11  A    between atoms: C_26  and  C_32
REMARK                            x       y       z     vdW  Elec       q    Type
REMARK                         _______ _______ _______ _____ _____    ______ ____
ROOT
ATOM      1  C   UNL     1      -0.960   0.134   0.077  0.00  0.00    +0.000 C 
ATOM      2  C   UNL     1      -1.681  -1.227   0.231  0.00  0.00    +0.000 C 
ATOM      3  C   UNL     1      -1.492  -2.092  -1.036  0.00  0.00    +0.000 C 
ATOM      4  C   UNL     1      -0.013  -2.093  -1.502  0.00  0.00    +0.000 C 
ATOM      5  O   UNL     1       0.434  -0.761  -1.693  0.00  0.00    +0.000 OA
ATOM      6  C   UNL     1       0.475  -0.055  -0.465  0.00  0.00    +0.000 C 
ENDROOT
BRANCH   1   8
ATOM      7  C   UNL     1      -1.929   1.448   1.899  0.00  0.00    +0.000 C 
ATOM      8  N   UNL     1      -0.915   0.843   1.358  0.00  0.00    +0.000 NA
ATOM      9  C   UNL     1      -1.760   2.122   3.222  0.00  0.00    +0.000 C 
BRANCH   7  11
ATOM     10  H   UNL     1      -3.974   1.906   1.694  0.00  0.00    +0.000 HD
ATOM     11  O   UNL     1      -3.174   1.451   1.271  0.00  0.00    +0.000 OA
ENDBRANCH   7  11
ENDBRANCH   1   8
BRANCH   2  12
ATOM     12  O   UNL     1      -1.277  -1.903   1.399  0.00  0.00    +0.000 OA
ATOM     13  H   UNL     1      -0.311  -2.107   1.325  0.00  0.00    +0.000 HD
ENDBRANCH   2  12
BRANCH   3  14
ATOM     14  O   UNL     1      -1.983  -3.395  -0.832  0.00  0.00    +0.000 OA
ATOM     15  H   UNL     1      -1.358  -3.864  -0.220  0.00  0.00    +0.000 HD
ENDBRANCH   3  14
BRANCH   4  16
ATOM     16  C   UNL     1       0.135  -2.851  -2.829  0.00  0.00    +0.000 C 
BRANCH  16  17
ATOM     17  O   UNL     1       1.482  -2.906  -3.213  0.00  0.00    +0.000 OA
ATOM     18  H   UNL     1       1.692  -2.039  -3.649  0.00  0.00    +0.000 HD
ENDBRANCH  16  17
ENDBRANCH   4  16
BRANCH   6  19
ATOM     19  O   UNL     1       1.029   1.225  -0.730  0.00  0.00    +0.000 OA
BRANCH  19  20
ATOM     20  C   UNL     1       1.983   1.618   0.244  0.00  0.00    +0.000 C 
ATOM     21  C   UNL     1       3.377   1.131  -0.166  0.00  0.00    +0.000 C 
ATOM     22  C   UNL     1       1.967   3.142   0.347  0.00  0.00    +0.000 C 
ENDBRANCH  19  20
ENDBRANCH   6  19
TORSDOF 8
