REMARK  Name = ZINC000082114392
REMARK  7 active torsions:
REMARK  status: ('A' for Active; 'I' for Inactive)
REMARK    1  A    between atoms: C_1  and  O_2
REMARK    2  A    between atoms: O_2  and  C_3
REMARK    3  A    between atoms: C_5  and  C_6
REMARK    4  A    between atoms: C_6  and  O_7
REMARK    5  A    between atoms: C_8  and  O_9
REMARK    6  A    between atoms: C_10  and  O_11
REMARK    7  A    between atoms: C_12  and  N_13
REMARK                            x       y       z     vdW  Elec       q    Type
REMARK                         _______ _______ _______ _____ _____    ______ ____
ROOT
ATOM      1  C   UNL     1      -1.530   0.449  -0.786  0.00  0.00    +0.000 C 
ATOM      2  O   UNL     1      -1.365   0.817   0.582  0.00  0.00    +0.000 OA
ATOM      3  C   UNL     1      -0.848  -0.258   1.346  0.00  0.00    +0.000 C 
ATOM      4  C   UNL     1       0.643  -0.513   0.984  0.00  0.00    +0.000 C 
ATOM      5  C   UNL     1       0.931  -0.061  -0.464  0.00  0.00    +0.000 C 
ATOM      6  C   UNL     1      -0.295  -0.315  -1.371  0.00  0.00    +0.000 C 
ENDROOT
BRANCH   6   7
ATOM      7  N   UNL     1      -0.562  -1.754  -1.492  0.00  0.00    +0.000 NA
ATOM      8  H   UNL     1       0.293  -2.227  -1.865  0.00  0.00    +0.000 HD
ATOM      9  H   UNL     1      -1.290  -1.893  -2.230  0.00  0.00    +0.000 HD
ENDBRANCH   6   7
BRANCH   1  11
ATOM     10  C   UNL     1      -3.852   0.527  -0.792  0.00  0.00    +0.000 C 
ATOM     11  O   UNL     1      -2.722  -0.302  -0.956  0.00  0.00    +0.000 OA
ENDBRANCH   1  11
BRANCH   4  12
ATOM     12  O   UNL     1       0.938  -1.880   1.127  0.00  0.00    +0.000 OA
ATOM     13  H   UNL     1       1.041  -2.052   2.099  0.00  0.00    +0.000 HD
ENDBRANCH   4  12
BRANCH   5  14
ATOM     14  O   UNL     1       2.078  -0.706  -0.960  0.00  0.00    +0.000 OA
ATOM     15  H   UNL     1       2.352  -0.214  -1.778  0.00  0.00    +0.000 HD
ENDBRANCH   5  14
BRANCH   3  16
ATOM     16  C   UNL     1      -1.026   0.055   2.839  0.00  0.00    +0.000 C 
BRANCH  16  17
ATOM     17  O   UNL     1      -0.371   1.245   3.191  0.00  0.00    +0.000 OA
ATOM     18  H   UNL     1      -0.965   1.991   2.917  0.00  0.00    +0.000 HD
ENDBRANCH  16  17
ENDBRANCH   3  16
TORSDOF 6
