REMARK  Name = ZINC000013545464
REMARK  9 active torsions:
REMARK  status: ('A' for Active; 'I' for Inactive)
REMARK    1  A    between atoms: O_2  and  C_3
REMARK    2  A    between atoms: C_3  and  C_37
REMARK    3  A    between atoms: N_4  and  C_5
REMARK    4  A    between atoms: C_7  and  O_9
REMARK    5  A    between atoms: O_9  and  C_10
REMARK    6  A    between atoms: C_22  and  C_24
REMARK    7  A    between atoms: C_24  and  O_27
REMARK    8  A    between atoms: C_29  and  O_31
REMARK    9  A    between atoms: C_33  and  O_35
REMARK                            x       y       z     vdW  Elec       q    Type
REMARK                         _______ _______ _______ _____ _____    ______ ____
ROOT
ATOM      1  C   UNL     1       1.569  -0.949   0.151  0.00  0.00    +0.000 C 
ATOM      2  C   UNL     1       1.418   0.114  -0.967  0.00  0.00    +0.000 C 
ATOM      3  O   UNL     1       2.484  -0.020  -1.891  0.00  0.00    +0.000 OA
ATOM      4  C   UNL     1       3.726   0.307  -1.286  0.00  0.00    +0.000 C 
ATOM      5  C   UNL     1       4.054  -0.706  -0.158  0.00  0.00    +0.000 C 
ATOM      6  C   UNL     1       2.913  -0.745   0.877  0.00  0.00    +0.000 C 
ENDROOT
BRANCH   1   8
ATOM      7  C   UNL     1      -0.623  -1.567   1.058  0.00  0.00    +0.000 C 
ATOM      8  N   UNL     1       0.474  -0.872   1.121  0.00  0.00    +0.000 NA
ATOM      9  C   UNL     1      -1.679  -1.374   2.097  0.00  0.00    +0.000 C 
BRANCH   7  11
ATOM     10  H   UNL     1      -1.696  -3.000  -0.048  0.00  0.00    +0.000 HD
ATOM     11  O   UNL     1      -0.835  -2.471   0.018  0.00  0.00    +0.000 OA
ENDBRANCH   7  11
ENDBRANCH   1   8
BRANCH   5  12
ATOM     12  O   UNL     1       5.284  -0.422   0.465  0.00  0.00    +0.000 OA
ATOM     13  H   UNL     1       5.267   0.526   0.759  0.00  0.00    +0.000 HD
ENDBRANCH   5  12
BRANCH   6  14
ATOM     14  O   UNL     1       2.893   0.455   1.613  0.00  0.00    +0.000 OA
ATOM     15  H   UNL     1       2.482   0.249   2.494  0.00  0.00    +0.000 HD
ENDBRANCH   6  14
BRANCH   2  16
ATOM     16  O   UNL     1       0.199  -0.091  -1.685  0.00  0.00    +0.000 OA
BRANCH  16  17
ATOM     17  C   UNL     1      -1.058   0.466  -1.387  0.00  0.00    +0.000 A 
ATOM     18  C   UNL     1      -1.275   1.364  -0.320  0.00  0.00    +0.000 A 
ATOM     19  C   UNL     1      -2.556   1.868  -0.074  0.00  0.00    +0.000 A 
ATOM     20  C   UNL     1      -3.628   1.490  -0.885  0.00  0.00    +0.000 A 
ATOM     21  C   UNL     1      -3.421   0.605  -1.946  0.00  0.00    +0.000 A 
ATOM     22  C   UNL     1      -2.143   0.098  -2.195  0.00  0.00    +0.000 A 
ENDBRANCH  16  17
ENDBRANCH   2  16
BRANCH   4  23
ATOM     23  C   UNL     1       4.813   0.285  -2.366  0.00  0.00    +0.000 C 
BRANCH  23  24
ATOM     24  O   UNL     1       4.502   1.216  -3.367  0.00  0.00    +0.000 OA
ATOM     25  H   UNL     1       5.230   1.151  -4.038  0.00  0.00    +0.000 HD
ENDBRANCH  23  24
ENDBRANCH   4  23
TORSDOF 8
