REMARK  Name = 52948856
REMARK  16 active torsions:
REMARK  status: ('A' for Active; 'I' for Inactive)
REMARK    1  A    between atoms: C_1  and  O_2
REMARK    2  A    between atoms: O_2  and  C_3
REMARK    3  A    between atoms: C_3  and  C_4
REMARK    4  A    between atoms: C_6  and  O_7
REMARK    5  A    between atoms: O_7  and  C_8
REMARK    6  A    between atoms: C_8  and  C_9
REMARK    7  A    between atoms: C_9  and  C_10
REMARK    8  A    between atoms: C_16  and  N_17
REMARK    9  A    between atoms: N_17  and  C_18
REMARK   10  A    between atoms: C_18  and  C_19
REMARK   11  A    between atoms: C_19  and  C_20
REMARK   12  A    between atoms: C_20  and  N_21
REMARK   13  A    between atoms: C_22  and  O_23
REMARK   14  A    between atoms: O_23  and  C_24
REMARK   15  A    between atoms: C_24  and  C_25
REMARK   16  A    between atoms: C_35  and  O_36
REMARK                            x       y       z     vdW  Elec       q    Type
REMARK                         _______ _______ _______ _____ _____    ______ ____
ROOT
ATOM      1  C   UNL     1      -0.518  -2.633   1.249  0.00  0.00    +0.000 C 
ATOM      2  O   UNL     1       0.268  -2.971   0.120  0.00  0.00    +0.000 OA
ATOM      3  C   UNL     1       1.117  -1.898  -0.253  0.00  0.00    +0.000 C 
ATOM      4  C   UNL     1       0.277  -0.672  -0.709  0.00  0.00    +0.000 C 
ATOM      5  C   UNL     1      -0.712  -0.256   0.419  0.00  0.00    +0.000 C 
ATOM      6  C   UNL     1      -1.499  -1.497   0.882  0.00  0.00    +0.000 C 
ENDROOT
BRANCH   4   7
ATOM      7  N   UNL     1       1.158   0.449  -1.127  0.00  0.00    +0.000 N 
ATOM      8  H   UNL     1       1.535   0.953  -0.292  0.00  0.00    +0.000 HD
ATOM      9  H   UNL     1       1.980   0.078  -1.657  0.00  0.00    +0.000 HD
BRANCH   7  10
ATOM     10  C   UNL     1       0.467   1.393  -2.022  0.00  0.00    +0.000 C 
BRANCH  10  11
ATOM     11  C   UNL     1       1.376   2.578  -2.371  0.00  0.00    +0.000 C 
BRANCH  11  12
ATOM     12  C   UNL     1       0.696   3.527  -3.361  0.00  0.00    +0.000 C 
BRANCH  12  13
ATOM     13  N   UNL     1       1.586   4.635  -3.688  0.00  0.00    +0.000 NA
ATOM     14  H   UNL     1       1.671   5.251  -2.847  0.00  0.00    +0.000 HD
ATOM     15  H   UNL     1       1.123   5.208  -4.429  0.00  0.00    +0.000 HD
ENDBRANCH  12  13
ENDBRANCH  11  12
ENDBRANCH  10  11
ENDBRANCH   7  10
ENDBRANCH   4   7
BRANCH   6  16
ATOM     16  O   UNL     1      -2.303  -1.179   1.989  0.00  0.00    +0.000 OA
ATOM     17  H   UNL     1      -3.127  -0.758   1.635  0.00  0.00    +0.000 HD
ENDBRANCH   6  16
BRANCH   1  18
ATOM     18  C   UNL     1      -1.281  -3.883   1.708  0.00  0.00    +0.000 C 
BRANCH  18  20
ATOM     19  C   UNL     1      -1.006  -5.979   2.624  0.00  0.00    +0.000 C 
ATOM     20  O   UNL     1      -0.370  -4.944   1.908  0.00  0.00    +0.000 OA
ENDBRANCH  18  20
ENDBRANCH   1  18
BRANCH   3  21
ATOM     21  O   UNL     1       1.886  -2.335  -1.359  0.00  0.00    +0.000 OA
BRANCH  21  22
ATOM     22  C   UNL     1       3.237  -2.549  -1.008  0.00  0.00    +0.000 C 
BRANCH  22  23
ATOM     23  C   UNL     1       4.043  -2.828  -2.275  0.00  0.00    +0.000 C 
BRANCH  23  24
ATOM     24  C   UNL     1       4.005  -1.639  -3.201  0.00  0.00    +0.000 A 
ATOM     25  C   UNL     1       2.954  -1.490  -4.124  0.00  0.00    +0.000 A 
ATOM     26  C   UNL     1       2.880  -0.350  -4.930  0.00  0.00    +0.000 A 
ATOM     27  C   UNL     1       3.849   0.649  -4.820  0.00  0.00    +0.000 A 
ATOM     28  C   UNL     1       4.893   0.512  -3.902  0.00  0.00    +0.000 A 
ATOM     29  C   UNL     1       4.970  -0.625  -3.090  0.00  0.00    +0.000 A 
ENDBRANCH  23  24
ENDBRANCH  22  23
ENDBRANCH  21  22
ENDBRANCH   3  21
BRANCH   5  30
ATOM     30  O   UNL     1       0.001   0.284   1.529  0.00  0.00    +0.000 OA
BRANCH  30  31
ATOM     31  C   UNL     1      -0.312   1.647   1.752  0.00  0.00    +0.000 C 
BRANCH  31  32
ATOM     32  C   UNL     1      -1.623   1.783   2.479  0.00  0.00    +0.000 A 
ATOM     33  C   UNL     1      -2.747   2.314   1.826  0.00  0.00    +0.000 A 
ATOM     34  C   UNL     1      -3.982   2.376   2.476  0.00  0.00    +0.000 A 
ATOM     35  C   UNL     1      -4.111   1.902   3.789  0.00  0.00    +0.000 A 
ATOM     36  C   UNL     1      -5.351   1.944   4.447  0.00  0.00    +0.000 A 
ATOM     37  C   UNL     1      -5.469   1.456   5.753  0.00  0.00    +0.000 A 
ATOM     38  C   UNL     1      -4.355   0.923   6.407  0.00  0.00    +0.000 A 
ATOM     39  C   UNL     1      -3.116   0.876   5.764  0.00  0.00    +0.000 A 
ATOM     40  C   UNL     1      -2.982   1.366   4.455  0.00  0.00    +0.000 A 
ATOM     41  C   UNL     1      -1.745   1.314   3.796  0.00  0.00    +0.000 A 
ENDBRANCH  31  32
ENDBRANCH  30  31
ENDBRANCH   5  30
TORSDOF 15
