REMARK  Name = ZINC000013545464
REMARK  9 active torsions:
REMARK  status: ('A' for Active; 'I' for Inactive)
REMARK    1  A    between atoms: O_2  and  C_3
REMARK    2  A    between atoms: C_3  and  C_37
REMARK    3  A    between atoms: N_4  and  C_5
REMARK    4  A    between atoms: C_7  and  O_9
REMARK    5  A    between atoms: O_9  and  C_10
REMARK    6  A    between atoms: C_22  and  C_24
REMARK    7  A    between atoms: C_24  and  O_27
REMARK    8  A    between atoms: C_29  and  O_31
REMARK    9  A    between atoms: C_33  and  O_35
REMARK                            x       y       z     vdW  Elec       q    Type
REMARK                         _______ _______ _______ _____ _____    ______ ____
ROOT
ATOM      1  C   UNL     1       1.317   0.810  -0.990  0.00  0.00    +0.000 C 
ATOM      2  C   UNL     1       1.105  -0.670  -1.395  0.00  0.00    +0.000 C 
ATOM      3  O   UNL     1       2.236  -1.128  -2.115  0.00  0.00    +0.000 OA
ATOM      4  C   UNL     1       2.360  -0.448  -3.355  0.00  0.00    +0.000 C 
ATOM      5  C   UNL     1       2.638   1.058  -3.119  0.00  0.00    +0.000 C 
ATOM      6  C   UNL     1       1.519   1.665  -2.252  0.00  0.00    +0.000 C 
ENDROOT
BRANCH   1   8
ATOM      7  C   UNL     1       0.084   1.332   1.063  0.00  0.00    +0.000 C 
ATOM      8  N   UNL     1       0.175   1.330  -0.234  0.00  0.00    +0.000 NA
ATOM      9  C   UNL     1      -1.150   1.867   1.715  0.00  0.00    +0.000 C 
BRANCH   7  11
ATOM     10  H   UNL     1       1.039   0.798   2.861  0.00  0.00    +0.000 HD
ATOM     11  O   UNL     1       1.113   0.817   1.851  0.00  0.00    +0.000 OA
ENDBRANCH   7  11
ENDBRANCH   1   8
BRANCH   5  12
ATOM     12  O   UNL     1       2.705   1.746  -4.344  0.00  0.00    +0.000 OA
ATOM     13  H   UNL     1       3.657   1.754  -4.623  0.00  0.00    +0.000 HD
ENDBRANCH   5  12
BRANCH   6  14
ATOM     14  O   UNL     1       0.316   1.732  -2.979  0.00  0.00    +0.000 OA
ATOM     15  H   UNL     1       0.345   2.567  -3.515  0.00  0.00    +0.000 HD
ENDBRANCH   6  14
BRANCH   2  16
ATOM     16  O   UNL     1       0.978  -1.490  -0.230  0.00  0.00    +0.000 OA
BRANCH  16  17
ATOM     17  C   UNL     1      -0.212  -1.809   0.450  0.00  0.00    +0.000 A 
ATOM     18  C   UNL     1      -0.111  -2.590   1.609  0.00  0.00    +0.000 A 
ATOM     19  C   UNL     1      -1.253  -2.933   2.339  0.00  0.00    +0.000 A 
ATOM     20  C   UNL     1      -2.510  -2.498   1.915  0.00  0.00    +0.000 A 
ATOM     21  C   UNL     1      -2.627  -1.721   0.760  0.00  0.00    +0.000 A 
ATOM     22  C   UNL     1      -1.487  -1.377   0.026  0.00  0.00    +0.000 A 
ENDBRANCH  16  17
ENDBRANCH   2  16
BRANCH   4  23
ATOM     23  C   UNL     1       3.482  -1.114  -4.168  0.00  0.00    +0.000 C 
BRANCH  23  24
ATOM     24  O   UNL     1       4.723  -0.984  -3.526  0.00  0.00    +0.000 OA
ATOM     25  H   UNL     1       4.745  -1.666  -2.805  0.00  0.00    +0.000 HD
ENDBRANCH  23  24
ENDBRANCH   4  23
TORSDOF 8
