REMARK  Name = ZINC000101135603
REMARK  11 active torsions:
REMARK  status: ('A' for Active; 'I' for Inactive)
REMARK    1  A    between atoms: C_1  and  C_2
REMARK    2  A    between atoms: N_4  and  C_5
REMARK    3  A    between atoms: C_6  and  O_7
REMARK    4  A    between atoms: O_7  and  C_8
REMARK    5  A    between atoms: C_8  and  C_9
REMARK    6  A    between atoms: C_15  and  O_16
REMARK    7  A    between atoms: C_17  and  C_18
REMARK    8  A    between atoms: C_18  and  O_19
REMARK    9  A    between atoms: C_21  and  O_22
REMARK   10  A    between atoms: O_22  and  C_23
REMARK   11  A    between atoms: C_23  and  C_24
REMARK                            x       y       z     vdW  Elec       q    Type
REMARK                         _______ _______ _______ _____ _____    ______ ____
ROOT
ATOM      1  C   UNL     1      -1.530  -1.369   0.366  0.00  0.00    +0.000 C 
ATOM      2  C   UNL     1      -2.176  -0.219  -0.434  0.00  0.00    +0.000 C 
ATOM      3  C   UNL     1      -2.464   0.970   0.504  0.00  0.00    +0.000 C 
ATOM      4  C   UNL     1      -1.200   1.322   1.322  0.00  0.00    +0.000 C 
ATOM      5  O   UNL     1      -0.760   0.190   2.052  0.00  0.00    +0.000 OA
ATOM      6  C   UNL     1      -0.329  -0.838   1.177  0.00  0.00    +0.000 C 
ENDROOT
BRANCH   1  10
ATOM      7  C   UNL     1      -1.563  -4.362  -2.133  0.00  0.00    +0.000 C 
ATOM      8  C   UNL     1      -2.038  -3.359  -1.133  0.00  0.00    +0.000 C 
ATOM      9  O   UNL     1      -3.265  -3.295  -0.852  0.00  0.00    +0.000 OA
ATOM     10  N   UNL     1      -1.107  -2.444  -0.539  0.00  0.00    +0.000 N 
ATOM     11  H   UNL     1      -0.093  -2.548  -0.774  0.00  0.00    +0.000 HD
ENDBRANCH   1  10
BRANCH   3  12
ATOM     12  O   UNL     1      -2.874   2.085  -0.246  0.00  0.00    +0.000 OA
ATOM     13  H   UNL     1      -3.802   1.900  -0.548  0.00  0.00    +0.000 HD
ENDBRANCH   3  12
BRANCH   2  14
ATOM     14  O   UNL     1      -1.285   0.198  -1.460  0.00  0.00    +0.000 OA
BRANCH  14  15
ATOM     15  C   UNL     1      -1.857   0.018  -2.738  0.00  0.00    +0.000 C 
BRANCH  15  16
ATOM     16  C   UNL     1      -0.824   0.343  -3.775  0.00  0.00    +0.000 A 
ATOM     17  C   UNL     1      -0.724   1.643  -4.297  0.00  0.00    +0.000 A 
ATOM     18  C   UNL     1       0.269   1.951  -5.233  0.00  0.00    +0.000 A 
ATOM     19  C   UNL     1       1.175   0.968  -5.643  0.00  0.00    +0.000 A 
ATOM     20  C   UNL     1       1.093  -0.323  -5.113  0.00  0.00    +0.000 A 
ATOM     21  C   UNL     1       0.102  -0.635  -4.177  0.00  0.00    +0.000 A 
ENDBRANCH  15  16
ENDBRANCH  14  15
ENDBRANCH   2  14
BRANCH   4  22
ATOM     22  C   UNL     1      -1.496   2.454   2.317  0.00  0.00    +0.000 C 
BRANCH  22  23
ATOM     23  O   UNL     1      -0.357   2.748   3.080  0.00  0.00    +0.000 OA
ATOM     24  H   UNL     1       0.261   3.251   2.487  0.00  0.00    +0.000 HD
ENDBRANCH  22  23
ENDBRANCH   4  22
BRANCH   6  25
ATOM     25  O   UNL     1       0.188  -1.905   1.956  0.00  0.00    +0.000 OA
BRANCH  25  26
ATOM     26  C   UNL     1       1.577  -1.756   2.188  0.00  0.00    +0.000 C 
BRANCH  26  27
ATOM     27  C   UNL     1       1.861  -0.638   3.160  0.00  0.00    +0.000 A 
ATOM     28  C   UNL     1       2.469   0.550   2.722  0.00  0.00    +0.000 A 
ATOM     29  C   UNL     1       2.700   1.595   3.621  0.00  0.00    +0.000 A 
ATOM     30  C   UNL     1       2.319   1.464   4.960  0.00  0.00    +0.000 A 
ATOM     31  C   UNL     1       1.706   0.288   5.401  0.00  0.00    +0.000 A 
ATOM     32  C   UNL     1       1.476  -0.760   4.505  0.00  0.00    +0.000 A 
ENDBRANCH  26  27
ENDBRANCH  25  26
ENDBRANCH   6  25
TORSDOF 10
