REMARK  Name = ZINC000015205956
REMARK  9 active torsions:
REMARK  status: ('A' for Active; 'I' for Inactive)
REMARK    1  A    between atoms: O_2  and  C_3
REMARK    2  A    between atoms: C_3  and  C_37
REMARK    3  A    between atoms: N_4  and  C_5
REMARK    4  A    between atoms: C_7  and  O_9
REMARK    5  A    between atoms: C_11  and  O_13
REMARK    6  A    between atoms: C_15  and  C_17
REMARK    7  A    between atoms: C_17  and  O_20
REMARK    8  A    between atoms: C_23  and  O_25
REMARK    9  A    between atoms: O_25  and  C_26
REMARK                            x       y       z     vdW  Elec       q    Type
REMARK                         _______ _______ _______ _____ _____    ______ ____
ROOT
ATOM      1  C   UNL     1      -0.984   0.060   0.597  0.00  0.00    +0.000 C 
ATOM      2  C   UNL     1      -1.581   0.522  -0.747  0.00  0.00    +0.000 C 
ATOM      3  C   UNL     1      -1.630   2.061  -0.779  0.00  0.00    +0.000 C 
ATOM      4  C   UNL     1      -0.242   2.653  -0.419  0.00  0.00    +0.000 C 
ATOM      5  O   UNL     1       0.185   2.190   0.854  0.00  0.00    +0.000 OA
ATOM      6  C   UNL     1       0.360   0.781   0.873  0.00  0.00    +0.000 C 
ENDROOT
BRANCH   1   8
ATOM      7  C   UNL     1      -1.663  -2.301   0.926  0.00  0.00    +0.000 C 
ATOM      8  N   UNL     1      -0.789  -1.393   0.599  0.00  0.00    +0.000 NA
ATOM      9  C   UNL     1      -3.044  -1.960   1.405  0.00  0.00    +0.000 C 
BRANCH   7  11
ATOM     10  H   UNL     1      -0.376  -3.919   0.544  0.00  0.00    +0.000 HD
ATOM     11  O   UNL     1      -1.301  -3.643   0.852  0.00  0.00    +0.000 OA
ENDBRANCH   7  11
ENDBRANCH   1   8
BRANCH   2  12
ATOM     12  O   UNL     1      -0.802   0.026  -1.809  0.00  0.00    +0.000 OA
ATOM     13  H   UNL     1      -1.408  -0.090  -2.587  0.00  0.00    +0.000 HD
ENDBRANCH   2  12
BRANCH   3  14
ATOM     14  O   UNL     1      -2.095   2.523  -2.024  0.00  0.00    +0.000 OA
ATOM     15  H   UNL     1      -1.379   2.372  -2.694  0.00  0.00    +0.000 HD
ENDBRANCH   3  14
BRANCH   4  16
ATOM     16  C   UNL     1      -0.272   4.189  -0.396  0.00  0.00    +0.000 C 
BRANCH  16  17
ATOM     17  O   UNL     1      -1.109   4.660   0.627  0.00  0.00    +0.000 OA
ATOM     18  H   UNL     1      -2.007   4.796   0.226  0.00  0.00    +0.000 HD
ENDBRANCH  16  17
ENDBRANCH   4  16
BRANCH   6  19
ATOM     19  O   UNL     1       1.385   0.399  -0.056  0.00  0.00    +0.000 OA
BRANCH  19  20
ATOM     20  C   UNL     1       2.170  -0.766  -0.010  0.00  0.00    +0.000 A 
ATOM     21  C   UNL     1       2.977  -1.054  -1.118  0.00  0.00    +0.000 A 
ATOM     22  C   UNL     1       3.779  -2.199  -1.137  0.00  0.00    +0.000 A 
ATOM     23  C   UNL     1       3.784  -3.067  -0.044  0.00  0.00    +0.000 A 
ATOM     24  C   UNL     1       2.989  -2.790   1.071  0.00  0.00    +0.000 A 
ATOM     25  C   UNL     1       2.187  -1.644   1.095  0.00  0.00    +0.000 A 
ENDBRANCH  19  20
ENDBRANCH   6  19
TORSDOF 8
