REMARK  Name = ZINC000012364260
REMARK  6 active torsions:
REMARK  status: ('A' for Active; 'I' for Inactive)
REMARK    1  A    between atoms: O_2  and  C_3
REMARK    2  A    between atoms: C_3  and  C_38
REMARK    3  A    between atoms: N_4  and  C_5
REMARK    4  A    between atoms: C_7  and  O_9
REMARK    5  A    between atoms: C_18  and  C_20
REMARK    6  A    between atoms: C_34  and  O_36
REMARK                            x       y       z     vdW  Elec       q    Type
REMARK                         _______ _______ _______ _____ _____    ______ ____
ROOT
ATOM      1  C   UNL     1      -0.903   1.234  -2.371  0.00  0.00    +0.000 C 
ATOM      2  C   UNL     1      -0.297   2.650  -2.223  0.00  0.00    +0.000 C 
ATOM      3  O   UNL     1       0.818   2.656  -1.339  0.00  0.00    +0.000 OA
ATOM      4  C   UNL     1       0.439   2.221  -0.044  0.00  0.00    +0.000 C 
ATOM      5  C   UNL     1       1.632   2.281   0.898  0.00  0.00    +0.000 C 
ATOM      6  O   UNL     1       1.281   1.781   2.174  0.00  0.00    +0.000 OA
ATOM      7  C   UNL     1       0.789   0.444   2.105  0.00  0.00    +0.000 C 
ATOM      8  O   UNL     1      -0.332   0.319   1.233  0.00  0.00    +0.000 OA
ATOM      9  C   UNL     1      -0.021   0.762  -0.074  0.00  0.00    +0.000 C 
ATOM     10  C   UNL     1      -1.246   0.633  -0.991  0.00  0.00    +0.000 C 
ENDROOT
BRANCH   7  11
ATOM     11  C   UNL     1       1.877  -0.592   1.849  0.00  0.00    +0.000 A 
ATOM     12  C   UNL     1       1.550  -1.852   1.311  0.00  0.00    +0.000 A 
ATOM     13  C   UNL     1       2.538  -2.823   1.129  0.00  0.00    +0.000 A 
ATOM     14  C   UNL     1       3.857  -2.561   1.507  0.00  0.00    +0.000 A 
ATOM     15  C   UNL     1       4.187  -1.330   2.078  0.00  0.00    +0.000 A 
ATOM     16  C   UNL     1       3.202  -0.355   2.262  0.00  0.00    +0.000 A 
ENDBRANCH   7  11
BRANCH   1  18
ATOM     17  C   UNL     1      -2.569   0.355  -3.983  0.00  0.00    +0.000 C 
ATOM     18  N   UNL     1      -2.099   1.300  -3.220  0.00  0.00    +0.000 NA
ATOM     19  C   UNL     1      -1.883  -0.977  -4.132  0.00  0.00    +0.000 C 
BRANCH  17  21
ATOM     20  H   UNL     1      -4.142  -0.089  -5.316  0.00  0.00    +0.000 HD
ATOM     21  O   UNL     1      -3.736   0.605  -4.700  0.00  0.00    +0.000 OA
ENDBRANCH  17  21
ENDBRANCH   1  18
BRANCH   2  22
ATOM     22  O   UNL     1      -1.272   3.578  -1.815  0.00  0.00    +0.000 OA
ATOM     23  H   UNL     1      -0.841   4.471  -1.851  0.00  0.00    +0.000 HD
ENDBRANCH   2  22
BRANCH  10  24
ATOM     24  O   UNL     1      -2.353   1.300  -0.436  0.00  0.00    +0.000 OA
ATOM     25  H   UNL     1      -2.751   0.690   0.239  0.00  0.00    +0.000 HD
ENDBRANCH  10  24
TORSDOF 5
