REMARK  Name = ZINC000101135603
REMARK  12 active torsions:
REMARK  status: ('A' for Active; 'I' for Inactive)
REMARK    1  A    between atoms: O_2  and  C_3
REMARK    2  A    between atoms: C_3  and  C_53
REMARK    3  A    between atoms: N_4  and  C_5
REMARK    4  A    between atoms: C_7  and  O_9
REMARK    5  A    between atoms: O_9  and  C_10
REMARK    6  A    between atoms: C_10  and  C_13
REMARK    7  A    between atoms: C_24  and  O_26
REMARK    8  A    between atoms: C_28  and  C_30
REMARK    9  A    between atoms: C_30  and  O_33
REMARK   10  A    between atoms: C_36  and  O_38
REMARK   11  A    between atoms: O_38  and  C_39
REMARK   12  A    between atoms: C_39  and  C_42
REMARK                            x       y       z     vdW  Elec       q    Type
REMARK                         _______ _______ _______ _____ _____    ______ ____
ROOT
ATOM      1  C   UNL     1      -0.137  -0.176  -1.087  0.00  0.00    +0.000 C 
ATOM      2  C   UNL     1       0.043  -1.651  -0.683  0.00  0.00    +0.000 C 
ATOM      3  C   UNL     1       1.533  -1.931  -0.404  0.00  0.00    +0.000 C 
ATOM      4  C   UNL     1       2.091  -0.881   0.584  0.00  0.00    +0.000 C 
ATOM      5  O   UNL     1       1.911   0.423   0.060  0.00  0.00    +0.000 OA
ATOM      6  C   UNL     1       0.533   0.743  -0.043  0.00  0.00    +0.000 C 
ENDROOT
BRANCH   1   8
ATOM      7  C   UNL     1      -2.076   1.045  -1.959  0.00  0.00    +0.000 C 
ATOM      8  N   UNL     1      -1.567   0.125  -1.197  0.00  0.00    +0.000 NA
ATOM      9  C   UNL     1      -3.557   1.247  -1.973  0.00  0.00    +0.000 C 
BRANCH   7  11
ATOM     10  H   UNL     1      -1.649   2.518  -3.404  0.00  0.00    +0.000 HD
ATOM     11  O   UNL     1      -1.260   1.812  -2.791  0.00  0.00    +0.000 OA
ENDBRANCH   7  11
ENDBRANCH   1   8
BRANCH   3  12
ATOM     12  O   UNL     1       1.691  -3.222   0.128  0.00  0.00    +0.000 OA
ATOM     13  H   UNL     1       1.586  -3.857  -0.628  0.00  0.00    +0.000 HD
ENDBRANCH   3  12
BRANCH   2  14
ATOM     14  O   UNL     1      -0.720  -1.917   0.489  0.00  0.00    +0.000 OA
BRANCH  14  15
ATOM     15  C   UNL     1      -1.521  -3.075   0.348  0.00  0.00    +0.000 C 
BRANCH  15  16
ATOM     16  C   UNL     1      -2.831  -2.730  -0.307  0.00  0.00    +0.000 A 
ATOM     17  C   UNL     1      -3.802  -2.006   0.405  0.00  0.00    +0.000 A 
ATOM     18  C   UNL     1      -5.009  -1.655  -0.208  0.00  0.00    +0.000 A 
ATOM     19  C   UNL     1      -5.249  -2.015  -1.537  0.00  0.00    +0.000 A 
ATOM     20  C   UNL     1      -4.283  -2.724  -2.255  0.00  0.00    +0.000 A 
ATOM     21  C   UNL     1      -3.077  -3.081  -1.644  0.00  0.00    +0.000 A 
ENDBRANCH  15  16
ENDBRANCH  14  15
ENDBRANCH   2  14
BRANCH   4  22
ATOM     22  C   UNL     1       3.589  -1.101   0.823  0.00  0.00    +0.000 C 
BRANCH  22  23
ATOM     23  O   UNL     1       4.068  -0.141   1.723  0.00  0.00    +0.000 OA
ATOM     24  H   UNL     1       5.039  -0.318   1.827  0.00  0.00    +0.000 HD
ENDBRANCH  22  23
ENDBRANCH   4  22
BRANCH   6  25
ATOM     25  O   UNL     1       0.418   2.087  -0.481  0.00  0.00    +0.000 OA
BRANCH  25  26
ATOM     26  C   UNL     1       0.396   2.991   0.609  0.00  0.00    +0.000 C 
BRANCH  26  27
ATOM     27  C   UNL     1       1.754   3.118   1.252  0.00  0.00    +0.000 A 
ATOM     28  C   UNL     1       2.817   3.697   0.540  0.00  0.00    +0.000 A 
ATOM     29  C   UNL     1       4.087   3.784   1.120  0.00  0.00    +0.000 A 
ATOM     30  C   UNL     1       4.303   3.292   2.410  0.00  0.00    +0.000 A 
ATOM     31  C   UNL     1       3.250   2.710   3.122  0.00  0.00    +0.000 A 
ATOM     32  C   UNL     1       1.980   2.619   2.545  0.00  0.00    +0.000 A 
ENDBRANCH  26  27
ENDBRANCH  25  26
ENDBRANCH   6  25
TORSDOF 11
