REMARK  Name = ZINC000101135603
REMARK  12 active torsions:
REMARK  status: ('A' for Active; 'I' for Inactive)
REMARK    1  A    between atoms: O_2  and  C_3
REMARK    2  A    between atoms: C_3  and  C_53
REMARK    3  A    between atoms: N_4  and  C_5
REMARK    4  A    between atoms: C_7  and  O_9
REMARK    5  A    between atoms: O_9  and  C_10
REMARK    6  A    between atoms: C_10  and  C_13
REMARK    7  A    between atoms: C_24  and  O_26
REMARK    8  A    between atoms: C_28  and  C_30
REMARK    9  A    between atoms: C_30  and  O_33
REMARK   10  A    between atoms: C_36  and  O_38
REMARK   11  A    between atoms: O_38  and  C_39
REMARK   12  A    between atoms: C_39  and  C_42
REMARK                            x       y       z     vdW  Elec       q    Type
REMARK                         _______ _______ _______ _____ _____    ______ ____
ROOT
ATOM      1  C   UNL     1       1.329   0.263  -1.379  0.00  0.00    +0.000 C 
ATOM      2  C   UNL     1       0.813  -1.178  -1.571  0.00  0.00    +0.000 C 
ATOM      3  C   UNL     1       1.982  -2.164  -1.375  0.00  0.00    +0.000 C 
ATOM      4  C   UNL     1       2.716  -1.869  -0.040  0.00  0.00    +0.000 C 
ATOM      5  O   UNL     1       3.156  -0.520  -0.003  0.00  0.00    +0.000 OA
ATOM      6  C   UNL     1       2.056   0.372  -0.028  0.00  0.00    +0.000 C 
ENDROOT
BRANCH   1   8
ATOM      7  C   UNL     1      -0.362   1.628  -2.502  0.00  0.00    +0.000 C 
ATOM      8  N   UNL     1       0.223   1.222  -1.415  0.00  0.00    +0.000 NA
ATOM      9  C   UNL     1      -1.472   2.623  -2.408  0.00  0.00    +0.000 C 
BRANCH   7  11
ATOM     10  H   UNL     1      -0.374   1.495  -4.604  0.00  0.00    +0.000 HD
ATOM     11  O   UNL     1       0.063   1.172  -3.749  0.00  0.00    +0.000 OA
ENDBRANCH   7  11
ENDBRANCH   1   8
BRANCH   3  12
ATOM     12  O   UNL     1       1.496  -3.482  -1.379  0.00  0.00    +0.000 OA
ATOM     13  H   UNL     1       1.272  -3.701  -2.321  0.00  0.00    +0.000 HD
ENDBRANCH   3  12
BRANCH   2  14
ATOM     14  O   UNL     1      -0.192  -1.455  -0.606  0.00  0.00    +0.000 OA
BRANCH  14  15
ATOM     15  C   UNL     1      -1.461  -1.603  -1.205  0.00  0.00    +0.000 C 
BRANCH  15  16
ATOM     16  C   UNL     1      -2.504  -1.562  -0.127  0.00  0.00    +0.000 A 
ATOM     17  C   UNL     1      -2.848  -0.336   0.465  0.00  0.00    +0.000 A 
ATOM     18  C   UNL     1      -3.792  -0.291   1.495  0.00  0.00    +0.000 A 
ATOM     19  C   UNL     1      -4.390  -1.470   1.948  0.00  0.00    +0.000 A 
ATOM     20  C   UNL     1      -4.040  -2.696   1.375  0.00  0.00    +0.000 A 
ATOM     21  C   UNL     1      -3.097  -2.745   0.344  0.00  0.00    +0.000 A 
ENDBRANCH  15  16
ENDBRANCH  14  15
ENDBRANCH   2  14
BRANCH   4  22
ATOM     22  C   UNL     1       3.950  -2.771   0.133  0.00  0.00    +0.000 C 
BRANCH  22  23
ATOM     23  O   UNL     1       3.581  -4.115   0.294  0.00  0.00    +0.000 OA
ATOM     24  H   UNL     1       3.228  -4.204   1.217  0.00  0.00    +0.000 HD
ENDBRANCH  22  23
ENDBRANCH   4  22
BRANCH   6  25
ATOM     25  O   UNL     1       2.548   1.696   0.105  0.00  0.00    +0.000 OA
BRANCH  25  26
ATOM     26  C   UNL     1       2.321   2.207   1.405  0.00  0.00    +0.000 C 
BRANCH  26  27
ATOM     27  C   UNL     1       0.894   2.674   1.550  0.00  0.00    +0.000 A 
ATOM     28  C   UNL     1       0.005   2.002   2.405  0.00  0.00    +0.000 A 
ATOM     29  C   UNL     1      -1.331   2.405   2.490  0.00  0.00    +0.000 A 
ATOM     30  C   UNL     1      -1.789   3.477   1.719  0.00  0.00    +0.000 A 
ATOM     31  C   UNL     1      -0.910   4.151   0.867  0.00  0.00    +0.000 A 
ATOM     32  C   UNL     1       0.427   3.751   0.780  0.00  0.00    +0.000 A 
ENDBRANCH  26  27
ENDBRANCH  25  26
ENDBRANCH   6  25
TORSDOF 11
