REMARK  Name = ZINC000012364260
REMARK  5 active torsions:
REMARK  status: ('A' for Active; 'I' for Inactive)
REMARK    1  A    between atoms: C_1  and  C_2
REMARK    2  A    between atoms: N_4  and  C_5
REMARK    3  A    between atoms: C_6  and  O_7
REMARK    4  A    between atoms: C_12  and  C_13
REMARK    5  A    between atoms: C_21  and  O_22
REMARK                            x       y       z     vdW  Elec       q    Type
REMARK                         _______ _______ _______ _____ _____    ______ ____
ROOT
ATOM      1  C   UNL     1      -2.340  -1.112  -0.795  0.00  0.00    +0.000 C 
ATOM      2  C   UNL     1      -1.926  -2.211  -1.807  0.00  0.00    +0.000 C 
ATOM      3  O   UNL     1      -0.545  -2.530  -1.690  0.00  0.00    +0.000 OA
ATOM      4  C   UNL     1       0.267  -1.396  -1.957  0.00  0.00    +0.000 C 
ATOM      5  C   UNL     1       1.756  -1.782  -1.904  0.00  0.00    +0.000 C 
ATOM      6  O   UNL     1       2.506  -0.894  -1.094  0.00  0.00    +0.000 OA
ATOM      7  C   UNL     1       2.210   0.453  -1.440  0.00  0.00    +0.000 C 
ATOM      8  O   UNL     1       0.862   0.828  -1.155  0.00  0.00    +0.000 OA
ATOM      9  C   UNL     1       0.025  -0.289  -0.915  0.00  0.00    +0.000 C 
ATOM     10  C   UNL     1      -1.447   0.140  -0.946  0.00  0.00    +0.000 C 
ENDROOT
BRANCH   7  11
ATOM     11  C   UNL     1       3.132   1.356  -0.666  0.00  0.00    +0.000 A 
ATOM     12  C   UNL     1       3.051   1.408   0.736  0.00  0.00    +0.000 A 
ATOM     13  C   UNL     1       3.909   2.239   1.463  0.00  0.00    +0.000 A 
ATOM     14  C   UNL     1       4.856   3.022   0.797  0.00  0.00    +0.000 A 
ATOM     15  C   UNL     1       4.947   2.974  -0.596  0.00  0.00    +0.000 A 
ATOM     16  C   UNL     1       4.091   2.144  -1.328  0.00  0.00    +0.000 A 
ENDBRANCH   7  11
BRANCH   1  20
ATOM     17  C   UNL     1      -5.916   0.305  -0.142  0.00  0.00    +0.000 C 
ATOM     18  C   UNL     1      -4.479  -0.043   0.071  0.00  0.00    +0.000 C 
ATOM     19  O   UNL     1      -3.916   0.274   1.154  0.00  0.00    +0.000 OA
ATOM     20  N   UNL     1      -3.761  -0.768  -0.937  0.00  0.00    +0.000 N 
ATOM     21  H   UNL     1      -4.292  -1.094  -1.776  0.00  0.00    +0.000 HD
ENDBRANCH   1  20
BRANCH   2  22
ATOM     22  O   UNL     1      -2.248  -1.839  -3.124  0.00  0.00    +0.000 OA
ATOM     23  H   UNL     1      -2.063  -2.631  -3.692  0.00  0.00    +0.000 HD
ENDBRANCH   2  22
BRANCH  10  24
ATOM     24  O   UNL     1      -1.724   0.810  -2.151  0.00  0.00    +0.000 OA
ATOM     25  H   UNL     1      -2.518   1.383  -1.989  0.00  0.00    +0.000 HD
ENDBRANCH  10  24
TORSDOF 4
