REMARK  Name = ZINC000032106887
REMARK  5 active torsions:
REMARK  status: ('A' for Active; 'I' for Inactive)
REMARK    1  A    between atoms: O_2  and  C_3
REMARK    2  A    between atoms: C_8  and  C_10
REMARK    3  A    between atoms: C_28  and  O_30
REMARK    4  A    between atoms: O_30  and  C_31
REMARK    5  A    between atoms: C_35  and  N_37
REMARK                            x       y       z     vdW  Elec       q    Type
REMARK                         _______ _______ _______ _____ _____    ______ ____
ROOT
ATOM      1  C   UNL     1      -1.277   1.764  -0.022  0.00  0.00    +0.000 C 
ATOM      2  C   UNL     1      -0.108   0.953   0.553  0.00  0.00    +0.000 C 
ATOM      3  O   UNL     1       1.045   1.747   0.705  0.00  0.00    +0.000 OA
ATOM      4  C   UNL     1       2.104   1.009   1.318  0.00  0.00    +0.000 C 
ATOM      5  O   UNL     1       1.898  -0.405   1.381  0.00  0.00    +0.000 OA
ATOM      6  C   UNL     1       1.459  -0.934   0.142  0.00  0.00    +0.000 C 
ATOM      7  C   UNL     1       0.212  -0.208  -0.390  0.00  0.00    +0.000 C 
ATOM      8  O   UNL     1      -0.897  -1.089  -0.473  0.00  0.00    +0.000 OA
ATOM      9  C   UNL     1      -2.013  -0.445  -1.084  0.00  0.00    +0.000 C 
ATOM     10  C   UNL     1      -2.456   0.805  -0.280  0.00  0.00    +0.000 C 
ENDROOT
BRANCH   4  11
ATOM     11  C   UNL     1       3.430   1.324   0.662  0.00  0.00    +0.000 A 
ATOM     12  C   UNL     1       4.620   1.183   1.398  0.00  0.00    +0.000 A 
ATOM     13  C   UNL     1       5.857   1.434   0.798  0.00  0.00    +0.000 A 
ATOM     14  C   UNL     1       5.920   1.817  -0.544  0.00  0.00    +0.000 A 
ATOM     15  C   UNL     1       4.746   1.944  -1.290  0.00  0.00    +0.000 A 
ATOM     16  C   UNL     1       3.506   1.694  -0.695  0.00  0.00    +0.000 A 
ENDBRANCH   4  11
BRANCH  10  17
ATOM     17  N   UNL     1      -3.526   1.504  -0.988  0.00  0.00    +0.000 NA
ATOM     18  N   UNL     1      -4.643   1.635  -0.486  0.00  0.00    +0.000 NA
ATOM     19  N   UNL     1      -5.758   1.766   0.016  0.00  0.00    +0.000 NA
ENDBRANCH  10  17
BRANCH   1  21
ATOM     20  H   UNL     1      -0.390   3.216  -0.960  0.00  0.00    +0.000 HD
ATOM     21  O   UNL     1      -0.900   2.404  -1.217  0.00  0.00    +0.000 OA
ENDBRANCH   1  21
BRANCH   9  22
ATOM     22  O   UNL     1      -1.734  -0.090  -2.430  0.00  0.00    +0.000 OA
ATOM     23  C   UNL     1      -1.681  -1.247  -3.236  0.00  0.00    +0.000 C 
ENDBRANCH   9  22
TORSDOF 4
