REMARK  Name = ZINC000106382965
REMARK  10 active torsions:
REMARK  status: ('A' for Active; 'I' for Inactive)
REMARK    1  A    between atoms: O_2  and  C_3
REMARK    2  A    between atoms: C_3  and  C_39
REMARK    3  A    between atoms: N_4  and  C_5
REMARK    4  A    between atoms: C_7  and  O_9
REMARK    5  A    between atoms: O_9  and  C_10
REMARK    6  A    between atoms: C_15  and  C_16
REMARK    7  A    between atoms: C_24  and  C_26
REMARK    8  A    between atoms: C_26  and  O_29
REMARK    9  A    between atoms: C_31  and  O_33
REMARK   10  A    between atoms: C_35  and  O_37
REMARK                            x       y       z     vdW  Elec       q    Type
REMARK                         _______ _______ _______ _____ _____    ______ ____
ROOT
ATOM      1  C   UNL     1      -0.858  -0.947  -1.312  0.00  0.00    +0.000 C 
ATOM      2  C   UNL     1       0.037  -0.089  -0.395  0.00  0.00    +0.000 C 
ATOM      3  O   UNL     1      -0.445   1.244  -0.379  0.00  0.00    +0.000 OA
ATOM      4  C   UNL     1      -0.308   1.843  -1.660  0.00  0.00    +0.000 C 
ATOM      5  C   UNL     1      -1.225   1.123  -2.688  0.00  0.00    +0.000 C 
ATOM      6  C   UNL     1      -0.879  -0.379  -2.744  0.00  0.00    +0.000 C 
ENDROOT
BRANCH   1   8
ATOM      7  C   UNL     1       0.624  -2.951  -1.482  0.00  0.00    +0.000 C 
ATOM      8  N   UNL     1      -0.528  -2.380  -1.276  0.00  0.00    +0.000 NA
ATOM      9  C   UNL     1       0.727  -4.439  -1.383  0.00  0.00    +0.000 C 
BRANCH   7  11
ATOM     10  H   UNL     1       2.666  -2.649  -1.894  0.00  0.00    +0.000 HD
ATOM     11  O   UNL     1       1.767  -2.203  -1.754  0.00  0.00    +0.000 OA
ENDBRANCH   7  11
ENDBRANCH   1   8
BRANCH   5  12
ATOM     12  O   UNL     1      -1.071   1.682  -3.969  0.00  0.00    +0.000 OA
ATOM     13  H   UNL     1      -1.817   2.323  -4.103  0.00  0.00    +0.000 HD
ENDBRANCH   5  12
BRANCH   6  14
ATOM     14  O   UNL     1       0.369  -0.563  -3.365  0.00  0.00    +0.000 OA
ATOM     15  H   UNL     1       0.206  -0.592  -4.344  0.00  0.00    +0.000 HD
ENDBRANCH   6  14
BRANCH   2  16
ATOM     16  O   UNL     1      -0.016  -0.619   0.928  0.00  0.00    +0.000 OA
BRANCH  16  17
ATOM     17  C   UNL     1       0.754  -0.161   2.008  0.00  0.00    +0.000 A 
ATOM     18  C   UNL     1       1.689   0.884   1.884  0.00  0.00    +0.000 A 
ATOM     19  C   UNL     1       2.432   1.302   2.993  0.00  0.00    +0.000 A 
ATOM     20  C   UNL     1       2.254   0.683   4.241  0.00  0.00    +0.000 A 
ATOM     21  C   UNL     1       1.323  -0.359   4.362  0.00  0.00    +0.000 A 
ATOM     22  C   UNL     1       0.581  -0.776   3.253  0.00  0.00    +0.000 A 
BRANCH  20  23
ATOM     23  C   UNL     1       3.028   1.109   5.421  0.00  0.00    +0.000 C 
ATOM     24  O   UNL     1       3.872   2.042   5.344  0.00  0.00    +0.000 OA
ENDBRANCH  20  23
ENDBRANCH  16  17
ENDBRANCH   2  16
BRANCH   4  25
ATOM     25  C   UNL     1      -0.672   3.330  -1.523  0.00  0.00    +0.000 C 
BRANCH  25  26
ATOM     26  O   UNL     1      -0.331   4.047  -2.679  0.00  0.00    +0.000 OA
ATOM     27  H   UNL     1       0.656   4.159  -2.665  0.00  0.00    +0.000 HD
ENDBRANCH  25  26
ENDBRANCH   4  25
TORSDOF 9
