REMARK  Name = ZINC000015205946
REMARK  9 active torsions:
REMARK  status: ('A' for Active; 'I' for Inactive)
REMARK    1  A    between atoms: C_1  and  C_2
REMARK    2  A    between atoms: N_4  and  C_5
REMARK    3  A    between atoms: C_6  and  O_7
REMARK    4  A    between atoms: C_8  and  O_9
REMARK    5  A    between atoms: C_10  and  C_11
REMARK    6  A    between atoms: C_11  and  O_12
REMARK    7  A    between atoms: C_14  and  O_15
REMARK    8  A    between atoms: O_15  and  C_16
REMARK    9  A    between atoms: C_21  and  N_22
REMARK                            x       y       z     vdW  Elec       q    Type
REMARK                         _______ _______ _______ _____ _____    ______ ____
ROOT
ATOM      1  C   UNL     1      -0.683   0.541  -1.815  0.00  0.00    +0.000 C 
ATOM      2  C   UNL     1      -0.307  -0.157  -3.134  0.00  0.00    +0.000 C 
ATOM      3  C   UNL     1      -0.027  -1.657  -2.904  0.00  0.00    +0.000 C 
ATOM      4  C   UNL     1       0.933  -1.867  -1.708  0.00  0.00    +0.000 C 
ATOM      5  O   UNL     1       0.501  -1.177  -0.540  0.00  0.00    +0.000 OA
ATOM      6  C   UNL     1       0.375   0.223  -0.744  0.00  0.00    +0.000 C 
ENDROOT
BRANCH   1  10
ATOM      7  C   UNL     1      -4.542   0.329  -1.264  0.00  0.00    +0.000 C 
ATOM      8  C   UNL     1      -3.216   0.817  -1.747  0.00  0.00    +0.000 C 
ATOM      9  O   UNL     1      -3.160   1.826  -2.501  0.00  0.00    +0.000 OA
ATOM     10  N   UNL     1      -2.018   0.132  -1.356  0.00  0.00    +0.000 N 
ATOM     11  H   UNL     1      -2.111  -0.703  -0.734  0.00  0.00    +0.000 HD
ENDBRANCH   1  10
BRANCH   2  12
ATOM     12  O   UNL     1      -1.327   0.021  -4.083  0.00  0.00    +0.000 OA
ATOM     13  H   UNL     1      -0.945  -0.231  -4.964  0.00  0.00    +0.000 HD
ENDBRANCH   2  12
BRANCH   3  14
ATOM     14  O   UNL     1      -1.226  -2.346  -2.650  0.00  0.00    +0.000 OA
ATOM     15  H   UNL     1      -1.653  -2.524  -3.529  0.00  0.00    +0.000 HD
ENDBRANCH   3  14
BRANCH   4  16
ATOM     16  C   UNL     1       2.415  -1.582  -2.045  0.00  0.00    +0.000 C 
BRANCH  16  17
ATOM     17  O   UNL     1       2.903  -2.525  -2.962  0.00  0.00    +0.000 OA
ATOM     18  H   UNL     1       3.082  -3.357  -2.449  0.00  0.00    +0.000 HD
ENDBRANCH  16  17
ENDBRANCH   4  16
BRANCH   6  19
ATOM     19  O   UNL     1      -0.027   0.836   0.481  0.00  0.00    +0.000 OA
BRANCH  19  20
ATOM     20  C   UNL     1       0.725   0.864   1.668  0.00  0.00    +0.000 A 
ATOM     21  C   UNL     1       2.035   0.343   1.719  0.00  0.00    +0.000 A 
ATOM     22  C   UNL     1       2.772   0.388   2.902  0.00  0.00    +0.000 A 
ATOM     23  C   UNL     1       2.219   0.953   4.048  0.00  0.00    +0.000 A 
ATOM     24  C   UNL     1       0.925   1.474   4.018  0.00  0.00    +0.000 A 
ATOM     25  C   UNL     1       0.159   1.436   2.837  0.00  0.00    +0.000 A 
BRANCH  25  26
ATOM     26  N   UNL     1      -1.180   1.977   2.845  0.00  0.00    +0.000 N 
ATOM     27  O   UNL     1      -1.944   1.836   1.868  0.00  0.00    +0.000 OA
ATOM     28  O   UNL     1      -1.653   2.640   3.955  0.00  0.00    +0.000 OA
ENDBRANCH  25  26
ENDBRANCH  19  20
ENDBRANCH   6  19
TORSDOF 8
