REMARK  Name = 54758653
REMARK  8 active torsions:
REMARK  status: ('A' for Active; 'I' for Inactive)
REMARK    1  A    between atoms: C_1  and  C_2
REMARK    2  A    between atoms: N_4  and  C_5
REMARK    3  A    between atoms: C_6  and  O_7
REMARK    4  A    between atoms: C_9  and  C_10
REMARK    5  A    between atoms: C_10  and  O_11
REMARK    6  A    between atoms: O_11  and  P_12
REMARK    7  A    between atoms: C_16  and  O_17
REMARK    8  A    between atoms: C_18  and  O_19
REMARK                            x       y       z     vdW  Elec       q    Type
REMARK                         _______ _______ _______ _____ _____    ______ ____
ROOT
ATOM      1  C   UNL     1       0.078   1.190  -0.116  0.00  0.00    +0.000 C 
ATOM      2  C   UNL     1      -1.244   0.966   0.677  0.00  0.00    +0.000 C 
ATOM      3  O   UNL     1      -1.125   0.011   1.725  0.00  0.00    +0.000 OA
ATOM      4  C   UNL     1      -0.333  -1.096   1.337  0.00  0.00    +0.000 C 
ATOM      5  C   UNL     1       1.160  -0.678   1.244  0.00  0.00    +0.000 C 
ATOM      6  C   UNL     1       1.305   0.780   0.726  0.00  0.00    +0.000 C 
ENDROOT
BRANCH   1  10
ATOM      7  C   UNL     1      -0.196   2.096  -3.037  0.00  0.00    +0.000 C 
ATOM      8  C   UNL     1       0.010   3.045  -1.896  0.00  0.00    +0.000 C 
ATOM      9  O   UNL     1       0.035   4.283  -2.133  0.00  0.00    +0.000 OA
ATOM     10  N   UNL     1       0.190   2.590  -0.545  0.00  0.00    +0.000 N 
ATOM     11  H   UNL     1       0.309   3.321   0.193  0.00  0.00    +0.000 HD
ENDBRANCH   1  10
BRANCH   2  12
ATOM     12  O   UNL     1      -2.277   0.577  -0.190  0.00  0.00    +0.000 OA
ATOM     13  H   UNL     1      -2.532   1.383  -0.711  0.00  0.00    +0.000 HD
ENDBRANCH   2  12
BRANCH   5  14
ATOM     14  O   UNL     1       1.825  -1.562   0.377  0.00  0.00    +0.000 OA
ATOM     15  H   UNL     1       2.795  -1.486   0.577  0.00  0.00    +0.000 HD
ENDBRANCH   5  14
BRANCH   6  16
ATOM     16  O   UNL     1       1.522   1.677   1.791  0.00  0.00    +0.000 OA
ATOM     17  H   UNL     1       0.768   1.589   2.430  0.00  0.00    +0.000 HD
ENDBRANCH   6  16
BRANCH   4  18
ATOM     18  C   UNL     1      -0.537  -2.225   2.355  0.00  0.00    +0.000 C 
BRANCH  18  19
ATOM     19  O   UNL     1       0.180  -3.367   1.947  0.00  0.00    +0.000 OA
BRANCH  19  20
ATOM     20  P   UNL     1      -0.012  -4.577   3.134  0.00  0.00    +0.000 P 
ATOM     21  O   UNL     1       0.649  -4.145   4.424  0.00  0.00    +0.000 OA
ATOM     22  O   UNL     1      -1.654  -4.876   3.412  0.00  0.00    +0.000 OA
ATOM     23  O   UNL     1       0.721  -6.000   2.589  0.00  0.00    +0.000 OA
ENDBRANCH  19  20
ENDBRANCH  18  19
ENDBRANCH   4  18
TORSDOF 7
