REMARK  Name = ZINC000106382931
REMARK  8 active torsions:
REMARK  status: ('A' for Active; 'I' for Inactive)
REMARK    1  A    between atoms: C_1  and  C_2
REMARK    2  A    between atoms: N_4  and  C_5
REMARK    3  A    between atoms: C_6  and  O_7
REMARK    4  A    between atoms: O_7  and  C_8
REMARK    5  A    between atoms: C_16  and  C_17
REMARK    6  A    between atoms: C_17  and  O_18
REMARK    7  A    between atoms: C_19  and  O_20
REMARK    8  A    between atoms: C_21  and  O_22
REMARK                            x       y       z     vdW  Elec       q    Type
REMARK                         _______ _______ _______ _____ _____    ______ ____
ROOT
ATOM      1  C   UNL     1       0.487   0.347  -0.032  0.00  0.00    +0.000 C 
ATOM      2  C   UNL     1       0.147  -0.974  -0.764  0.00  0.00    +0.000 C 
ATOM      3  O   UNL     1      -0.014  -0.720  -2.148  0.00  0.00    +0.000 OA
ATOM      4  C   UNL     1      -1.140   0.111  -2.387  0.00  0.00    +0.000 C 
ATOM      5  C   UNL     1      -0.911   1.512  -1.774  0.00  0.00    +0.000 C 
ATOM      6  C   UNL     1      -0.631   1.381  -0.263  0.00  0.00    +0.000 C 
ENDROOT
BRANCH   1  10
ATOM      7  C   UNL     1       2.106  -0.196   3.480  0.00  0.00    +0.000 C 
ATOM      8  C   UNL     1       1.973   0.149   2.032  0.00  0.00    +0.000 C 
ATOM      9  O   UNL     1       3.009   0.407   1.361  0.00  0.00    +0.000 OA
ATOM     10  N   UNL     1       0.682   0.123   1.405  0.00  0.00    +0.000 N 
ATOM     11  H   UNL     1      -0.141  -0.154   1.986  0.00  0.00    +0.000 HD
ENDBRANCH   1  10
BRANCH   5  12
ATOM     12  O   UNL     1      -2.038   2.323  -1.990  0.00  0.00    +0.000 OA
ATOM     13  H   UNL     1      -1.755   3.257  -1.810  0.00  0.00    +0.000 HD
ENDBRANCH   5  12
BRANCH   6  14
ATOM     14  O   UNL     1      -1.800   0.985   0.413  0.00  0.00    +0.000 OA
ATOM     15  H   UNL     1      -2.327   1.808   0.588  0.00  0.00    +0.000 HD
ENDBRANCH   6  14
BRANCH   2  16
ATOM     16  O   UNL     1       1.229  -1.899  -0.621  0.00  0.00    +0.000 OA
BRANCH  16  17
ATOM     17  C   UNL     1       1.463  -2.759   0.466  0.00  0.00    +0.000 A 
ATOM     18  C   UNL     1       0.505  -3.019   1.468  0.00  0.00    +0.000 A 
ATOM     19  C   UNL     1       0.810  -3.879   2.528  0.00  0.00    +0.000 A 
ATOM     20  C   UNL     1       2.063  -4.490   2.598  0.00  0.00    +0.000 A 
ATOM     21  F   UNL     1       2.357  -5.322   3.628  0.00  0.00    +0.000 F 
ATOM     22  C   UNL     1       3.014  -4.247   1.604  0.00  0.00    +0.000 A 
ATOM     23  C   UNL     1       2.712  -3.389   0.542  0.00  0.00    +0.000 A 
ENDBRANCH  16  17
ENDBRANCH   2  16
BRANCH   4  24
ATOM     24  C   UNL     1      -1.355   0.210  -3.902  0.00  0.00    +0.000 C 
BRANCH  24  25
ATOM     25  O   UNL     1      -1.570  -1.069  -4.432  0.00  0.00    +0.000 OA
ATOM     26  H   UNL     1      -1.692  -0.945  -5.409  0.00  0.00    +0.000 HD
ENDBRANCH  24  25
ENDBRANCH   4  24
TORSDOF 7
