REMARK  Name = ZINC000101361998
REMARK  12 active torsions:
REMARK  status: ('A' for Active; 'I' for Inactive)
REMARK    1  A    between atoms: O_2  and  C_3
REMARK    2  A    between atoms: C_3  and  O_40
REMARK    3  A    between atoms: N_4  and  C_5
REMARK    4  A    between atoms: C_7  and  O_9
REMARK    5  A    between atoms: C_11  and  O_13
REMARK    6  A    between atoms: C_15  and  C_17
REMARK    7  A    between atoms: C_17  and  O_20
REMARK    8  A    between atoms: C_23  and  O_25
REMARK    9  A    between atoms: O_25  and  C_26
REMARK   10  A    between atoms: C_26  and  C_29
REMARK   11  A    between atoms: O_40  and  C_41
REMARK   12  A    between atoms: C_41  and  C_44
REMARK                            x       y       z     vdW  Elec       q    Type
REMARK                         _______ _______ _______ _____ _____    ______ ____
ROOT
ATOM      1  C   UNL     1       0.958   0.363  -0.395  0.00  0.00    +0.000 C 
ATOM      2  C   UNL     1       2.371   0.512  -0.989  0.00  0.00    +0.000 C 
ATOM      3  C   UNL     1       2.655   2.006  -1.245  0.00  0.00    +0.000 C 
ATOM      4  C   UNL     1       2.334   2.836   0.027  0.00  0.00    +0.000 C 
ATOM      5  O   UNL     1       0.984   2.636   0.422  0.00  0.00    +0.000 OA
ATOM      6  C   UNL     1       0.770   1.292   0.823  0.00  0.00    +0.000 C 
ENDROOT
BRANCH   1   8
ATOM      7  C   UNL     1       1.043  -1.815   0.831  0.00  0.00    +0.000 C 
ATOM      8  N   UNL     1       0.611  -1.038  -0.122  0.00  0.00    +0.000 NA
BRANCH   7  10
ATOM      9  H   UNL     1       2.265  -1.962   2.527  0.00  0.00    +0.000 HD
ATOM     10  O   UNL     1       1.936  -1.351   1.790  0.00  0.00    +0.000 OA
ENDBRANCH   7  10
BRANCH   7  11
ATOM     11  O   UNL     1       0.609  -3.144   0.906  0.00  0.00    +0.000 OA
BRANCH  11  12
ATOM     12  C   UNL     1      -0.245  -3.754  -0.061  0.00  0.00    +0.000 C 
BRANCH  12  13
ATOM     13  C   UNL     1       0.484  -3.933  -1.366  0.00  0.00    +0.000 A 
ATOM     14  C   UNL     1       1.550  -4.843  -1.454  0.00  0.00    +0.000 A 
ATOM     15  C   UNL     1       2.255  -4.989  -2.653  0.00  0.00    +0.000 A 
ATOM     16  C   UNL     1       1.903  -4.225  -3.769  0.00  0.00    +0.000 A 
ATOM     17  C   UNL     1       0.846  -3.314  -3.688  0.00  0.00    +0.000 A 
ATOM     18  C   UNL     1       0.137  -3.167  -2.492  0.00  0.00    +0.000 A 
ENDBRANCH  12  13
ENDBRANCH  11  12
ENDBRANCH   7  11
ENDBRANCH   1   8
BRANCH   2  19
ATOM     19  O   UNL     1       3.332  -0.018  -0.111  0.00  0.00    +0.000 OA
ATOM     20  H   UNL     1       4.112  -0.291  -0.662  0.00  0.00    +0.000 HD
ENDBRANCH   2  19
BRANCH   3  21
ATOM     21  O   UNL     1       4.002   2.168  -1.615  0.00  0.00    +0.000 OA
ATOM     22  H   UNL     1       4.038   2.901  -2.283  0.00  0.00    +0.000 HD
ENDBRANCH   3  21
BRANCH   4  23
ATOM     23  C   UNL     1       2.544   4.333  -0.228  0.00  0.00    +0.000 C 
BRANCH  23  24
ATOM     24  O   UNL     1       2.219   5.058   0.925  0.00  0.00    +0.000 OA
ATOM     25  H   UNL     1       2.358   6.014   0.697  0.00  0.00    +0.000 HD
ENDBRANCH  23  24
ENDBRANCH   4  23
BRANCH   6  26
ATOM     26  O   UNL     1      -0.560   1.153   1.283  0.00  0.00    +0.000 OA
BRANCH  26  27
ATOM     27  C   UNL     1      -0.679   1.645   2.601  0.00  0.00    +0.000 C 
BRANCH  27  28
ATOM     28  C   UNL     1      -2.120   1.576   3.013  0.00  0.00    +0.000 A 
ATOM     29  C   UNL     1      -2.969   2.678   2.814  0.00  0.00    +0.000 A 
ATOM     30  C   UNL     1      -4.322   2.596   3.160  0.00  0.00    +0.000 A 
ATOM     31  C   UNL     1      -4.838   1.411   3.693  0.00  0.00    +0.000 A 
ATOM     32  C   UNL     1      -4.003   0.305   3.877  0.00  0.00    +0.000 A 
ATOM     33  C   UNL     1      -2.650   0.383   3.533  0.00  0.00    +0.000 A 
ENDBRANCH  27  28
ENDBRANCH  26  27
ENDBRANCH   6  26
TORSDOF 12
