REMARK  Name = ZINC000106384102
REMARK  9 active torsions:
REMARK  status: ('A' for Active; 'I' for Inactive)
REMARK    1  A    between atoms: C_1  and  C_2
REMARK    2  A    between atoms: N_4  and  C_5
REMARK    3  A    between atoms: C_6  and  O_7
REMARK    4  A    between atoms: O_7  and  C_8
REMARK    5  A    between atoms: C_13  and  C_14
REMARK    6  A    between atoms: C_16  and  C_17
REMARK    7  A    between atoms: C_17  and  O_18
REMARK    8  A    between atoms: C_19  and  O_20
REMARK    9  A    between atoms: C_21  and  O_22
REMARK                            x       y       z     vdW  Elec       q    Type
REMARK                         _______ _______ _______ _____ _____    ______ ____
ROOT
ATOM      1  C   UNL     1      -1.382   1.016  -0.235  0.00  0.00    +0.000 C 
ATOM      2  C   UNL     1      -0.064   1.810  -0.075  0.00  0.00    +0.000 C 
ATOM      3  O   UNL     1      -0.233   3.131  -0.558  0.00  0.00    +0.000 OA
ATOM      4  C   UNL     1      -0.478   3.140  -1.954  0.00  0.00    +0.000 C 
ATOM      5  C   UNL     1      -1.837   2.462  -2.255  0.00  0.00    +0.000 C 
ATOM      6  C   UNL     1      -1.835   1.023  -1.708  0.00  0.00    +0.000 C 
ENDROOT
BRANCH   1  10
ATOM      7  C   UNL     1      -2.057  -2.520   1.265  0.00  0.00    +0.000 C 
ATOM      8  C   UNL     1      -2.287  -1.110   0.829  0.00  0.00    +0.000 C 
ATOM      9  O   UNL     1      -3.430  -0.595   0.964  0.00  0.00    +0.000 OA
ATOM     10  N   UNL     1      -1.219  -0.365   0.230  0.00  0.00    +0.000 N 
ATOM     11  H   UNL     1      -0.322  -0.864   0.027  0.00  0.00    +0.000 HD
ENDBRANCH   1  10
BRANCH   5  12
ATOM     12  O   UNL     1      -2.076   2.442  -3.639  0.00  0.00    +0.000 OA
ATOM     13  H   UNL     1      -3.043   2.254  -3.760  0.00  0.00    +0.000 HD
ENDBRANCH   5  12
BRANCH   6  14
ATOM     14  O   UNL     1      -0.977   0.227  -2.490  0.00  0.00    +0.000 OA
ATOM     15  H   UNL     1      -1.319  -0.704  -2.444  0.00  0.00    +0.000 HD
ENDBRANCH   6  14
BRANCH   2  16
ATOM     16  O   UNL     1       0.288   1.899   1.308  0.00  0.00    +0.000 OA
BRANCH  16  17
ATOM     17  C   UNL     1       0.875   0.853   2.029  0.00  0.00    +0.000 A 
ATOM     18  C   UNL     1       0.129   0.243   3.045  0.00  0.00    +0.000 A 
ATOM     19  C   UNL     1       0.655  -0.834   3.762  0.00  0.00    +0.000 A 
ATOM     20  C   UNL     1       1.939  -1.300   3.478  0.00  0.00    +0.000 A 
ATOM     21  C   UNL     1       2.708  -0.678   2.490  0.00  0.00    +0.000 A 
ATOM     22  C   UNL     1       2.197   0.417   1.774  0.00  0.00    +0.000 A 
ATOM     23  C   UNL     1       3.070   1.089   0.751  0.00  0.00    +0.000 C 
ENDBRANCH  16  17
ENDBRANCH   2  16
BRANCH   4  24
ATOM     24  C   UNL     1      -0.463   4.603  -2.422  0.00  0.00    +0.000 C 
BRANCH  24  25
ATOM     25  O   UNL     1      -0.440   4.678  -3.824  0.00  0.00    +0.000 OA
ATOM     26  H   UNL     1      -1.340   4.978  -4.117  0.00  0.00    +0.000 HD
ENDBRANCH  24  25
ENDBRANCH   4  24
TORSDOF 7
