REMARK  Name = ZINC000100815672
REMARK  9 active torsions:
REMARK  status: ('A' for Active; 'I' for Inactive)
REMARK    1  A    between atoms: C_2  and  C_22
REMARK    2  A    between atoms: N_3  and  C_4
REMARK    3  A    between atoms: C_5  and  O_6
REMARK    4  A    between atoms: C_7  and  O_8
REMARK    5  A    between atoms: C_9  and  C_10
REMARK    6  A    between atoms: C_10  and  O_11
REMARK    7  A    between atoms: C_13  and  O_14
REMARK    8  A    between atoms: O_14  and  C_15
REMARK    9  A    between atoms: C_15  and  C_16
REMARK                            x       y       z     vdW  Elec       q    Type
REMARK                         _______ _______ _______ _____ _____    ______ ____
ROOT
ATOM      1  C   UNL     1      -0.989  -0.207  -0.162  0.00  0.00    +0.000 C 
ATOM      2  C   UNL     1      -1.700  -1.544  -0.441  0.00  0.00    +0.000 C 
ATOM      3  C   UNL     1      -0.813  -2.430  -1.336  0.00  0.00    +0.000 C 
ATOM      4  C   UNL     1       0.613  -2.523  -0.736  0.00  0.00    +0.000 C 
ATOM      5  O   UNL     1       1.174  -1.228  -0.593  0.00  0.00    +0.000 OA
ATOM      6  C   UNL     1       0.444  -0.463   0.352  0.00  0.00    +0.000 C 
ENDROOT
BRANCH   1   9
ATOM      7  O   UNL     1      -3.351   1.309  -0.730  0.00  0.00    +0.000 OA
ATOM      8  C   UNL     1      -2.926   1.321   0.458  0.00  0.00    +0.000 C 
ATOM      9  N   UNL     1      -1.750   0.582   0.814  0.00  0.00    +0.000 N 
ATOM     10  H   UNL     1      -1.423   0.625   1.806  0.00  0.00    +0.000 HD
BRANCH   8  11
ATOM     11  C   UNL     1      -3.651   2.112   1.503  0.00  0.00    +0.000 C 
ATOM     12  F   UNL     1      -4.104   1.260   2.493  0.00  0.00    +0.000 F 
ATOM     13  F   UNL     1      -4.732   2.776   0.949  0.00  0.00    +0.000 F 
ATOM     14  F   UNL     1      -2.790   3.040   2.059  0.00  0.00    +0.000 F 
ENDBRANCH   8  11
ENDBRANCH   1   9
BRANCH   2  15
ATOM     15  O   UNL     1      -1.975  -2.196   0.776  0.00  0.00    +0.000 OA
ATOM     16  H   UNL     1      -2.752  -2.792   0.617  0.00  0.00    +0.000 HD
ENDBRANCH   2  15
BRANCH   3  17
ATOM     17  O   UNL     1      -1.389  -3.708  -1.444  0.00  0.00    +0.000 OA
ATOM     18  H   UNL     1      -1.180  -4.047  -2.354  0.00  0.00    +0.000 HD
ENDBRANCH   3  17
BRANCH   4  19
ATOM     19  C   UNL     1       1.549  -3.366  -1.618  0.00  0.00    +0.000 C 
BRANCH  19  20
ATOM     20  O   UNL     1       1.641  -2.837  -2.914  0.00  0.00    +0.000 OA
ATOM     21  H   UNL     1       2.265  -2.067  -2.865  0.00  0.00    +0.000 HD
ENDBRANCH  19  20
ENDBRANCH   4  19
BRANCH   6  22
ATOM     22  O   UNL     1       1.085   0.791   0.505  0.00  0.00    +0.000 OA
BRANCH  22  23
ATOM     23  C   UNL     1       2.051   0.749   1.536  0.00  0.00    +0.000 C 
BRANCH  23  24
ATOM     24  C   UNL     1       1.403   1.032   2.865  0.00  0.00    +0.000 A 
ATOM     25  C   UNL     1       1.344   0.041   3.859  0.00  0.00    +0.000 A 
ATOM     26  C   UNL     1       0.700   0.299   5.073  0.00  0.00    +0.000 A 
ATOM     27  C   UNL     1       0.108   1.544   5.301  0.00  0.00    +0.000 A 
ATOM     28  C   UNL     1       0.159   2.534   4.316  0.00  0.00    +0.000 A 
ATOM     29  C   UNL     1       0.804   2.280   3.101  0.00  0.00    +0.000 A 
ENDBRANCH  23  24
ENDBRANCH  22  23
ENDBRANCH   6  22
TORSDOF 9
