REMARK  Name = ZINC000102205030
REMARK  11 active torsions:
REMARK  status: ('A' for Active; 'I' for Inactive)
REMARK    1  A    between atoms: O_2  and  C_3
REMARK    2  A    between atoms: C_3  and  C_35
REMARK    3  A    between atoms: N_4  and  C_5
REMARK    4  A    between atoms: C_7  and  O_9
REMARK    5  A    between atoms: C_11  and  O_13
REMARK    6  A    between atoms: C_15  and  C_17
REMARK    7  A    between atoms: C_17  and  O_20
REMARK    8  A    between atoms: C_23  and  O_25
REMARK    9  A    between atoms: O_25  and  C_26
REMARK   10  A    between atoms: C_26  and  C_29
REMARK   11  A    between atoms: C_29  and  N_32
REMARK                            x       y       z     vdW  Elec       q    Type
REMARK                         _______ _______ _______ _____ _____    ______ ____
ROOT
ATOM      1  C   UNL     1      -0.075   0.776  -0.609  0.00  0.00    +0.000 C 
ATOM      2  C   UNL     1      -0.104   1.229   0.868  0.00  0.00    +0.000 C 
ATOM      3  C   UNL     1      -1.495   1.778   1.259  0.00  0.00    +0.000 C 
ATOM      4  C   UNL     1      -2.619   0.838   0.763  0.00  0.00    +0.000 C 
ATOM      5  O   UNL     1      -2.498   0.629  -0.633  0.00  0.00    +0.000 OA
ATOM      6  C   UNL     1      -1.314  -0.088  -0.937  0.00  0.00    +0.000 C 
ENDROOT
BRANCH   1   8
ATOM      7  C   UNL     1       1.777  -0.126  -1.996  0.00  0.00    +0.000 C 
ATOM      8  N   UNL     1       1.157   0.022  -0.860  0.00  0.00    +0.000 NA
ATOM      9  C   UNL     1       3.002  -0.975  -2.040  0.00  0.00    +0.000 C 
BRANCH   7  11
ATOM     10  H   UNL     1       0.554   1.114  -3.229  0.00  0.00    +0.000 HD
ATOM     11  O   UNL     1       1.350   0.494  -3.175  0.00  0.00    +0.000 OA
ENDBRANCH   7  11
ENDBRANCH   1   8
BRANCH   2  12
ATOM     12  O   UNL     1       0.319   0.206   1.742  0.00  0.00    +0.000 OA
ATOM     13  H   UNL     1      -0.334  -0.537   1.695  0.00  0.00    +0.000 HD
ENDBRANCH   2  12
BRANCH   3  14
ATOM     14  O   UNL     1      -1.579   1.934   2.653  0.00  0.00    +0.000 OA
ATOM     15  H   UNL     1      -1.027   2.726   2.886  0.00  0.00    +0.000 HD
ENDBRANCH   3  14
BRANCH   4  16
ATOM     16  C   UNL     1      -3.999   1.450   1.046  0.00  0.00    +0.000 C 
BRANCH  16  17
ATOM     17  O   UNL     1      -5.014   0.564   0.658  0.00  0.00    +0.000 OA
ATOM     18  H   UNL     1      -5.130   0.671  -0.323  0.00  0.00    +0.000 HD
ENDBRANCH  16  17
ENDBRANCH   4  16
BRANCH   6  19
ATOM     19  O   UNL     1      -1.311  -0.378  -2.322  0.00  0.00    +0.000 OA
BRANCH  19  20
ATOM     20  C   UNL     1      -2.056  -1.547  -2.607  0.00  0.00    +0.000 C 
BRANCH  20  21
ATOM     21  C   UNL     1      -1.137  -2.768  -2.652  0.00  0.00    +0.000 C 
BRANCH  21  22
ATOM     22  N   UNL     1      -0.095  -2.568  -3.649  0.00  0.00    +0.000 NA
ATOM     23  N   UNL     1       0.775  -3.422  -3.826  0.00  0.00    +0.000 NA
ATOM     24  N   UNL     1       1.645  -4.273  -4.003  0.00  0.00    +0.000 NA
ENDBRANCH  21  22
ENDBRANCH  20  21
ENDBRANCH  19  20
ENDBRANCH   6  19
TORSDOF 10
