REMARK  Name = ZINC000100656214
REMARK  10 active torsions:
REMARK  status: ('A' for Active; 'I' for Inactive)
REMARK    1  A    between atoms: O_2  and  C_3
REMARK    2  A    between atoms: C_3  and  C_40
REMARK    3  A    between atoms: N_4  and  C_5
REMARK    4  A    between atoms: C_7  and  O_9
REMARK    5  A    between atoms: C_11  and  O_13
REMARK    6  A    between atoms: C_15  and  C_17
REMARK    7  A    between atoms: C_17  and  O_20
REMARK    8  A    between atoms: C_23  and  O_25
REMARK    9  A    between atoms: O_25  and  C_26
REMARK   10  A    between atoms: C_26  and  C_29
REMARK                            x       y       z     vdW  Elec       q    Type
REMARK                         _______ _______ _______ _____ _____    ______ ____
ROOT
ATOM      1  C   UNL     1      -0.918  -1.331  -0.001  0.00  0.00    +0.000 C 
ATOM      2  C   UNL     1      -0.909  -2.065  -1.356  0.00  0.00    +0.000 C 
ATOM      3  C   UNL     1      -2.274  -1.907  -2.050  0.00  0.00    +0.000 C 
ATOM      4  C   UNL     1      -2.674  -0.412  -2.094  0.00  0.00    +0.000 C 
ATOM      5  O   UNL     1      -2.701   0.123  -0.781  0.00  0.00    +0.000 OA
ATOM      6  C   UNL     1      -1.406   0.121  -0.204  0.00  0.00    +0.000 C 
ENDROOT
BRANCH   1   8
ATOM      7  C   UNL     1       0.769  -1.238   1.819  0.00  0.00    +0.000 C 
ATOM      8  N   UNL     1       0.435  -1.343   0.564  0.00  0.00    +0.000 NA
ATOM      9  C   UNL     1       2.217  -1.236   2.178  0.00  0.00    +0.000 C 
BRANCH   7  11
ATOM     10  H   UNL     1      -1.174  -1.186   2.696  0.00  0.00    +0.000 HD
ATOM     11  O   UNL     1      -0.175  -1.156   2.846  0.00  0.00    +0.000 OA
ENDBRANCH   7  11
ENDBRANCH   1   8
BRANCH   2  12
ATOM     12  O   UNL     1       0.103  -1.553  -2.190  0.00  0.00    +0.000 OA
ATOM     13  H   UNL     1       0.940  -2.038  -1.967  0.00  0.00    +0.000 HD
ENDBRANCH   2  12
BRANCH   3  14
ATOM     14  O   UNL     1      -2.209  -2.431  -3.352  0.00  0.00    +0.000 OA
ATOM     15  H   UNL     1      -2.216  -3.420  -3.263  0.00  0.00    +0.000 HD
ENDBRANCH   3  14
BRANCH   4  16
ATOM     16  C   UNL     1      -4.072  -0.222  -2.708  0.00  0.00    +0.000 C 
BRANCH  16  17
ATOM     17  O   UNL     1      -4.080  -0.554  -4.070  0.00  0.00    +0.000 OA
ATOM     18  H   UNL     1      -3.630   0.191  -4.548  0.00  0.00    +0.000 HD
ENDBRANCH  16  17
ENDBRANCH   4  16
BRANCH   6  19
ATOM     19  O   UNL     1      -1.485   0.756   1.059  0.00  0.00    +0.000 OA
BRANCH  19  20
ATOM     20  C   UNL     1      -1.230   2.144   0.956  0.00  0.00    +0.000 C 
BRANCH  20  21
ATOM     21  C   UNL     1       0.243   2.406   1.118  0.00  0.00    +0.000 A 
ATOM     22  C   UNL     1       1.032   2.770   0.014  0.00  0.00    +0.000 A 
ATOM     23  C   UNL     1       2.409   2.960   0.165  0.00  0.00    +0.000 A 
ATOM     24  C   UNL     1       3.008   2.784   1.415  0.00  0.00    +0.000 A 
ATOM     25  C   UNL     1       2.230   2.418   2.517  0.00  0.00    +0.000 A 
ATOM     26  C   UNL     1       0.853   2.227   2.370  0.00  0.00    +0.000 A 
ENDBRANCH  20  21
ENDBRANCH  19  20
ENDBRANCH   6  19
TORSDOF 9
