REMARK  Name = ZINC000019893747
REMARK  11 active torsions:
REMARK  status: ('A' for Active; 'I' for Inactive)
REMARK    1  A    between atoms: O_2  and  C_3
REMARK    2  A    between atoms: C_3  and  C_36
REMARK    3  A    between atoms: N_4  and  C_5
REMARK    4  A    between atoms: C_7  and  O_9
REMARK    5  A    between atoms: O_9  and  S_10
REMARK    6  A    between atoms: S_10  and  C_13
REMARK    7  A    between atoms: C_17  and  O_19
REMARK    8  A    between atoms: C_21  and  C_23
REMARK    9  A    between atoms: C_23  and  O_26
REMARK   10  A    between atoms: C_29  and  O_31
REMARK   11  A    between atoms: O_31  and  C_32
REMARK                            x       y       z     vdW  Elec       q    Type
REMARK                         _______ _______ _______ _____ _____    ______ ____
ROOT
ATOM      1  C   UNL     1      -0.779  -0.047  -0.746  0.00  0.00    +0.000 C 
ATOM      2  C   UNL     1       0.562  -0.645  -1.213  0.00  0.00    +0.000 C 
ATOM      3  C   UNL     1       0.296  -2.019  -1.860  0.00  0.00    +0.000 C 
ATOM      4  C   UNL     1      -0.806  -1.889  -2.945  0.00  0.00    +0.000 C 
ATOM      5  O   UNL     1      -1.992  -1.359  -2.374  0.00  0.00    +0.000 OA
ATOM      6  C   UNL     1      -1.784  -0.034  -1.912  0.00  0.00    +0.000 C 
ENDROOT
BRANCH   1   8
ATOM      7  C   UNL     1      -0.352   1.687   0.983  0.00  0.00    +0.000 C 
ATOM      8  N   UNL     1      -0.580   1.320  -0.248  0.00  0.00    +0.000 NA
BRANCH   7   9
ATOM      9  C   UNL     1      -0.359   0.744   2.119  0.00  0.00    +0.000 A 
ATOM     10  C   UNL     1      -1.535   0.063   2.477  0.00  0.00    +0.000 A 
ATOM     11  C   UNL     1      -1.543  -0.797   3.579  0.00  0.00    +0.000 A 
ATOM     12  C   UNL     1      -0.387  -0.964   4.346  0.00  0.00    +0.000 A 
ATOM     13  C   UNL     1       0.775  -0.259   4.019  0.00  0.00    +0.000 A 
ATOM     14  C   UNL     1       0.787   0.602   2.917  0.00  0.00    +0.000 A 
ENDBRANCH   7   9
BRANCH   7  16
ATOM     15  H   UNL     1      -0.062   3.713   0.503  0.00  0.00    +0.000 HD
ATOM     16  O   UNL     1      -0.085   3.027   1.248  0.00  0.00    +0.000 OA
ENDBRANCH   7  16
ENDBRANCH   1   8
BRANCH   3  17
ATOM     17  O   UNL     1       1.487  -2.508  -2.424  0.00  0.00    +0.000 OA
ATOM     18  H   UNL     1       1.520  -3.483  -2.244  0.00  0.00    +0.000 HD
ENDBRANCH   3  17
BRANCH   6  19
ATOM     19  O   UNL     1      -3.010   0.485  -1.433  0.00  0.00    +0.000 OA
ATOM     20  C   UNL     1      -3.845   0.835  -2.515  0.00  0.00    +0.000 C 
ENDBRANCH   6  19
BRANCH   2  21
ATOM     21  O   UNL     1       1.153   0.223  -2.168  0.00  0.00    +0.000 OA
BRANCH  21  22
ATOM     22  S   UNL     1       2.786   0.516  -1.801  0.00  0.00    +0.000 S 
ATOM     23  O   UNL     1       3.506  -0.764  -1.480  0.00  0.00    +0.000 OA
ATOM     24  O   UNL     1       3.437   1.148  -2.998  0.00  0.00    +0.000 OA
ATOM     25  C   UNL     1       2.919   1.638  -0.428  0.00  0.00    +0.000 C 
ENDBRANCH  21  22
ENDBRANCH   2  21
BRANCH   4  26
ATOM     26  C   UNL     1      -1.150  -3.251  -3.564  0.00  0.00    +0.000 C 
BRANCH  26  27
ATOM     27  O   UNL     1      -0.105  -3.692  -4.386  0.00  0.00    +0.000 OA
ATOM     28  H   UNL     1      -0.377  -4.586  -4.723  0.00  0.00    +0.000 HD
ENDBRANCH  26  27
ENDBRANCH   4  26
TORSDOF 9
