REMARK  Name = ZINC000082114392
REMARK  7 active torsions:
REMARK  status: ('A' for Active; 'I' for Inactive)
REMARK    1  A    between atoms: C_1  and  O_2
REMARK    2  A    between atoms: O_2  and  C_3
REMARK    3  A    between atoms: C_5  and  C_6
REMARK    4  A    between atoms: C_6  and  O_7
REMARK    5  A    between atoms: C_8  and  O_9
REMARK    6  A    between atoms: C_10  and  O_11
REMARK    7  A    between atoms: C_12  and  N_13
REMARK                            x       y       z     vdW  Elec       q    Type
REMARK                         _______ _______ _______ _____ _____    ______ ____
ROOT
ATOM      1  C   UNL     1      -1.504   0.234  -0.378  0.00  0.00    +0.000 C 
ATOM      2  O   UNL     1      -1.520  -0.768   0.627  0.00  0.00    +0.000 OA
ATOM      3  C   UNL     1      -0.417  -0.666   1.527  0.00  0.00    +0.000 C 
ATOM      4  C   UNL     1       0.876  -0.064   0.905  0.00  0.00    +0.000 C 
ATOM      5  C   UNL     1       0.966  -0.470  -0.575  0.00  0.00    +0.000 C 
ATOM      6  C   UNL     1      -0.308   0.006  -1.340  0.00  0.00    +0.000 C 
ENDROOT
BRANCH   6   7
ATOM      7  N   UNL     1      -0.676  -0.907  -2.429  0.00  0.00    +0.000 NA
ATOM      8  H   UNL     1      -0.933  -1.842  -2.037  0.00  0.00    +0.000 HD
ATOM      9  H   UNL     1       0.146  -1.030  -3.064  0.00  0.00    +0.000 HD
ENDBRANCH   6   7
BRANCH   1  11
ATOM     10  C   UNL     1      -3.770   0.720  -0.333  0.00  0.00    +0.000 C 
ATOM     11  O   UNL     1      -2.716   0.194  -1.109  0.00  0.00    +0.000 OA
ENDBRANCH   1  11
BRANCH   4  12
ATOM     12  O   UNL     1       2.001  -0.526   1.610  0.00  0.00    +0.000 OA
ATOM     13  H   UNL     1       2.763   0.053   1.346  0.00  0.00    +0.000 HD
ENDBRANCH   4  12
BRANCH   5  14
ATOM     14  O   UNL     1       1.124  -1.868  -0.652  0.00  0.00    +0.000 OA
ATOM     15  H   UNL     1       1.692  -2.056  -1.444  0.00  0.00    +0.000 HD
ENDBRANCH   5  14
BRANCH   3  16
ATOM     16  C   UNL     1      -0.837   0.045   2.823  0.00  0.00    +0.000 C 
BRANCH  16  17
ATOM     17  O   UNL     1      -1.199   1.374   2.571  0.00  0.00    +0.000 OA
ATOM     18  H   UNL     1      -1.460   1.760   3.447  0.00  0.00    +0.000 HD
ENDBRANCH  16  17
ENDBRANCH   3  16
TORSDOF 6
