REMARK  Name = 52948856
REMARK  16 active torsions:
REMARK  status: ('A' for Active; 'I' for Inactive)
REMARK    1  A    between atoms: C_1  and  O_2
REMARK    2  A    between atoms: O_2  and  C_3
REMARK    3  A    between atoms: C_3  and  C_4
REMARK    4  A    between atoms: C_6  and  O_7
REMARK    5  A    between atoms: O_7  and  C_8
REMARK    6  A    between atoms: C_8  and  C_9
REMARK    7  A    between atoms: C_9  and  C_10
REMARK    8  A    between atoms: C_16  and  N_17
REMARK    9  A    between atoms: N_17  and  C_18
REMARK   10  A    between atoms: C_18  and  C_19
REMARK   11  A    between atoms: C_19  and  C_20
REMARK   12  A    between atoms: C_20  and  N_21
REMARK   13  A    between atoms: C_22  and  O_23
REMARK   14  A    between atoms: O_23  and  C_24
REMARK   15  A    between atoms: C_24  and  C_25
REMARK   16  A    between atoms: C_35  and  O_36
REMARK                            x       y       z     vdW  Elec       q    Type
REMARK                         _______ _______ _______ _____ _____    ______ ____
ROOT
ATOM      1  C   UNL     1      -0.549  -4.049  -0.394  0.00  0.00    +0.000 C 
ATOM      2  O   UNL     1       0.219  -3.385  -1.383  0.00  0.00    +0.000 OA
ATOM      3  C   UNL     1       0.578  -2.081  -0.953  0.00  0.00    +0.000 C 
ATOM      4  C   UNL     1      -0.697  -1.202  -0.849  0.00  0.00    +0.000 C 
ATOM      5  C   UNL     1      -1.662  -1.847   0.188  0.00  0.00    +0.000 C 
ATOM      6  C   UNL     1      -1.903  -3.323  -0.200  0.00  0.00    +0.000 C 
ENDROOT
BRANCH   4   7
ATOM      7  N   UNL     1      -0.355   0.204  -0.509  0.00  0.00    +0.000 N 
ATOM      8  H   UNL     1       0.509   0.499  -1.013  0.00  0.00    +0.000 HD
ATOM      9  H   UNL     1      -0.128   0.278   0.507  0.00  0.00    +0.000 HD
BRANCH   7  10
ATOM     10  C   UNL     1      -1.428   1.166  -0.835  0.00  0.00    +0.000 C 
BRANCH  10  11
ATOM     11  C   UNL     1      -1.424   1.591  -2.322  0.00  0.00    +0.000 C 
BRANCH  11  12
ATOM     12  C   UNL     1      -0.591   2.854  -2.590  0.00  0.00    +0.000 C 
BRANCH  12  13
ATOM     13  N   UNL     1       0.833   2.600  -2.396  0.00  0.00    +0.000 NA
ATOM     14  H   UNL     1       1.341   3.500  -2.552  0.00  0.00    +0.000 HD
ATOM     15  H   UNL     1       1.154   1.943  -3.144  0.00  0.00    +0.000 HD
ENDBRANCH  12  13
ENDBRANCH  11  12
ENDBRANCH  10  11
ENDBRANCH   7  10
ENDBRANCH   4   7
BRANCH   6  16
ATOM     16  O   UNL     1      -2.660  -3.966   0.793  0.00  0.00    +0.000 OA
ATOM     17  H   UNL     1      -3.603  -3.686   0.660  0.00  0.00    +0.000 HD
ENDBRANCH   6  16
BRANCH   1  18
ATOM     18  C   UNL     1      -0.749  -5.502  -0.849  0.00  0.00    +0.000 C 
BRANCH  18  20
ATOM     19  C   UNL     1      -1.493  -7.593  -0.233  0.00  0.00    +0.000 C 
ATOM     20  O   UNL     1      -1.302  -6.266   0.203  0.00  0.00    +0.000 OA
ENDBRANCH  18  20
ENDBRANCH   1  18
BRANCH   3  21
ATOM     21  O   UNL     1       1.458  -1.507  -1.903  0.00  0.00    +0.000 OA
BRANCH  21  22
ATOM     22  C   UNL     1       2.735  -2.121  -1.868  0.00  0.00    +0.000 C 
BRANCH  22  23
ATOM     23  C   UNL     1       3.619  -1.598  -0.722  0.00  0.00    +0.000 C 
BRANCH  23  24
ATOM     24  C   UNL     1       3.532  -0.102  -0.562  0.00  0.00    +0.000 A 
ATOM     25  C   UNL     1       4.108   0.748  -1.521  0.00  0.00    +0.000 A 
ATOM     26  C   UNL     1       4.021   2.136  -1.375  0.00  0.00    +0.000 A 
ATOM     27  C   UNL     1       3.357   2.685  -0.275  0.00  0.00    +0.000 A 
ATOM     28  C   UNL     1       2.777   1.847   0.681  0.00  0.00    +0.000 A 
ATOM     29  C   UNL     1       2.867   0.459   0.543  0.00  0.00    +0.000 A 
ENDBRANCH  23  24
ENDBRANCH  22  23
ENDBRANCH  21  22
ENDBRANCH   3  21
BRANCH   5  30
ATOM     30  O   UNL     1      -1.082  -1.784   1.487  0.00  0.00    +0.000 OA
BRANCH  30  31
ATOM     31  C   UNL     1      -2.022  -1.404   2.475  0.00  0.00    +0.000 C 
BRANCH  31  32
ATOM     32  C   UNL     1      -2.098   0.095   2.579  0.00  0.00    +0.000 A 
ATOM     33  C   UNL     1      -3.253   0.779   2.170  0.00  0.00    +0.000 A 
ATOM     34  C   UNL     1      -3.298   2.175   2.204  0.00  0.00    +0.000 A 
ATOM     35  C   UNL     1      -2.186   2.906   2.647  0.00  0.00    +0.000 A 
ATOM     36  C   UNL     1      -2.214   4.309   2.665  0.00  0.00    +0.000 A 
ATOM     37  C   UNL     1      -1.095   5.027   3.099  0.00  0.00    +0.000 A 
ATOM     38  C   UNL     1       0.054   4.352   3.518  0.00  0.00    +0.000 A 
ATOM     39  C   UNL     1       0.093   2.955   3.507  0.00  0.00    +0.000 A 
ATOM     40  C   UNL     1      -1.021   2.222   3.071  0.00  0.00    +0.000 A 
ATOM     41  C   UNL     1      -0.989   0.821   3.040  0.00  0.00    +0.000 A 
ENDBRANCH  31  32
ENDBRANCH  30  31
ENDBRANCH   5  30
TORSDOF 15
