REMARK  Name = ZINC000101073479
REMARK  9 active torsions:
REMARK  status: ('A' for Active; 'I' for Inactive)
REMARK    1  A    between atoms: C_1  and  O_2
REMARK    2  A    between atoms: O_2  and  C_3
REMARK    3  A    between atoms: C_6  and  C_7
REMARK    4  A    between atoms: N_8  and  C_9
REMARK    5  A    between atoms: C_10  and  O_11
REMARK    6  A    between atoms: C_12  and  O_13
REMARK    7  A    between atoms: C_14  and  C_15
REMARK    8  A    between atoms: C_15  and  O_16
REMARK    9  A    between atoms: C_18  and  O_19
REMARK                            x       y       z     vdW  Elec       q    Type
REMARK                         _______ _______ _______ _____ _____    ______ ____
ROOT
ATOM      1  C   UNL     1      -1.253   0.608  -0.475  0.00  0.00    +0.000 C 
ATOM      2  C   UNL     1       0.052   0.874  -1.259  0.00  0.00    +0.000 C 
ATOM      3  C   UNL     1       0.020   2.268  -1.922  0.00  0.00    +0.000 C 
ATOM      4  C   UNL     1      -1.411   2.592  -2.442  0.00  0.00    +0.000 C 
ATOM      5  O   UNL     1      -2.137   1.395  -2.659  0.00  0.00    +0.000 OA
ATOM      6  C   UNL     1      -2.480   0.783  -1.421  0.00  0.00    +0.000 C 
ENDROOT
BRANCH   1   8
ATOM      7  C   UNL     1      -0.870   1.430   1.847  0.00  0.00    +0.000 C 
ATOM      8  N   UNL     1      -1.381   1.542   0.653  0.00  0.00    +0.000 NA
BRANCH   7  12
ATOM      9  C   UNL     1       1.396  -1.921   3.273  0.00  0.00    +0.000 A 
ATOM     10  C   UNL     1       0.073  -2.095   2.849  0.00  0.00    +0.000 A 
ATOM     11  C   UNL     1      -0.671  -1.010   2.379  0.00  0.00    +0.000 A 
ATOM     12  C   UNL     1      -0.090   0.265   2.304  0.00  0.00    +0.000 A 
ATOM     13  C   UNL     1       1.221   0.451   2.761  0.00  0.00    +0.000 A 
ATOM     14  C   UNL     1       1.966  -0.635   3.231  0.00  0.00    +0.000 A 
BRANCH   9  16
ATOM     15  C   UNL     1       3.449  -3.012   4.192  0.00  0.00    +0.000 C 
ATOM     16  O   UNL     1       2.102  -3.043   3.733  0.00  0.00    +0.000 OA
ENDBRANCH   9  16
ENDBRANCH   7  12
ENDBRANCH   1   8
BRANCH   2  17
ATOM     17  O   UNL     1       1.181   0.754  -0.433  0.00  0.00    +0.000 OA
ATOM     18  H   UNL     1       1.316  -0.217  -0.271  0.00  0.00    +0.000 HD
ENDBRANCH   2  17
BRANCH   3  19
ATOM     19  O   UNL     1       0.421   3.243  -0.992  0.00  0.00    +0.000 OA
ATOM     20  H   UNL     1       0.765   4.016  -1.512  0.00  0.00    +0.000 HD
ENDBRANCH   3  19
BRANCH   6  21
ATOM     21  O   UNL     1      -3.031  -0.479  -1.688  0.00  0.00    +0.000 OA
ATOM     22  H   UNL     1      -3.874  -0.320  -2.189  0.00  0.00    +0.000 HD
ENDBRANCH   6  21
BRANCH   4  23
ATOM     23  C   UNL     1      -1.369   3.378  -3.758  0.00  0.00    +0.000 C 
BRANCH  23  24
ATOM     24  O   UNL     1      -0.760   4.623  -3.563  0.00  0.00    +0.000 OA
ATOM     25  H   UNL     1      -0.756   5.070  -4.449  0.00  0.00    +0.000 HD
ENDBRANCH  23  24
ENDBRANCH   4  23
TORSDOF 8
