REMARK  Name = ZINC000616582453
REMARK  14 active torsions:
REMARK  status: ('A' for Active; 'I' for Inactive)
REMARK    1  A    between atoms: O_2  and  C_3
REMARK    2  A    between atoms: C_3  and  C_45
REMARK    3  A    between atoms: N_4  and  C_5
REMARK    4  A    between atoms: C_7  and  O_9
REMARK    5  A    between atoms: C_11  and  O_13
REMARK    6  A    between atoms: C_15  and  C_17
REMARK    7  A    between atoms: C_17  and  O_20
REMARK    8  A    between atoms: C_23  and  O_25
REMARK    9  A    between atoms: O_25  and  C_26
REMARK   10  A    between atoms: C_26  and  C_29
REMARK   11  A    between atoms: C_29  and  C_32
REMARK   12  A    between atoms: C_32  and  C_35
REMARK   13  A    between atoms: C_35  and  C_38
REMARK   14  A    between atoms: C_38  and  C_41
REMARK                            x       y       z     vdW  Elec       q    Type
REMARK                         _______ _______ _______ _____ _____    ______ ____
ROOT
ATOM      1  C   UNL     1       1.065  -0.035   1.166  0.00  0.00    +0.000 C 
ATOM      2  C   UNL     1       2.119  -1.163   1.219  0.00  0.00    +0.000 C 
ATOM      3  C   UNL     1       1.749  -2.260   0.202  0.00  0.00    +0.000 C 
ATOM      4  C   UNL     1       1.474  -1.638  -1.191  0.00  0.00    +0.000 C 
ATOM      5  O   UNL     1       0.451  -0.661  -1.091  0.00  0.00    +0.000 OA
ATOM      6  C   UNL     1       0.868   0.432  -0.290  0.00  0.00    +0.000 C 
ENDROOT
BRANCH   1   8
ATOM      7  C   UNL     1       1.424   1.121   3.291  0.00  0.00    +0.000 C 
ATOM      8  N   UNL     1       1.474   1.103   1.992  0.00  0.00    +0.000 NA
ATOM      9  C   UNL     1       1.896   2.332   4.028  0.00  0.00    +0.000 C 
BRANCH   7  11
ATOM     10  H   UNL     1       0.934   0.013   5.012  0.00  0.00    +0.000 HD
ATOM     11  O   UNL     1       0.961   0.013   4.000  0.00  0.00    +0.000 OA
ENDBRANCH   7  11
ENDBRANCH   1   8
BRANCH   2  12
ATOM     12  O   UNL     1       3.397  -0.652   0.928  0.00  0.00    +0.000 OA
ATOM     13  H   UNL     1       3.770  -0.299   1.778  0.00  0.00    +0.000 HD
ENDBRANCH   2  12
BRANCH   3  14
ATOM     14  O   UNL     1       2.748  -3.251   0.150  0.00  0.00    +0.000 OA
ATOM     15  H   UNL     1       3.546  -2.857  -0.289  0.00  0.00    +0.000 HD
ENDBRANCH   3  14
BRANCH   4  16
ATOM     16  C   UNL     1       1.022  -2.715  -2.188  0.00  0.00    +0.000 C 
BRANCH  16  17
ATOM     17  O   UNL     1       0.806  -2.148  -3.453  0.00  0.00    +0.000 OA
ATOM     18  H   UNL     1      -0.107  -1.759  -3.440  0.00  0.00    +0.000 HD
ENDBRANCH  16  17
ENDBRANCH   4  16
BRANCH   6  19
ATOM     19  O   UNL     1      -0.159   1.411  -0.307  0.00  0.00    +0.000 OA
BRANCH  19  20
ATOM     20  C   UNL     1       0.104   2.442  -1.243  0.00  0.00    +0.000 C 
BRANCH  20  21
ATOM     21  C   UNL     1      -0.101   1.987  -2.697  0.00  0.00    +0.000 C 
BRANCH  21  22
ATOM     22  C   UNL     1      -1.517   1.447  -2.935  0.00  0.00    +0.000 C 
BRANCH  22  23
ATOM     23  C   UNL     1      -1.712   1.048  -4.403  0.00  0.00    +0.000 C 
BRANCH  23  24
ATOM     24  C   UNL     1      -3.109   0.460  -4.632  0.00  0.00    +0.000 C 
ATOM     25  C   UNL     1      -3.307   0.061  -6.091  0.00  0.00    +0.000 C 
ENDBRANCH  23  24
ENDBRANCH  22  23
ENDBRANCH  21  22
ENDBRANCH  20  21
ENDBRANCH  19  20
ENDBRANCH   6  19
TORSDOF 12
