REMARK  Name = ZINC000257347638
REMARK  8 active torsions:
REMARK  status: ('A' for Active; 'I' for Inactive)
REMARK    1  A    between atoms: C_1  and  O_2
REMARK    2  A    between atoms: O_2  and  C_3
REMARK    3  A    between atoms: C_8  and  C_9
REMARK    4  A    between atoms: C_17  and  O_18
REMARK    5  A    between atoms: O_18  and  S_19
REMARK    6  A    between atoms: S_19  and  C_20
REMARK    7  A    between atoms: C_23  and  N_24
REMARK    8  A    between atoms: C_25  and  C_27
REMARK                            x       y       z     vdW  Elec       q    Type
REMARK                         _______ _______ _______ _____ _____    ______ ____
ROOT
ATOM      1  C   UNL     1       1.256   0.978  -2.619  0.00  0.00    +0.000 C 
ATOM      2  O   UNL     1       2.024   1.822  -1.771  0.00  0.00    +0.000 OA
ATOM      3  C   UNL     1       1.300   2.113  -0.589  0.00  0.00    +0.000 C 
ATOM      4  C   UNL     1       2.055   3.141   0.274  0.00  0.00    +0.000 C 
ATOM      5  O   UNL     1       2.318   2.640   1.572  0.00  0.00    +0.000 OA
ATOM      6  C   UNL     1       1.108   2.192   2.175  0.00  0.00    +0.000 C 
ATOM      7  O   UNL     1       0.455   1.141   1.456  0.00  0.00    +0.000 OA
ATOM      8  C   UNL     1       1.115   0.835   0.244  0.00  0.00    +0.000 C 
ATOM      9  C   UNL     1       0.322  -0.203  -0.565  0.00  0.00    +0.000 C 
ATOM     10  C   UNL     1       1.009  -0.392  -1.937  0.00  0.00    +0.000 C 
ENDROOT
BRANCH   6  11
ATOM     11  C   UNL     1       1.412   1.753   3.590  0.00  0.00    +0.000 A 
ATOM     12  C   UNL     1       1.453   0.386   3.950  0.00  0.00    +0.000 A 
ATOM     13  C   UNL     1       1.736   0.017   5.268  0.00  0.00    +0.000 A 
ATOM     14  C   UNL     1       2.002   1.000   6.231  0.00  0.00    +0.000 A 
ATOM     15  C   UNL     1       1.992   2.354   5.877  0.00  0.00    +0.000 A 
ATOM     16  C   UNL     1       1.702   2.729   4.562  0.00  0.00    +0.000 A 
ENDBRANCH   6  11
BRANCH  10  17
ATOM     17  N   UNL     1       0.198  -1.262  -2.796  0.00  0.00    +0.000 N 
ATOM     18  C   UNL     1       0.131  -2.684  -2.594  0.00  0.00    +0.000 C 
ATOM     19  O   UNL     1       0.933  -3.239  -1.793  0.00  0.00    +0.000 OA
ATOM     20  H   UNL     1      -0.298  -0.843  -3.616  0.00  0.00    +0.000 HD
BRANCH  18  21
ATOM     21  C   UNL     1      -0.854  -3.513  -3.327  0.00  0.00    +0.000 A 
ATOM     22  C   UNL     1      -0.610  -4.885  -3.525  0.00  0.00    +0.000 A 
ATOM     23  C   UNL     1      -1.534  -5.677  -4.215  0.00  0.00    +0.000 A 
ATOM     24  C   UNL     1      -2.712  -5.112  -4.707  0.00  0.00    +0.000 A 
ATOM     25  C   UNL     1      -2.974  -3.755  -4.503  0.00  0.00    +0.000 A 
ATOM     26  C   UNL     1      -2.054  -2.958  -3.813  0.00  0.00    +0.000 A 
ENDBRANCH  18  21
ENDBRANCH  10  17
BRANCH   1  28
ATOM     27  C   UNL     1       1.894   1.884  -4.655  0.00  0.00    +0.000 C 
ATOM     28  O   UNL     1       1.976   0.751  -3.816  0.00  0.00    +0.000 OA
ENDBRANCH   1  28
BRANCH   9  29
ATOM     29  O   UNL     1      -1.006   0.251  -0.761  0.00  0.00    +0.000 OA
BRANCH  29  30
ATOM     30  S   UNL     1      -2.101  -0.718   0.100  0.00  0.00    +0.000 S 
ATOM     31  C   UNL     1      -3.745  -0.102  -0.180  0.00  0.00    +0.000 C 
ATOM     32  O   UNL     1      -1.803  -0.661   1.575  0.00  0.00    +0.000 OA
ATOM     33  O   UNL     1      -2.029  -2.144  -0.377  0.00  0.00    +0.000 OA
ENDBRANCH  29  30
ENDBRANCH   9  29
TORSDOF 6
