REMARK  Name = ZINC000394934764
REMARK  7 active torsions:
REMARK  status: ('A' for Active; 'I' for Inactive)
REMARK    1  A    between atoms: O_2  and  C_3
REMARK    2  A    between atoms: C_3  and  C_6
REMARK    3  A    between atoms: C_9  and  O_11
REMARK    4  A    between atoms: O_11  and  C_12
REMARK    5  A    between atoms: C_16  and  N_18
REMARK    6  A    between atoms: C_21  and  O_23
REMARK    7  A    between atoms: C_25  and  O_27
REMARK                            x       y       z     vdW  Elec       q    Type
REMARK                         _______ _______ _______ _____ _____    ______ ____
ROOT
ATOM      1  C   UNL     1       1.361  -1.539   1.545  0.00  0.00    +0.000 C 
ATOM      2  O   UNL     1       0.914  -0.814   0.405  0.00  0.00    +0.000 OA
ATOM      3  C   UNL     1      -0.465  -0.996   0.128  0.00  0.00    +0.000 C 
ATOM      4  C   UNL     1      -1.326  -0.447   1.282  0.00  0.00    +0.000 C 
ATOM      5  C   UNL     1      -0.972  -1.193   2.587  0.00  0.00    +0.000 C 
ATOM      6  C   UNL     1       0.551  -1.218   2.836  0.00  0.00    +0.000 C 
ENDROOT
BRANCH   4   7
ATOM      7  N   UNL     1      -1.124   0.997   1.403  0.00  0.00    +0.000 NA
ATOM      8  N   UNL     1      -1.870   1.695   2.090  0.00  0.00    +0.000 NA
ATOM      9  N   UNL     1      -2.615   2.393   2.776  0.00  0.00    +0.000 NA
ENDBRANCH   4   7
BRANCH   3  10
ATOM     10  O   UNL     1      -0.761  -0.274  -1.057  0.00  0.00    +0.000 OA
ATOM     11  C   UNL     1      -1.709  -0.959  -1.848  0.00  0.00    +0.000 C 
ENDBRANCH   3  10
BRANCH   5  12
ATOM     12  O   UNL     1      -1.629  -0.627   3.693  0.00  0.00    +0.000 OA
ATOM     13  H   UNL     1      -2.592  -0.849   3.599  0.00  0.00    +0.000 HD
ENDBRANCH   5  12
BRANCH   6  14
ATOM     14  O   UNL     1       0.983  -0.010   3.418  0.00  0.00    +0.000 OA
ATOM     15  H   UNL     1       1.040   0.676   2.705  0.00  0.00    +0.000 HD
ENDBRANCH   6  14
BRANCH   1  16
ATOM     16  C   UNL     1       1.553  -3.047   1.262  0.00  0.00    +0.000 C 
BRANCH  16  18
ATOM     17  H   UNL     1       0.575  -4.707   1.176  0.00  0.00    +0.000 HD
ATOM     18  O   UNL     1       0.357  -3.764   1.394  0.00  0.00    +0.000 OA
ENDBRANCH  16  18
ENDBRANCH   1  16
TORSDOF 6
