REMARK  Name = ZINC000257346145
REMARK  6 active torsions:
REMARK  status: ('A' for Active; 'I' for Inactive)
REMARK    1  A    between atoms: O_2  and  C_3
REMARK    2  A    between atoms: N_5  and  C_6
REMARK    3  A    between atoms: C_8  and  O_10
REMARK    4  A    between atoms: C_15  and  C_17
REMARK    5  A    between atoms: C_35  and  O_37
REMARK    6  A    between atoms: O_37  and  C_38
REMARK                            x       y       z     vdW  Elec       q    Type
REMARK                         _______ _______ _______ _____ _____    ______ ____
ROOT
ATOM      1  C   UNL     1       0.369   1.325   1.848  0.00  0.00    +0.000 C 
ATOM      2  C   UNL     1       0.209   0.111   0.903  0.00  0.00    +0.000 C 
ATOM      3  C   UNL     1      -1.009  -0.713   1.342  0.00  0.00    +0.000 C 
ATOM      4  O   UNL     1      -1.250  -1.762   0.420  0.00  0.00    +0.000 OA
ATOM      5  C   UNL     1      -2.533  -2.363   0.597  0.00  0.00    +0.000 C 
ATOM      6  O   UNL     1      -3.141  -2.041   1.841  0.00  0.00    +0.000 OA
ATOM      7  C   UNL     1      -3.437  -0.657   1.895  0.00  0.00    +0.000 C 
ATOM      8  C   UNL     1      -2.236   0.207   1.469  0.00  0.00    +0.000 C 
ATOM      9  O   UNL     1      -1.993   1.224   2.425  0.00  0.00    +0.000 OA
ATOM     10  C   UNL     1      -0.965   2.094   1.969  0.00  0.00    +0.000 C 
ENDROOT
BRANCH   5  11
ATOM     11  C   UNL     1      -2.374  -3.858   0.518  0.00  0.00    +0.000 A 
ATOM     12  C   UNL     1      -3.077  -4.607  -0.442  0.00  0.00    +0.000 A 
ATOM     13  C   UNL     1      -2.927  -5.997  -0.500  0.00  0.00    +0.000 A 
ATOM     14  C   UNL     1      -2.079  -6.648   0.400  0.00  0.00    +0.000 A 
ATOM     15  C   UNL     1      -1.380  -5.912   1.360  0.00  0.00    +0.000 A 
ATOM     16  C   UNL     1      -1.527  -4.523   1.421  0.00  0.00    +0.000 A 
ENDBRANCH   5  11
BRANCH   1  18
ATOM     17  C   UNL     1       2.677   1.933   1.411  0.00  0.00    +0.000 C 
ATOM     18  N   UNL     1       1.415   2.228   1.366  0.00  0.00    +0.000 NA
BRANCH  17  20
ATOM     19  H   UNL     1       3.343   3.728   0.544  0.00  0.00    +0.000 HD
ATOM     20  O   UNL     1       3.622   2.834   0.933  0.00  0.00    +0.000 OA
ENDBRANCH  17  20
ENDBRANCH   1  18
BRANCH   2  21
ATOM     21  O   UNL     1       0.037   0.536  -0.427  0.00  0.00    +0.000 OA
ATOM     22  H   UNL     1       0.943   0.680  -0.805  0.00  0.00    +0.000 HD
ENDBRANCH   2  21
BRANCH  10  23
ATOM     23  O   UNL     1      -0.792   3.136   2.910  0.00  0.00    +0.000 OA
ATOM     24  C   UNL     1      -1.842   4.072   2.797  0.00  0.00    +0.000 C 
ENDBRANCH  10  23
TORSDOF 5
