REMARK  Name = ZINC000575124622
REMARK  7 active torsions:
REMARK  status: ('A' for Active; 'I' for Inactive)
REMARK    1  A    between atoms: O_2  and  C_3
REMARK    2  A    between atoms: C_3  and  C_41
REMARK    3  A    between atoms: N_4  and  C_5
REMARK    4  A    between atoms: C_7  and  O_9
REMARK    5  A    between atoms: C_14  and  C_16
REMARK    6  A    between atoms: C_34  and  O_36
REMARK    7  A    between atoms: O_36  and  C_37
REMARK                            x       y       z     vdW  Elec       q    Type
REMARK                         _______ _______ _______ _____ _____    ______ ____
ROOT
ATOM      1  C   UNL     1       1.264   0.678  -2.478  0.00  0.00    +0.000 C 
ATOM      2  C   UNL     1       0.159  -0.092  -1.722  0.00  0.00    +0.000 C 
ATOM      3  C   UNL     1       0.485  -0.102  -0.220  0.00  0.00    +0.000 C 
ATOM      4  O   UNL     1      -0.570  -0.701   0.511  0.00  0.00    +0.000 OA
ATOM      5  C   UNL     1      -0.469  -0.463   1.915  0.00  0.00    +0.000 C 
ATOM      6  O   UNL     1       0.811   0.008   2.318  0.00  0.00    +0.000 OA
ATOM      7  C   UNL     1       1.054   1.290   1.767  0.00  0.00    +0.000 C 
ATOM      8  C   UNL     1       0.748   1.336   0.259  0.00  0.00    +0.000 C 
ATOM      9  O   UNL     1       1.838   1.899  -0.450  0.00  0.00    +0.000 OA
ATOM     10  C   UNL     1       1.504   2.057  -1.823  0.00  0.00    +0.000 C 
ENDROOT
BRANCH   5  11
ATOM     11  C   UNL     1      -0.750  -1.752   2.640  0.00  0.00    +0.000 A 
ATOM     12  C   UNL     1      -1.802  -1.842   3.568  0.00  0.00    +0.000 A 
ATOM     13  C   UNL     1      -2.049  -3.044   4.240  0.00  0.00    +0.000 A 
ATOM     14  C   UNL     1      -1.248  -4.162   3.993  0.00  0.00    +0.000 A 
ATOM     15  C   UNL     1      -0.198  -4.081   3.074  0.00  0.00    +0.000 A 
ATOM     16  C   UNL     1       0.052  -2.881   2.401  0.00  0.00    +0.000 A 
ENDBRANCH   5  11
BRANCH   1  18
ATOM     17  C   UNL     1       0.925  -0.076  -4.780  0.00  0.00    +0.000 C 
ATOM     18  N   UNL     1       0.894   0.864  -3.884  0.00  0.00    +0.000 NA
ATOM     19  C   UNL     1       0.528   0.235  -6.187  0.00  0.00    +0.000 C 
BRANCH  17  21
ATOM     20  H   UNL     1       1.397  -2.095  -5.146  0.00  0.00    +0.000 HD
ATOM     21  O   UNL     1       1.356  -1.360  -4.450  0.00  0.00    +0.000 OA
ENDBRANCH  17  21
ENDBRANCH   1  18
BRANCH   2  22
ATOM     22  O   UNL     1      -1.089   0.515  -1.951  0.00  0.00    +0.000 OA
ATOM     23  H   UNL     1      -1.782  -0.174  -1.778  0.00  0.00    +0.000 HD
ENDBRANCH   2  22
BRANCH  10  24
ATOM     24  O   UNL     1       2.584   2.682  -2.491  0.00  0.00    +0.000 OA
ATOM     25  C   UNL     1       2.614   4.059  -2.185  0.00  0.00    +0.000 C 
ENDBRANCH  10  24
TORSDOF 5
