REMARK  Name = 49859685
REMARK  9 active torsions:
REMARK  status: ('A' for Active; 'I' for Inactive)
REMARK    1  A    between atoms: O_2  and  C_3
REMARK    2  A    between atoms: C_3  and  C_30
REMARK    3  A    between atoms: N_4  and  C_5
REMARK    4  A    between atoms: C_7  and  O_9
REMARK    5  A    between atoms: O_9  and  P_10
REMARK    6  A    between atoms: C_15  and  C_17
REMARK    7  A    between atoms: C_17  and  O_20
REMARK    8  A    between atoms: C_22  and  O_24
REMARK    9  A    between atoms: C_26  and  O_28
REMARK                            x       y       z     vdW  Elec       q    Type
REMARK                         _______ _______ _______ _____ _____    ______ ____
ROOT
ATOM      1  C   UNL     1      -0.266   0.018   1.646  0.00  0.00    +0.000 C 
ATOM      2  C   UNL     1       0.648   0.349   0.437  0.00  0.00    +0.000 C 
ATOM      3  O   UNL     1       0.542   1.727   0.110  0.00  0.00    +0.000 OA
ATOM      4  C   UNL     1      -0.721   2.054  -0.464  0.00  0.00    +0.000 C 
ATOM      5  C   UNL     1      -1.920   1.353   0.263  0.00  0.00    +0.000 C 
ATOM      6  C   UNL     1      -1.524   0.928   1.683  0.00  0.00    +0.000 C 
ENDROOT
BRANCH   1   8
ATOM      7  C   UNL     1      -1.117  -2.059   2.622  0.00  0.00    +0.000 C 
ATOM      8  N   UNL     1      -0.647  -1.397   1.607  0.00  0.00    +0.000 NA
ATOM      9  C   UNL     1      -1.466  -3.503   2.463  0.00  0.00    +0.000 C 
BRANCH   7  11
ATOM     10  H   UNL     1      -1.626  -1.952   4.662  0.00  0.00    +0.000 HD
ATOM     11  O   UNL     1      -1.272  -1.441   3.863  0.00  0.00    +0.000 OA
ENDBRANCH   7  11
ENDBRANCH   1   8
BRANCH   5  12
ATOM     12  O   UNL     1      -3.067   2.164   0.318  0.00  0.00    +0.000 OA
ATOM     13  H   UNL     1      -3.515   2.087  -0.565  0.00  0.00    +0.000 HD
ENDBRANCH   5  12
BRANCH   6  14
ATOM     14  O   UNL     1      -1.268   2.073   2.457  0.00  0.00    +0.000 OA
ATOM     15  H   UNL     1      -1.321   1.794   3.408  0.00  0.00    +0.000 HD
ENDBRANCH   6  14
BRANCH   2  16
ATOM     16  O   UNL     1       0.331  -0.471  -0.677  0.00  0.00    +0.000 OA
BRANCH  16  17
ATOM     17  P   UNL     1       1.651  -0.501  -1.760  0.00  0.00    +0.000 P 
ATOM     18  O   UNL     1       2.009   0.900  -2.201  0.00  0.00    +0.000 OA
ATOM     19  O   UNL     1       1.222  -1.412  -3.119  0.00  0.00    +0.000 OA
ATOM     20  O   UNL     1       2.992  -1.221  -1.020  0.00  0.00    +0.000 OA
ENDBRANCH  16  17
ENDBRANCH   2  16
BRANCH   4  21
ATOM     21  C   UNL     1      -0.835   3.588  -0.479  0.00  0.00    +0.000 C 
BRANCH  21  22
ATOM     22  O   UNL     1      -1.847   3.995  -1.359  0.00  0.00    +0.000 OA
ATOM     23  H   UNL     1      -1.881   4.985  -1.301  0.00  0.00    +0.000 HD
ENDBRANCH  21  22
ENDBRANCH   4  21
TORSDOF 8
