REMARK  Name = 51351654
REMARK  7 active torsions:
REMARK  status: ('A' for Active; 'I' for Inactive)
REMARK    1  A    between atoms: S_2  and  N_5
REMARK    2  A    between atoms: N_5  and  C_6
REMARK    3  A    between atoms: C_7  and  O_8
REMARK    4  A    between atoms: C_10  and  C_11
REMARK    5  A    between atoms: C_11  and  O_12
REMARK    6  A    between atoms: C_13  and  O_14
REMARK    7  A    between atoms: C_15  and  O_16
REMARK                            x       y       z     vdW  Elec       q    Type
REMARK                         _______ _______ _______ _____ _____    ______ ____
ROOT
ATOM      1  C   UNL     1      -1.090   0.350  -0.106  0.00  0.00    +0.000 C 
ATOM      2  C   UNL     1      -0.086   1.474   0.205  0.00  0.00    +0.000 C 
ATOM      3  O   UNL     1       1.157   1.210  -0.423  0.00  0.00    +0.000 OA
ATOM      4  C   UNL     1       1.764   0.056   0.136  0.00  0.00    +0.000 C 
ATOM      5  C   UNL     1       0.912  -1.197  -0.165  0.00  0.00    +0.000 C 
ATOM      6  C   UNL     1      -0.514  -0.998   0.383  0.00  0.00    +0.000 C 
ENDROOT
BRANCH   1   7
ATOM      7  N   UNL     1      -2.380   0.664   0.544  0.00  0.00    +0.000 NA
ATOM      8  H   UNL     1      -2.596  -0.005   1.318  0.00  0.00    +0.000 HD
BRANCH   7  10
ATOM      9  O   UNL     1      -4.990   0.831   0.139  0.00  0.00    +0.000 OA
ATOM     10  S   UNL     1      -3.697   0.591  -0.588  0.00  0.00    +0.000 S 
ATOM     11  O   UNL     1      -3.519   1.649  -1.641  0.00  0.00    +0.000 OA
ATOM     12  O   UNL     1      -3.748  -0.922  -1.319  0.00  0.00    +0.000 OA
ENDBRANCH   7  10
ENDBRANCH   1   7
BRANCH   2  13
ATOM     13  O   UNL     1      -0.592   2.685  -0.288  0.00  0.00    +0.000 OA
ATOM     14  H   UNL     1       0.028   3.395   0.024  0.00  0.00    +0.000 HD
ENDBRANCH   2  13
BRANCH   5  15
ATOM     15  O   UNL     1       1.499  -2.322   0.440  0.00  0.00    +0.000 OA
ATOM     16  H   UNL     1       1.203  -3.116  -0.077  0.00  0.00    +0.000 HD
ENDBRANCH   5  15
BRANCH   6  17
ATOM     17  O   UNL     1      -1.344  -2.044  -0.053  0.00  0.00    +0.000 OA
ATOM     18  H   UNL     1      -1.216  -2.799   0.579  0.00  0.00    +0.000 HD
ENDBRANCH   6  17
BRANCH   4  19
ATOM     19  C   UNL     1       3.172  -0.088  -0.460  0.00  0.00    +0.000 C 
BRANCH  19  20
ATOM     20  O   UNL     1       3.934   1.060  -0.199  0.00  0.00    +0.000 OA
ATOM     21  H   UNL     1       4.200   1.013   0.756  0.00  0.00    +0.000 HD
ENDBRANCH  19  20
ENDBRANCH   4  19
TORSDOF 7
