REMARK  Name = ZINC000257346145
REMARK  6 active torsions:
REMARK  status: ('A' for Active; 'I' for Inactive)
REMARK    1  A    between atoms: O_2  and  C_3
REMARK    2  A    between atoms: N_5  and  C_6
REMARK    3  A    between atoms: C_8  and  O_10
REMARK    4  A    between atoms: C_15  and  C_17
REMARK    5  A    between atoms: C_35  and  O_37
REMARK    6  A    between atoms: O_37  and  C_38
REMARK                            x       y       z     vdW  Elec       q    Type
REMARK                         _______ _______ _______ _____ _____    ______ ____
ROOT
ATOM      1  C   UNL     1      -0.896   1.855  -0.622  0.00  0.00    +0.000 C 
ATOM      2  C   UNL     1       0.623   1.909  -0.343  0.00  0.00    +0.000 C 
ATOM      3  C   UNL     1       1.169   0.479  -0.240  0.00  0.00    +0.000 C 
ATOM      4  O   UNL     1       2.577   0.495  -0.111  0.00  0.00    +0.000 OA
ATOM      5  C   UNL     1       3.104  -0.828  -0.028  0.00  0.00    +0.000 C 
ATOM      6  O   UNL     1       2.750  -1.629  -1.154  0.00  0.00    +0.000 OA
ATOM      7  C   UNL     1       1.348  -1.701  -1.332  0.00  0.00    +0.000 C 
ATOM      8  C   UNL     1       0.762  -0.306  -1.488  0.00  0.00    +0.000 C 
ATOM      9  O   UNL     1      -0.648  -0.373  -1.589  0.00  0.00    +0.000 OA
ATOM     10  C   UNL     1      -1.182   0.923  -1.830  0.00  0.00    +0.000 C 
ENDROOT
BRANCH   5  11
ATOM     11  C   UNL     1       2.836  -1.507   1.310  0.00  0.00    +0.000 A 
ATOM     12  C   UNL     1       2.854  -2.911   1.415  0.00  0.00    +0.000 A 
ATOM     13  C   UNL     1       2.665  -3.530   2.654  0.00  0.00    +0.000 A 
ATOM     14  C   UNL     1       2.485  -2.759   3.804  0.00  0.00    +0.000 A 
ATOM     15  C   UNL     1       2.505  -1.365   3.719  0.00  0.00    +0.000 A 
ATOM     16  C   UNL     1       2.694  -0.741   2.482  0.00  0.00    +0.000 A 
ENDBRANCH   5  11
BRANCH   1  18
ATOM     17  C   UNL     1      -2.598   3.657  -0.697  0.00  0.00    +0.000 C 
ATOM     18  N   UNL     1      -1.389   3.211  -0.883  0.00  0.00    +0.000 NA
BRANCH  17  20
ATOM     19  H   UNL     1      -3.512   1.915   0.122  0.00  0.00    +0.000 HD
ATOM     20  O   UNL     1      -3.628   2.875  -0.171  0.00  0.00    +0.000 OA
ENDBRANCH  17  20
ENDBRANCH   1  18
BRANCH   2  21
ATOM     21  O   UNL     1       1.295   2.599  -1.369  0.00  0.00    +0.000 OA
ATOM     22  H   UNL     1       1.254   3.566  -1.145  0.00  0.00    +0.000 HD
ENDBRANCH   2  21
BRANCH  10  23
ATOM     23  O   UNL     1      -2.581   0.816  -2.004  0.00  0.00    +0.000 OA
ATOM     24  C   UNL     1      -2.875   0.300  -3.285  0.00  0.00    +0.000 C 
ENDBRANCH  10  23
TORSDOF 5
