REMARK  Name = ZINC000196304985
REMARK  9 active torsions:
REMARK  status: ('A' for Active; 'I' for Inactive)
REMARK    1  A    between atoms: O_2  and  C_3
REMARK    2  A    between atoms: C_3  and  C_30
REMARK    3  A    between atoms: N_4  and  C_5
REMARK    4  A    between atoms: C_7  and  O_9
REMARK    5  A    between atoms: O_9  and  C_10
REMARK    6  A    between atoms: C_15  and  C_17
REMARK    7  A    between atoms: C_17  and  O_20
REMARK    8  A    between atoms: C_22  and  O_24
REMARK    9  A    between atoms: C_26  and  O_28
REMARK                            x       y       z     vdW  Elec       q    Type
REMARK                         _______ _______ _______ _____ _____    ______ ____
ROOT
ATOM      1  C   UNL     1       0.803   0.028   0.565  0.00  0.00    +0.000 C 
ATOM      2  C   UNL     1      -0.063   1.250   0.188  0.00  0.00    +0.000 C 
ATOM      3  O   UNL     1      -1.409   1.070   0.613  0.00  0.00    +0.000 OA
ATOM      4  C   UNL     1      -2.018  -0.044  -0.023  0.00  0.00    +0.000 C 
ATOM      5  C   UNL     1      -1.285  -1.358   0.355  0.00  0.00    +0.000 C 
ATOM      6  C   UNL     1       0.206  -1.267  -0.022  0.00  0.00    +0.000 C 
ENDROOT
BRANCH   1   8
ATOM      7  C   UNL     1       3.240  -0.391   0.490  0.00  0.00    +0.000 C 
ATOM      8  N   UNL     1       2.172   0.236   0.086  0.00  0.00    +0.000 NA
ATOM      9  C   UNL     1       4.552  -0.052  -0.133  0.00  0.00    +0.000 C 
BRANCH   7  11
ATOM     10  H   UNL     1       2.367  -1.608   2.006  0.00  0.00    +0.000 HD
ATOM     11  O   UNL     1       3.206  -1.352   1.504  0.00  0.00    +0.000 OA
ENDBRANCH   7  11
ENDBRANCH   1   8
BRANCH   2  12
ATOM     12  O   UNL     1       0.014   1.506  -1.207  0.00  0.00    +0.000 OA
ATOM     13  C   UNL     1      -0.465   2.802  -1.490  0.00  0.00    +0.000 C 
ENDBRANCH   2  12
BRANCH   5  14
ATOM     14  O   UNL     1      -1.885  -2.486  -0.236  0.00  0.00    +0.000 OA
ATOM     15  H   UNL     1      -1.977  -2.310  -1.208  0.00  0.00    +0.000 HD
ENDBRANCH   5  14
BRANCH   6  16
ATOM     16  O   UNL     1       0.367  -1.275  -1.420  0.00  0.00    +0.000 OA
ATOM     17  H   UNL     1       0.436  -2.225  -1.702  0.00  0.00    +0.000 HD
ENDBRANCH   6  16
BRANCH   4  18
ATOM     18  C   UNL     1      -3.495  -0.089   0.389  0.00  0.00    +0.000 C 
BRANCH  18  19
ATOM     19  O   UNL     1      -3.612  -0.206   1.781  0.00  0.00    +0.000 OA
ATOM     20  H   UNL     1      -4.585  -0.230   1.974  0.00  0.00    +0.000 HD
ENDBRANCH  18  19
ENDBRANCH   4  18
TORSDOF 7
