REMARK  Name = 52944903
REMARK  14 active torsions:
REMARK  status: ('A' for Active; 'I' for Inactive)
REMARK    1  A    between atoms: C_1  and  O_2
REMARK    2  A    between atoms: O_2  and  C_3
REMARK    3  A    between atoms: C_3  and  C_4
REMARK    4  A    between atoms: C_6  and  O_7
REMARK    5  A    between atoms: O_7  and  C_8
REMARK    6  A    between atoms: C_8  and  C_9
REMARK    7  A    between atoms: C_19  and  N_20
REMARK    8  A    between atoms: N_20  and  C_21
REMARK    9  A    between atoms: C_21  and  C_22
REMARK   10  A    between atoms: C_22  and  N_23
REMARK   11  A    between atoms: C_24  and  O_25
REMARK   12  A    between atoms: O_25  and  C_26
REMARK   13  A    between atoms: C_26  and  C_27
REMARK   14  A    between atoms: C_33  and  O_34
REMARK                            x       y       z     vdW  Elec       q    Type
REMARK                         _______ _______ _______ _____ _____    ______ ____
ROOT
ATOM      1  C   UNL     1       0.380   1.897   2.078  0.00  0.00    +0.000 C 
ATOM      2  O   UNL     1       1.127   2.092   0.892  0.00  0.00    +0.000 OA
ATOM      3  C   UNL     1       0.803   1.107  -0.073  0.00  0.00    +0.000 C 
ATOM      4  C   UNL     1       1.242  -0.302   0.417  0.00  0.00    +0.000 C 
ATOM      5  C   UNL     1       0.559  -0.603   1.781  0.00  0.00    +0.000 C 
ATOM      6  C   UNL     1       0.793   0.572   2.752  0.00  0.00    +0.000 C 
ENDROOT
BRANCH   4   7
ATOM      7  N   UNL     1       0.908  -1.349  -0.588  0.00  0.00    +0.000 N 
ATOM      8  H   UNL     1       0.683  -2.252  -0.114  0.00  0.00    +0.000 HD
ATOM      9  H   UNL     1       0.059  -1.072  -1.136  0.00  0.00    +0.000 HD
BRANCH   7  10
ATOM     10  C   UNL     1       2.025  -1.624  -1.510  0.00  0.00    +0.000 C 
BRANCH  10  11
ATOM     11  C   UNL     1       1.629  -2.682  -2.547  0.00  0.00    +0.000 C 
BRANCH  11  12
ATOM     12  N   UNL     1       2.720  -2.892  -3.493  0.00  0.00    +0.000 NA
ATOM     13  H   UNL     1       2.380  -3.554  -4.228  0.00  0.00    +0.000 HD
ATOM     14  H   UNL     1       3.497  -3.381  -2.991  0.00  0.00    +0.000 HD
ENDBRANCH  11  12
ENDBRANCH  10  11
ENDBRANCH   7  10
ENDBRANCH   4   7
BRANCH   6  15
ATOM     15  O   UNL     1       0.033   0.384   3.918  0.00  0.00    +0.000 OA
ATOM     16  H   UNL     1       0.634  -0.014   4.599  0.00  0.00    +0.000 HD
ENDBRANCH   6  15
BRANCH   1  17
ATOM     17  C   UNL     1       0.616   3.099   3.004  0.00  0.00    +0.000 C 
BRANCH  17  19
ATOM     18  C   UNL     1       2.190   4.306   4.174  0.00  0.00    +0.000 C 
ATOM     19  O   UNL     1       1.992   3.215   3.304  0.00  0.00    +0.000 OA
ENDBRANCH  17  19
ENDBRANCH   1  17
BRANCH   3  20
ATOM     20  O   UNL     1       1.504   1.421  -1.262  0.00  0.00    +0.000 OA
BRANCH  20  21
ATOM     21  C   UNL     1       0.734   2.246  -2.115  0.00  0.00    +0.000 C 
BRANCH  21  22
ATOM     22  C   UNL     1      -0.091   1.393  -3.041  0.00  0.00    +0.000 A 
ATOM     23  C   UNL     1       0.536   0.672  -4.069  0.00  0.00    +0.000 A 
ATOM     24  C   UNL     1      -0.205  -0.173  -4.897  0.00  0.00    +0.000 A 
ATOM     25  C   UNL     1      -1.586  -0.317  -4.702  0.00  0.00    +0.000 A 
ATOM     26  C   UNL     1      -2.340  -1.172  -5.521  0.00  0.00    +0.000 A 
ATOM     27  C   UNL     1      -3.715  -1.310  -5.314  0.00  0.00    +0.000 A 
ATOM     28  C   UNL     1      -4.347  -0.598  -4.290  0.00  0.00    +0.000 A 
ATOM     29  C   UNL     1      -3.608   0.256  -3.467  0.00  0.00    +0.000 A 
ATOM     30  C   UNL     1      -2.226   0.404  -3.665  0.00  0.00    +0.000 A 
ATOM     31  C   UNL     1      -1.473   1.254  -2.841  0.00  0.00    +0.000 A 
ENDBRANCH  21  22
ENDBRANCH  20  21
ENDBRANCH   3  20
BRANCH   5  32
ATOM     32  O   UNL     1       1.132  -1.777   2.345  0.00  0.00    +0.000 OA
BRANCH  32  33
ATOM     33  C   UNL     1       0.174  -2.803   2.546  0.00  0.00    +0.000 C 
BRANCH  33  34
ATOM     34  C   UNL     1      -0.527  -2.631   3.865  0.00  0.00    +0.000 A 
ATOM     35  C   UNL     1       0.162  -2.874   5.065  0.00  0.00    +0.000 A 
ATOM     36  C   UNL     1      -0.476  -2.680   6.294  0.00  0.00    +0.000 A 
ATOM     37  C   UNL     1      -1.802  -2.241   6.333  0.00  0.00    +0.000 A 
ATOM     38  C   UNL     1      -2.493  -1.994   5.144  0.00  0.00    +0.000 A 
ATOM     39  C   UNL     1      -1.859  -2.186   3.912  0.00  0.00    +0.000 A 
ENDBRANCH  33  34
ENDBRANCH  32  33
ENDBRANCH   5  32
TORSDOF 13
