REMARK  Name = ZINC000616583781
REMARK  12 active torsions:
REMARK  status: ('A' for Active; 'I' for Inactive)
REMARK    1  A    between atoms: O_2  and  C_3
REMARK    2  A    between atoms: C_3  and  C_39
REMARK    3  A    between atoms: N_4  and  C_5
REMARK    4  A    between atoms: C_7  and  O_9
REMARK    5  A    between atoms: C_11  and  O_13
REMARK    6  A    between atoms: C_15  and  C_17
REMARK    7  A    between atoms: C_17  and  O_20
REMARK    8  A    between atoms: C_23  and  O_25
REMARK    9  A    between atoms: O_25  and  C_26
REMARK   10  A    between atoms: C_26  and  C_29
REMARK   11  A    between atoms: C_29  and  C_32
REMARK   12  A    between atoms: C_32  and  C_35
REMARK                            x       y       z     vdW  Elec       q    Type
REMARK                         _______ _______ _______ _____ _____    ______ ____
ROOT
ATOM      1  C   UNL     1       1.188  -0.199  -0.093  0.00  0.00    +0.000 C 
ATOM      2  C   UNL     1       2.163  -1.318   0.323  0.00  0.00    +0.000 C 
ATOM      3  C   UNL     1       1.533  -2.171   1.440  0.00  0.00    +0.000 C 
ATOM      4  C   UNL     1       0.113  -2.620   1.024  0.00  0.00    +0.000 C 
ATOM      5  O   UNL     1      -0.689  -1.489   0.729  0.00  0.00    +0.000 OA
ATOM      6  C   UNL     1      -0.196  -0.804  -0.411  0.00  0.00    +0.000 C 
ENDROOT
BRANCH   1   8
ATOM      7  C   UNL     1       1.449   1.746  -1.562  0.00  0.00    +0.000 C 
ATOM      8  N   UNL     1       1.725   0.513  -1.256  0.00  0.00    +0.000 NA
ATOM      9  C   UNL     1       2.036   2.347  -2.799  0.00  0.00    +0.000 C 
BRANCH   7  11
ATOM     10  H   UNL     1       0.363   3.462  -1.003  0.00  0.00    +0.000 HD
ATOM     11  O   UNL     1       0.597   2.506  -0.761  0.00  0.00    +0.000 OA
ENDBRANCH   7  11
ENDBRANCH   1   8
BRANCH   2  12
ATOM     12  O   UNL     1       2.471  -2.139  -0.778  0.00  0.00    +0.000 OA
ATOM     13  H   UNL     1       3.224  -1.707  -1.262  0.00  0.00    +0.000 HD
ENDBRANCH   2  12
BRANCH   3  14
ATOM     14  O   UNL     1       2.337  -3.295   1.696  0.00  0.00    +0.000 OA
ATOM     15  H   UNL     1       3.130  -2.970   2.197  0.00  0.00    +0.000 HD
ENDBRANCH   3  14
BRANCH   4  16
ATOM     16  C   UNL     1      -0.560  -3.411   2.156  0.00  0.00    +0.000 C 
BRANCH  16  17
ATOM     17  O   UNL     1      -1.823  -3.866   1.749  0.00  0.00    +0.000 OA
ATOM     18  H   UNL     1      -2.452  -3.106   1.861  0.00  0.00    +0.000 HD
ENDBRANCH  16  17
ENDBRANCH   4  16
BRANCH   6  19
ATOM     19  O   UNL     1      -1.085   0.247  -0.733  0.00  0.00    +0.000 OA
BRANCH  19  20
ATOM     20  C   UNL     1      -2.250  -0.261  -1.349  0.00  0.00    +0.000 C 
BRANCH  20  21
ATOM     21  C   UNL     1      -3.257   0.874  -1.561  0.00  0.00    +0.000 C 
BRANCH  21  22
ATOM     22  C   UNL     1      -3.975   1.302  -0.270  0.00  0.00    +0.000 C 
ATOM     23  C   UNL     1      -3.060   2.027   0.716  0.00  0.00    +0.000 C 
ENDBRANCH  21  22
ENDBRANCH  20  21
ENDBRANCH  19  20
ENDBRANCH   6  19
TORSDOF 10
