REMARK  Name = 51351654
REMARK  7 active torsions:
REMARK  status: ('A' for Active; 'I' for Inactive)
REMARK    1  A    between atoms: S_2  and  N_5
REMARK    2  A    between atoms: N_5  and  C_6
REMARK    3  A    between atoms: C_7  and  O_8
REMARK    4  A    between atoms: C_10  and  C_11
REMARK    5  A    between atoms: C_11  and  O_12
REMARK    6  A    between atoms: C_13  and  O_14
REMARK    7  A    between atoms: C_15  and  O_16
REMARK                            x       y       z     vdW  Elec       q    Type
REMARK                         _______ _______ _______ _____ _____    ______ ____
ROOT
ATOM      1  C   UNL     1      -0.291   1.141  -0.514  0.00  0.00    +0.000 C 
ATOM      2  C   UNL     1      -0.142   1.323   1.011  0.00  0.00    +0.000 C 
ATOM      3  O   UNL     1       0.973   0.591   1.499  0.00  0.00    +0.000 OA
ATOM      4  C   UNL     1       0.821  -0.805   1.280  0.00  0.00    +0.000 C 
ATOM      5  C   UNL     1       0.781  -1.119  -0.236  0.00  0.00    +0.000 C 
ATOM      6  C   UNL     1      -0.377  -0.352  -0.900  0.00  0.00    +0.000 C 
ENDROOT
BRANCH   1   7
ATOM      7  N   UNL     1      -1.351   2.014  -1.073  0.00  0.00    +0.000 NA
ATOM      8  H   UNL     1      -1.079   2.278  -2.048  0.00  0.00    +0.000 HD
BRANCH   7  10
ATOM      9  O   UNL     1      -3.362   0.654   0.093  0.00  0.00    +0.000 OA
ATOM     10  S   UNL     1      -2.961   1.342  -1.180  0.00  0.00    +0.000 S 
ATOM     11  O   UNL     1      -3.928   2.462  -1.444  0.00  0.00    +0.000 OA
ATOM     12  O   UNL     1      -3.049   0.251  -2.454  0.00  0.00    +0.000 OA
ENDBRANCH   7  10
ENDBRANCH   1   7
BRANCH   2  13
ATOM     13  O   UNL     1      -1.312   0.972   1.701  0.00  0.00    +0.000 OA
ATOM     14  H   UNL     1      -1.166   1.226   2.649  0.00  0.00    +0.000 HD
ENDBRANCH   2  13
BRANCH   5  15
ATOM     15  O   UNL     1       0.587  -2.498  -0.440  0.00  0.00    +0.000 OA
ATOM     16  H   UNL     1       1.481  -2.901  -0.594  0.00  0.00    +0.000 HD
ENDBRANCH   5  15
BRANCH   6  17
ATOM     17  O   UNL     1      -0.287  -0.476  -2.296  0.00  0.00    +0.000 OA
ATOM     18  H   UNL     1      -0.646  -1.372  -2.530  0.00  0.00    +0.000 HD
ENDBRANCH   6  17
BRANCH   4  19
ATOM     19  C   UNL     1       1.993  -1.530   1.958  0.00  0.00    +0.000 C 
BRANCH  19  20
ATOM     20  O   UNL     1       2.000  -1.266   3.335  0.00  0.00    +0.000 OA
ATOM     21  H   UNL     1       2.455  -0.392   3.458  0.00  0.00    +0.000 HD
ENDBRANCH  19  20
ENDBRANCH   4  19
TORSDOF 7
