REMARK  Name = 46174147
REMARK  9 active torsions:
REMARK  status: ('A' for Active; 'I' for Inactive)
REMARK    1  A    between atoms: C_3  and  O_4
REMARK    2  A    between atoms: C_3  and  O_6
REMARK    3  A    between atoms: O_6  and  C_7
REMARK    4  A    between atoms: C_10  and  C_12
REMARK    5  A    between atoms: C_12  and  O_15
REMARK    6  A    between atoms: C_17  and  O_19
REMARK    7  A    between atoms: C_21  and  O_23
REMARK    8  A    between atoms: C_25  and  N_27
REMARK    9  A    between atoms: C_29  and  C_31
REMARK                            x       y       z     vdW  Elec       q    Type
REMARK                         _______ _______ _______ _____ _____    ______ ____
ROOT
ATOM      1  C   UNL     1      -0.844   0.838   0.498  0.00  0.00    +0.000 C 
ATOM      2  O   UNL     1      -1.294   0.523  -0.810  0.00  0.00    +0.000 OA
ATOM      3  C   UNL     1      -1.843  -0.787  -0.897  0.00  0.00    +0.000 C 
ATOM      4  C   UNL     1      -0.856  -1.893  -0.437  0.00  0.00    +0.000 C 
ATOM      5  C   UNL     1      -0.185  -1.559   0.918  0.00  0.00    +0.000 C 
ATOM      6  C   UNL     1       0.292  -0.097   0.960  0.00  0.00    +0.000 C 
ENDROOT
BRANCH   6   7
ATOM      7  N   UNL     1       1.492   0.072   0.133  0.00  0.00    +0.000 N 
ATOM      8  H   UNL     1       1.395   0.067  -0.907  0.00  0.00    +0.000 HD
ATOM      9  C   UNL     1       2.818   0.060   0.678  0.00  0.00    +0.000 C 
ATOM     10  O   UNL     1       3.002  -0.080   1.917  0.00  0.00    +0.000 OA
ATOM     11  C   UNL     1       3.996   0.180  -0.233  0.00  0.00    +0.000 C 
ENDBRANCH   6   7
BRANCH   4  12
ATOM     12  O   UNL     1       0.126  -2.064  -1.427  0.00  0.00    +0.000 OA
ATOM     13  H   UNL     1       0.556  -2.944  -1.261  0.00  0.00    +0.000 HD
ENDBRANCH   4  12
BRANCH   5  14
ATOM     14  O   UNL     1      -1.083  -1.783   1.974  0.00  0.00    +0.000 OA
ATOM     15  H   UNL     1      -1.151  -2.767   2.092  0.00  0.00    +0.000 HD
ENDBRANCH   5  14
BRANCH   1  16
ATOM     16  O   UNL     1      -0.434   2.209   0.578  0.00  0.00    +0.000 OA
BRANCH  16  19
ATOM     17  H   UNL     1       1.045   2.954  -2.288  0.00  0.00    +0.000 HD
ATOM     18  N   UNL     1       0.518   2.417  -1.565  0.00  0.00    +0.000 NA
ATOM     19  C   UNL     1       0.279   2.923  -0.398  0.00  0.00    +0.000 C 
BRANCH  19  20
ATOM     20  O   UNL     1       0.724   4.208  -0.106  0.00  0.00    +0.000 OA
ATOM     21  H   UNL     1       0.543   4.622   0.800  0.00  0.00    +0.000 HD
ENDBRANCH  19  20
ENDBRANCH  16  19
ENDBRANCH   1  16
BRANCH   3  22
ATOM     22  C   UNL     1      -3.237  -0.897  -0.240  0.00  0.00    +0.000 C 
BRANCH  22  23
ATOM     23  O   UNL     1      -4.087   0.107  -0.726  0.00  0.00    +0.000 OA
ATOM     24  H   UNL     1      -3.887   0.927  -0.204  0.00  0.00    +0.000 HD
ENDBRANCH  22  23
ENDBRANCH   3  22
TORSDOF 8
