REMARK  Name = 46174147
REMARK  9 active torsions:
REMARK  status: ('A' for Active; 'I' for Inactive)
REMARK    1  A    between atoms: O_2  and  C_3
REMARK    2  A    between atoms: C_3  and  C_31
REMARK    3  A    between atoms: N_4  and  C_5
REMARK    4  A    between atoms: C_7  and  O_9
REMARK    5  A    between atoms: O_9  and  C_10
REMARK    6  A    between atoms: C_16  and  C_18
REMARK    7  A    between atoms: C_18  and  O_21
REMARK    8  A    between atoms: C_23  and  O_25
REMARK    9  A    between atoms: C_27  and  O_29
REMARK                            x       y       z     vdW  Elec       q    Type
REMARK                         _______ _______ _______ _____ _____    ______ ____
ROOT
ATOM      1  C   UNL     1       0.372   0.211  -0.366  0.00  0.00    +0.000 C 
ATOM      2  C   UNL     1       0.499   1.046   0.926  0.00  0.00    +0.000 C 
ATOM      3  O   UNL     1       1.793   1.617   1.024  0.00  0.00    +0.000 OA
ATOM      4  C   UNL     1       2.803   0.624   1.126  0.00  0.00    +0.000 C 
ATOM      5  C   UNL     1       2.837  -0.257  -0.147  0.00  0.00    +0.000 C 
ATOM      6  C   UNL     1       1.450  -0.884  -0.385  0.00  0.00    +0.000 C 
ENDROOT
BRANCH   1   8
ATOM      7  C   UNL     1      -1.713  -0.515  -1.499  0.00  0.00    +0.000 C 
ATOM      8  N   UNL     1      -0.962  -0.393  -0.441  0.00  0.00    +0.000 NA
ATOM      9  C   UNL     1      -1.301   0.014  -2.846  0.00  0.00    +0.000 C 
BRANCH   7  11
ATOM     10  H   UNL     1      -3.582  -1.247  -2.144  0.00  0.00    +0.000 HD
ATOM     11  O   UNL     1      -2.952  -1.136  -1.359  0.00  0.00    +0.000 OA
ENDBRANCH   7  11
ENDBRANCH   1   8
BRANCH   5  12
ATOM     12  O   UNL     1       3.791  -1.278   0.006  0.00  0.00    +0.000 OA
ATOM     13  H   UNL     1       4.091  -1.533  -0.905  0.00  0.00    +0.000 HD
ENDBRANCH   5  12
BRANCH   6  14
ATOM     14  O   UNL     1       1.430  -1.540  -1.627  0.00  0.00    +0.000 OA
ATOM     15  H   UNL     1       1.804  -2.449  -1.482  0.00  0.00    +0.000 HD
ENDBRANCH   6  14
BRANCH   2  16
ATOM     16  O   UNL     1       0.203   0.272   2.097  0.00  0.00    +0.000 OA
BRANCH  16  17
ATOM     17  C   UNL     1      -1.087   0.077   2.604  0.00  0.00    +0.000 C 
ATOM     18  O   UNL     1      -2.081   0.649   2.082  0.00  0.00    +0.000 OA
ATOM     19  N   UNL     1      -1.274  -0.772   3.732  0.00  0.00    +0.000 N 
ATOM     20  H   UNL     1      -2.229  -0.927   4.126  0.00  0.00    +0.000 HD
ATOM     21  H   UNL     1      -0.456  -1.248   4.172  0.00  0.00    +0.000 HD
ENDBRANCH  16  17
ENDBRANCH   2  16
BRANCH   4  22
ATOM     22  C   UNL     1       4.144   1.340   1.343  0.00  0.00    +0.000 C 
BRANCH  22  23
ATOM     23  O   UNL     1       5.144   0.420   1.684  0.00  0.00    +0.000 OA
ATOM     24  H   UNL     1       5.978   0.947   1.793  0.00  0.00    +0.000 HD
ENDBRANCH  22  23
ENDBRANCH   4  22
TORSDOF 8
