REMARK  Name = 45934204
REMARK  11 active torsions:
REMARK  status: ('A' for Active; 'I' for Inactive)
REMARK    1  A    between atoms: O_2  and  C_3
REMARK    2  A    between atoms: C_3  and  C_35
REMARK    3  A    between atoms: N_4  and  C_5
REMARK    4  A    between atoms: C_7  and  O_9
REMARK    5  A    between atoms: C_12  and  C_14
REMARK    6  A    between atoms: C_14  and  O_17
REMARK    7  A    between atoms: C_19  and  O_21
REMARK    8  A    between atoms: C_23  and  O_25
REMARK    9  A    between atoms: O_25  and  C_26
REMARK   10  A    between atoms: C_26  and  C_28
REMARK   11  A    between atoms: C_26  and  C_31
REMARK                            x       y       z     vdW  Elec       q    Type
REMARK                         _______ _______ _______ _____ _____    ______ ____
ROOT
ATOM      1  C   UNL     1      -0.075   1.726   0.205  0.00  0.00    +0.000 C 
ATOM      2  C   UNL     1       0.912   2.868   0.528  0.00  0.00    +0.000 C 
ATOM      3  O   UNL     1       1.860   3.008  -0.517  0.00  0.00    +0.000 OA
ATOM      4  C   UNL     1       2.677   1.854  -0.610  0.00  0.00    +0.000 C 
ATOM      5  C   UNL     1       1.832   0.624  -1.017  0.00  0.00    +0.000 C 
ATOM      6  C   UNL     1       0.700   0.412   0.007  0.00  0.00    +0.000 C 
ENDROOT
BRANCH   1   8
ATOM      7  C   UNL     1      -2.144   2.210   1.428  0.00  0.00    +0.000 C 
ATOM      8  N   UNL     1      -1.031   1.551   1.301  0.00  0.00    +0.000 NA
ATOM      9  C   UNL     1      -3.037   1.924   2.591  0.00  0.00    +0.000 C 
BRANCH   7  11
ATOM     10  H   UNL     1      -3.406   3.650   0.551  0.00  0.00    +0.000 HD
ATOM     11  O   UNL     1      -2.531   3.146   0.469  0.00  0.00    +0.000 OA
ENDBRANCH   7  11
ENDBRANCH   1   8
BRANCH   2  12
ATOM     12  O   UNL     1       0.204   4.071   0.655  0.00  0.00    +0.000 OA
ATOM     13  H   UNL     1       0.857   4.749   0.971  0.00  0.00    +0.000 HD
ENDBRANCH   2  12
BRANCH   5  14
ATOM     14  O   UNL     1       2.652  -0.515  -1.063  0.00  0.00    +0.000 OA
ATOM     15  H   UNL     1       2.222  -1.156  -1.689  0.00  0.00    +0.000 HD
ENDBRANCH   5  14
BRANCH   4  16
ATOM     16  C   UNL     1       3.801   2.126  -1.623  0.00  0.00    +0.000 C 
BRANCH  16  17
ATOM     17  O   UNL     1       3.282   2.374  -2.903  0.00  0.00    +0.000 OA
ATOM     18  H   UNL     1       2.967   3.316  -2.908  0.00  0.00    +0.000 HD
ENDBRANCH  16  17
ENDBRANCH   4  16
BRANCH   6  19
ATOM     19  O   UNL     1      -0.202  -0.572  -0.480  0.00  0.00    +0.000 OA
BRANCH  19  20
ATOM     20  C   UNL     1      -0.054  -1.815   0.185  0.00  0.00    +0.000 C 
ATOM     21  C   UNL     1      -0.918  -1.848   1.449  0.00  0.00    +0.000 C 
BRANCH  20  22
ATOM     22  C   UNL     1      -0.487  -2.909  -0.744  0.00  0.00    +0.000 C 
ATOM     23  O   UNL     1      -1.547  -2.793  -1.416  0.00  0.00    +0.000 OA
ATOM     24  O   UNL     1       0.260  -4.077  -0.840  0.00  0.00    +0.000 OA
ENDBRANCH  20  22
ENDBRANCH  19  20
ENDBRANCH   6  19
TORSDOF 9
