REMARK  Name = 45266741
REMARK  6 active torsions:
REMARK  status: ('A' for Active; 'I' for Inactive)
REMARK    1  A    between atoms: N_1  and  C_2
REMARK    2  A    between atoms: C_3  and  O_4
REMARK    3  A    between atoms: C_6  and  C_7
REMARK    4  A    between atoms: C_7  and  O_8
REMARK    5  A    between atoms: C_9  and  O_10
REMARK    6  A    between atoms: C_11  and  O_12
REMARK                            x       y       z     vdW  Elec       q    Type
REMARK                         _______ _______ _______ _____ _____    ______ ____
ROOT
ATOM      1  C   UNL     1      -0.251   0.087  -0.353  0.00  0.00    +0.000 C 
ATOM      2  C   UNL     1      -0.436  -1.148   0.562  0.00  0.00    +0.000 C 
ATOM      3  O   UNL     1       0.798  -1.498   1.162  0.00  0.00    +0.000 OA
ATOM      4  C   UNL     1       1.726  -1.940   0.185  0.00  0.00    +0.000 C 
ATOM      5  C   UNL     1       2.096  -0.772  -0.758  0.00  0.00    +0.000 C 
ATOM      6  C   UNL     1       0.824  -0.214  -1.419  0.00  0.00    +0.000 C 
ENDROOT
BRANCH   1   7
ATOM      7  N   UNL     1      -1.521   0.463  -0.993  0.00  0.00    +0.000 N 
ATOM      8  H   UNL     1      -1.374   1.275  -1.634  0.00  0.00    +0.000 HD
ATOM      9  H   UNL     1      -2.215   0.754  -0.268  0.00  0.00    +0.000 HD
ATOM     10  H   UNL     1      -1.909  -0.340  -1.540  0.00  0.00    +0.000 HD
ENDBRANCH   1   7
BRANCH   2  11
ATOM     11  O   UNL     1      -1.342  -0.841   1.591  0.00  0.00    +0.000 OA
ATOM     12  H   UNL     1      -2.246  -1.107   1.278  0.00  0.00    +0.000 HD
ENDBRANCH   2  11
BRANCH   5  13
ATOM     13  O   UNL     1       2.973  -1.219  -1.762  0.00  0.00    +0.000 OA
ATOM     14  H   UNL     1       3.895  -1.004  -1.465  0.00  0.00    +0.000 HD
ENDBRANCH   5  13
BRANCH   6  15
ATOM     15  O   UNL     1       1.132   0.965  -2.119  0.00  0.00    +0.000 OA
ATOM     16  H   UNL     1       1.534   0.691  -2.984  0.00  0.00    +0.000 HD
ENDBRANCH   6  15
BRANCH   4  17
ATOM     17  C   UNL     1       2.970  -2.479   0.906  0.00  0.00    +0.000 C 
BRANCH  17  18
ATOM     18  O   UNL     1       2.625  -3.555   1.737  0.00  0.00    +0.000 OA
ATOM     19  H   UNL     1       2.286  -3.166   2.585  0.00  0.00    +0.000 HD
ENDBRANCH  17  18
ENDBRANCH   4  17
TORSDOF 6
