REMARK  Name = 45266822
REMARK  15 active torsions:
REMARK  status: ('A' for Active; 'I' for Inactive)
REMARK    1  A    between atoms: C_1  and  C_2
REMARK    2  A    between atoms: N_4  and  C_5
REMARK    3  A    between atoms: C_6  and  O_7
REMARK    4  A    between atoms: C_9  and  C_10
REMARK    5  A    between atoms: C_10  and  O_11
REMARK    6  A    between atoms: O_11  and  P_12
REMARK    7  A    between atoms: P_12  and  O_15
REMARK    8  A    between atoms: O_15  and  C_16
REMARK    9  A    between atoms: C_16  and  C_17
REMARK   10  A    between atoms: C_17  and  N_18
REMARK   11  A    between atoms: N_18  and  C_19
REMARK   12  A    between atoms: N_18  and  C_20
REMARK   13  A    between atoms: N_18  and  C_21
REMARK   14  A    between atoms: C_22  and  O_23
REMARK   15  A    between atoms: C_24  and  O_25
REMARK                            x       y       z     vdW  Elec       q    Type
REMARK                         _______ _______ _______ _____ _____    ______ ____
ROOT
ATOM      1  C   UNL     1       3.637   1.322   0.652  0.00  0.00    +0.000 C 
ATOM      2  C   UNL     1       2.762   0.272   1.367  0.00  0.00    +0.000 C 
ATOM      3  O   UNL     1       2.321  -0.715   0.448  0.00  0.00    +0.000 OA
ATOM      4  C   UNL     1       1.461  -0.141  -0.523  0.00  0.00    +0.000 C 
ATOM      5  C   UNL     1       2.244   0.859  -1.405  0.00  0.00    +0.000 C 
ATOM      6  C   UNL     1       2.849   1.957  -0.507  0.00  0.00    +0.000 C 
ENDROOT
BRANCH   1  10
ATOM      7  C   UNL     1       5.679   4.073   2.516  0.00  0.00    +0.000 C 
ATOM      8  C   UNL     1       5.356   2.958   1.576  0.00  0.00    +0.000 C 
ATOM      9  O   UNL     1       6.233   2.552   0.766  0.00  0.00    +0.000 OA
ATOM     10  N   UNL     1       4.052   2.360   1.601  0.00  0.00    +0.000 N 
ATOM     11  H   UNL     1       3.331   2.775   2.235  0.00  0.00    +0.000 HD
ENDBRANCH   1  10
BRANCH   2  12
ATOM     12  O   UNL     1       3.525  -0.349   2.366  0.00  0.00    +0.000 OA
ATOM     13  H   UNL     1       2.903  -0.937   2.870  0.00  0.00    +0.000 HD
ENDBRANCH   2  12
BRANCH   5  14
ATOM     14  O   UNL     1       3.264   0.184  -2.100  0.00  0.00    +0.000 OA
ATOM     15  H   UNL     1       3.470   0.723  -2.908  0.00  0.00    +0.000 HD
ENDBRANCH   5  14
BRANCH   6  16
ATOM     16  O   UNL     1       3.698   2.790  -1.254  0.00  0.00    +0.000 OA
ATOM     17  H   UNL     1       3.114   3.357  -1.822  0.00  0.00    +0.000 HD
ENDBRANCH   6  16
BRANCH   4  18
ATOM     18  C   UNL     1       0.840  -1.267  -1.358  0.00  0.00    +0.000 C 
BRANCH  18  19
ATOM     19  O   UNL     1      -0.081  -0.723  -2.276  0.00  0.00    +0.000 OA
BRANCH  19  20
ATOM     20  P   UNL     1      -0.779  -2.002  -3.164  0.00  0.00    +0.000 P 
ATOM     21  O   UNL     1       0.293  -2.725  -3.949  0.00  0.00    +0.000 OA
ATOM     22  O   UNL     1      -1.906  -1.365  -4.252  0.00  0.00    +0.000 OA
BRANCH  20  23
ATOM     23  O   UNL     1      -1.548  -3.110  -2.119  0.00  0.00    +0.000 OA
BRANCH  23  24
ATOM     24  C   UNL     1      -2.597  -2.443  -1.456  0.00  0.00    +0.000 C 
BRANCH  24  25
ATOM     25  C   UNL     1      -3.234  -3.416  -0.446  0.00  0.00    +0.000 C 
BRANCH  25  26
ATOM     26  N   UNL     1      -4.358  -2.855   0.366  0.00  0.00    +0.000 N 
ATOM     27  C   UNL     1      -5.480  -2.414  -0.498  0.00  0.00    +0.000 C 
ATOM     28  C   UNL     1      -4.855  -3.930   1.260  0.00  0.00    +0.000 C 
ATOM     29  C   UNL     1      -3.904  -1.723   1.209  0.00  0.00    +0.000 C 
ENDBRANCH  25  26
ENDBRANCH  24  25
ENDBRANCH  23  24
ENDBRANCH  20  23
ENDBRANCH  19  20
ENDBRANCH  18  19
ENDBRANCH   4  18
TORSDOF 11
