REMARK  Name = 44341508
REMARK  11 active torsions:
REMARK  status: ('A' for Active; 'I' for Inactive)
REMARK    1  A    between atoms: O_2  and  C_3
REMARK    2  A    between atoms: C_3  and  C_47
REMARK    3  A    between atoms: N_4  and  C_5
REMARK    4  A    between atoms: C_7  and  O_9
REMARK    5  A    between atoms: O_9  and  C_10
REMARK    6  A    between atoms: C_18  and  O_19
REMARK    7  A    between atoms: O_19  and  C_20
REMARK    8  A    between atoms: C_32  and  C_34
REMARK    9  A    between atoms: C_34  and  O_37
REMARK   10  A    between atoms: C_39  and  O_41
REMARK   11  A    between atoms: C_43  and  O_45
REMARK                            x       y       z     vdW  Elec       q    Type
REMARK                         _______ _______ _______ _____ _____    ______ ____
ROOT
ATOM      1  C   UNL     1      -2.862   0.796  -1.071  0.00  0.00    +0.000 C 
ATOM      2  C   UNL     1      -1.405   0.462  -0.701  0.00  0.00    +0.000 C 
ATOM      3  O   UNL     1      -0.511   1.175  -1.540  0.00  0.00    +0.000 OA
ATOM      4  C   UNL     1      -0.633   0.731  -2.881  0.00  0.00    +0.000 C 
ATOM      5  C   UNL     1      -2.028   1.094  -3.440  0.00  0.00    +0.000 C 
ATOM      6  C   UNL     1      -3.120   0.459  -2.558  0.00  0.00    +0.000 C 
ENDROOT
BRANCH   1   8
ATOM      7  C   UNL     1      -5.032   0.323  -0.049  0.00  0.00    +0.000 C 
ATOM      8  N   UNL     1      -3.771   0.049  -0.199  0.00  0.00    +0.000 NA
ATOM      9  C   UNL     1      -5.861  -0.509   0.876  0.00  0.00    +0.000 C 
BRANCH   7  11
ATOM     10  H   UNL     1      -6.586   1.637  -0.589  0.00  0.00    +0.000 HD
ATOM     11  O   UNL     1      -5.608   1.406  -0.713  0.00  0.00    +0.000 OA
ENDBRANCH   7  11
ENDBRANCH   1   8
BRANCH   5  12
ATOM     12  O   UNL     1      -2.184   2.491  -3.461  0.00  0.00    +0.000 OA
ATOM     13  H   UNL     1      -2.935   2.687  -4.079  0.00  0.00    +0.000 HD
ENDBRANCH   5  12
BRANCH   6  14
ATOM     14  O   UNL     1      -3.119  -0.934  -2.756  0.00  0.00    +0.000 OA
ATOM     15  H   UNL     1      -4.030  -1.260  -2.536  0.00  0.00    +0.000 HD
ENDBRANCH   6  14
BRANCH   2  16
ATOM     16  O   UNL     1      -1.173   0.847   0.653  0.00  0.00    +0.000 OA
BRANCH  16  17
ATOM     17  C   UNL     1       0.014   0.606   1.363  0.00  0.00    +0.000 A 
ATOM     18  C   UNL     1       0.101   1.071   2.680  0.00  0.00    +0.000 A 
ATOM     19  C   UNL     1       1.257   0.865   3.436  0.00  0.00    +0.000 A 
ATOM     20  C   UNL     1       2.351   0.184   2.881  0.00  0.00    +0.000 A 
ATOM     21  C   UNL     1       3.518  -0.027   3.633  0.00  0.00    +0.000 A 
ATOM     22  C   UNL     1       4.612  -0.712   3.069  0.00  0.00    +0.000 A 
ATOM     23  C   UNL     1       4.525  -1.179   1.752  0.00  0.00    +0.000 A 
ATOM     24  C   UNL     1       3.368  -0.973   0.997  0.00  0.00    +0.000 A 
ATOM     25  C   UNL     1       2.275  -0.292   1.552  0.00  0.00    +0.000 A 
ATOM     26  C   UNL     1       1.108  -0.081   0.801  0.00  0.00    +0.000 A 
BRANCH  22  27
ATOM     27  O   UNL     1       5.799  -0.948   3.779  0.00  0.00    +0.000 OA
ATOM     28  C   UNL     1       6.030  -0.531   5.121  0.00  0.00    +0.000 C 
ENDBRANCH  22  27
ENDBRANCH  16  17
ENDBRANCH   2  16
BRANCH   4  29
ATOM     29  C   UNL     1       0.485   1.364  -3.721  0.00  0.00    +0.000 C 
BRANCH  29  30
ATOM     30  O   UNL     1       1.741   0.985  -3.227  0.00  0.00    +0.000 OA
ATOM     31  H   UNL     1       1.891   0.048  -3.517  0.00  0.00    +0.000 HD
ENDBRANCH  29  30
ENDBRANCH   4  29
TORSDOF 9
