REMARK  Name = 44341508
REMARK  11 active torsions:
REMARK  status: ('A' for Active; 'I' for Inactive)
REMARK    1  A    between atoms: O_2  and  C_3
REMARK    2  A    between atoms: C_3  and  C_47
REMARK    3  A    between atoms: N_4  and  C_5
REMARK    4  A    between atoms: C_7  and  O_9
REMARK    5  A    between atoms: O_9  and  C_10
REMARK    6  A    between atoms: C_18  and  O_19
REMARK    7  A    between atoms: O_19  and  C_20
REMARK    8  A    between atoms: C_32  and  C_34
REMARK    9  A    between atoms: C_34  and  O_37
REMARK   10  A    between atoms: C_39  and  O_41
REMARK   11  A    between atoms: C_43  and  O_45
REMARK                            x       y       z     vdW  Elec       q    Type
REMARK                         _______ _______ _______ _____ _____    ______ ____
ROOT
ATOM      1  C   UNL     1      -2.930   0.752  -1.353  0.00  0.00    +0.000 C 
ATOM      2  C   UNL     1      -1.479   0.452  -0.915  0.00  0.00    +0.000 C 
ATOM      3  O   UNL     1      -0.565   1.198  -1.702  0.00  0.00    +0.000 OA
ATOM      4  C   UNL     1      -0.596   0.754  -3.047  0.00  0.00    +0.000 C 
ATOM      5  C   UNL     1      -1.973   1.063  -3.689  0.00  0.00    +0.000 C 
ATOM      6  C   UNL     1      -3.106   0.430  -2.851  0.00  0.00    +0.000 C 
ENDROOT
BRANCH   1   8
ATOM      7  C   UNL     1      -4.343   0.289   0.598  0.00  0.00    +0.000 C 
ATOM      8  N   UNL     1      -3.879  -0.045  -0.570  0.00  0.00    +0.000 NA
ATOM      9  C   UNL     1      -5.285  -0.630   1.307  0.00  0.00    +0.000 C 
BRANCH   7  11
ATOM     10  H   UNL     1      -4.309   1.746   2.116  0.00  0.00    +0.000 HD
ATOM     11  O   UNL     1      -3.961   1.487   1.201  0.00  0.00    +0.000 OA
ENDBRANCH   7  11
ENDBRANCH   1   8
BRANCH   5  12
ATOM     12  O   UNL     1      -2.184   2.446  -3.851  0.00  0.00    +0.000 OA
ATOM     13  H   UNL     1      -2.049   2.885  -2.972  0.00  0.00    +0.000 HD
ENDBRANCH   5  12
BRANCH   6  14
ATOM     14  O   UNL     1      -3.109  -0.965  -3.035  0.00  0.00    +0.000 OA
ATOM     15  H   UNL     1      -3.531  -1.138  -3.917  0.00  0.00    +0.000 HD
ENDBRANCH   6  14
BRANCH   2  16
ATOM     16  O   UNL     1      -1.314   0.825   0.452  0.00  0.00    +0.000 OA
BRANCH  16  17
ATOM     17  C   UNL     1      -0.159   0.592   1.215  0.00  0.00    +0.000 A 
ATOM     18  C   UNL     1      -0.147   1.031   2.544  0.00  0.00    +0.000 A 
ATOM     19  C   UNL     1       0.974   0.830   3.352  0.00  0.00    +0.000 A 
ATOM     20  C   UNL     1       2.106   0.181   2.840  0.00  0.00    +0.000 A 
ATOM     21  C   UNL     1       3.238  -0.024   3.644  0.00  0.00    +0.000 A 
ATOM     22  C   UNL     1       4.373  -0.675   3.122  0.00  0.00    +0.000 A 
ATOM     23  C   UNL     1       4.360  -1.116   1.794  0.00  0.00    +0.000 A 
ATOM     24  C   UNL     1       3.238  -0.918   0.986  0.00  0.00    +0.000 A 
ATOM     25  C   UNL     1       2.106  -0.270   1.499  0.00  0.00    +0.000 A 
ATOM     26  C   UNL     1       0.974  -0.064   0.695  0.00  0.00    +0.000 A 
BRANCH  22  27
ATOM     27  O   UNL     1       5.528  -0.901   3.885  0.00  0.00    +0.000 OA
ATOM     28  C   UNL     1       5.682  -0.513   5.247  0.00  0.00    +0.000 C 
ENDBRANCH  22  27
ENDBRANCH  16  17
ENDBRANCH   2  16
BRANCH   4  29
ATOM     29  C   UNL     1       0.545   1.426  -3.824  0.00  0.00    +0.000 C 
BRANCH  29  30
ATOM     30  O   UNL     1       1.784   1.085  -3.262  0.00  0.00    +0.000 OA
ATOM     31  H   UNL     1       1.980   0.155  -3.549  0.00  0.00    +0.000 HD
ENDBRANCH  29  30
ENDBRANCH   4  29
TORSDOF 9
