REMARK  Name = 44630437
REMARK  9 active torsions:
REMARK  status: ('A' for Active; 'I' for Inactive)
REMARK    1  A    between atoms: O_2  and  C_3
REMARK    2  A    between atoms: C_3  and  C_27
REMARK    3  A    between atoms: N_4  and  C_5
REMARK    4  A    between atoms: C_7  and  O_9
REMARK    5  A    between atoms: C_12  and  C_14
REMARK    6  A    between atoms: C_14  and  O_17
REMARK    7  A    between atoms: C_19  and  O_21
REMARK    8  A    between atoms: C_23  and  O_25
REMARK    9  A    between atoms: C_27  and  C_30
REMARK                            x       y       z     vdW  Elec       q    Type
REMARK                         _______ _______ _______ _____ _____    ______ ____
ROOT
ATOM      1  C   UNL     1       0.139   0.046   0.507  0.00  0.00    +0.000 C 
ATOM      2  C   UNL     1       1.244   1.118   0.406  0.00  0.00    +0.000 C 
ATOM      3  O   UNL     1       1.863   1.305   1.665  0.00  0.00    +0.000 OA
ATOM      4  C   UNL     1       0.946   1.847   2.600  0.00  0.00    +0.000 C 
ATOM      5  C   UNL     1      -0.194   0.838   2.884  0.00  0.00    +0.000 C 
ATOM      6  C   UNL     1      -0.897   0.470   1.566  0.00  0.00    +0.000 C 
ENDROOT
BRANCH   1   8
ATOM      7  C   UNL     1      -1.115  -1.180  -1.205  0.00  0.00    +0.000 C 
ATOM      8  N   UNL     1      -0.508  -0.104  -0.799  0.00  0.00    +0.000 NA
BRANCH   7  10
ATOM      9  H   UNL     1      -1.612  -3.168  -0.717  0.00  0.00    +0.000 HD
ATOM     10  O   UNL     1      -1.159  -2.319  -0.401  0.00  0.00    +0.000 OA
ENDBRANCH   7  10
BRANCH   7  11
ATOM     11  C   UNL     1      -1.731  -1.205  -2.571  0.00  0.00    +0.000 C 
ATOM     12  C   UNL     1      -0.741  -1.747  -3.595  0.00  0.00    +0.000 C 
ENDBRANCH   7  11
ENDBRANCH   1   8
BRANCH   2  13
ATOM     13  O   UNL     1       2.227   0.692  -0.502  0.00  0.00    +0.000 OA
ATOM     14  H   UNL     1       1.896   0.904  -1.414  0.00  0.00    +0.000 HD
ENDBRANCH   2  13
BRANCH   5  15
ATOM     15  O   UNL     1      -1.135   1.404   3.762  0.00  0.00    +0.000 OA
ATOM     16  H   UNL     1      -0.878   1.130   4.681  0.00  0.00    +0.000 HD
ENDBRANCH   5  15
BRANCH   6  17
ATOM     17  O   UNL     1      -1.801  -0.582   1.790  0.00  0.00    +0.000 OA
ATOM     18  H   UNL     1      -2.620  -0.181   2.181  0.00  0.00    +0.000 HD
ENDBRANCH   6  17
BRANCH   4  19
ATOM     19  C   UNL     1       1.712   2.215   3.881  0.00  0.00    +0.000 C 
BRANCH  19  20
ATOM     20  O   UNL     1       2.264   1.077   4.490  0.00  0.00    +0.000 OA
ATOM     21  H   UNL     1       3.086   0.851   3.981  0.00  0.00    +0.000 HD
ENDBRANCH  19  20
ENDBRANCH   4  19
TORSDOF 8
