REMARK  Name = 44229083
REMARK  9 active torsions:
REMARK  status: ('A' for Active; 'I' for Inactive)
REMARK    1  A    between atoms: O_2  and  C_3
REMARK    2  A    between atoms: C_3  and  C_30
REMARK    3  A    between atoms: N_4  and  C_5
REMARK    4  A    between atoms: C_7  and  O_9
REMARK    5  A    between atoms: C_12  and  C_14
REMARK    6  A    between atoms: C_14  and  O_17
REMARK    7  A    between atoms: O_17  and  P_18
REMARK    8  A    between atoms: C_22  and  O_24
REMARK    9  A    between atoms: C_26  and  O_28
REMARK                            x       y       z     vdW  Elec       q    Type
REMARK                         _______ _______ _______ _____ _____    ______ ____
ROOT
ATOM      1  C   UNL     1       0.893  -0.297  -1.842  0.00  0.00    +0.000 C 
ATOM      2  C   UNL     1       0.637   1.187  -1.495  0.00  0.00    +0.000 C 
ATOM      3  O   UNL     1       1.077   1.480  -0.175  0.00  0.00    +0.000 OA
ATOM      4  C   UNL     1       0.380   0.707   0.792  0.00  0.00    +0.000 C 
ATOM      5  C   UNL     1       0.676  -0.805   0.612  0.00  0.00    +0.000 C 
ATOM      6  C   UNL     1       0.252  -1.238  -0.803  0.00  0.00    +0.000 C 
ENDROOT
BRANCH   1   8
ATOM      7  C   UNL     1      -0.666  -0.714  -3.748  0.00  0.00    +0.000 C 
ATOM      8  N   UNL     1       0.523  -0.626  -3.226  0.00  0.00    +0.000 NA
ATOM      9  C   UNL     1      -0.803  -1.074  -5.192  0.00  0.00    +0.000 C 
BRANCH   7  11
ATOM     10  H   UNL     1      -2.737  -0.601  -3.387  0.00  0.00    +0.000 HD
ATOM     11  O   UNL     1      -1.813  -0.515  -2.982  0.00  0.00    +0.000 OA
ENDBRANCH   7  11
ENDBRANCH   1   8
BRANCH   2  12
ATOM     12  O   UNL     1      -0.712   1.540  -1.662  0.00  0.00    +0.000 OA
ATOM     13  H   UNL     1      -0.763   2.523  -1.531  0.00  0.00    +0.000 HD
ENDBRANCH   2  12
BRANCH   5  14
ATOM     14  O   UNL     1       2.048  -1.063   0.793  0.00  0.00    +0.000 OA
ATOM     15  H   UNL     1       2.176  -1.303   1.748  0.00  0.00    +0.000 HD
ENDBRANCH   5  14
BRANCH   6  16
ATOM     16  O   UNL     1       0.656  -2.560  -1.052  0.00  0.00    +0.000 OA
ATOM     17  H   UNL     1       0.052  -3.147  -0.527  0.00  0.00    +0.000 HD
ENDBRANCH   6  16
BRANCH   4  18
ATOM     18  C   UNL     1       0.774   1.202   2.190  0.00  0.00    +0.000 C 
BRANCH  18  19
ATOM     19  O   UNL     1       0.054   0.489   3.169  0.00  0.00    +0.000 OA
BRANCH  19  20
ATOM     20  P   UNL     1       0.540   1.042   4.707  0.00  0.00    +0.000 P 
ATOM     21  O   UNL     1       0.198   2.507   4.866  0.00  0.00    +0.000 OA
ATOM     22  O   UNL     1      -0.276   0.154   5.891  0.00  0.00    +0.000 OA
ATOM     23  O   UNL     1       2.206   0.826   4.908  0.00  0.00    +0.000 OA
ENDBRANCH  19  20
ENDBRANCH  18  19
ENDBRANCH   4  18
TORSDOF 8
