REMARK  Name = 44630437
REMARK  9 active torsions:
REMARK  status: ('A' for Active; 'I' for Inactive)
REMARK    1  A    between atoms: O_2  and  C_3
REMARK    2  A    between atoms: C_3  and  N_10
REMARK    3  A    between atoms: C_4  and  C_6
REMARK    4  A    between atoms: N_10  and  C_12
REMARK    5  A    between atoms: C_14  and  O_16
REMARK    6  A    between atoms: C_19  and  C_21
REMARK    7  A    between atoms: C_21  and  O_24
REMARK    8  A    between atoms: C_26  and  O_28
REMARK    9  A    between atoms: C_30  and  O_32
REMARK                            x       y       z     vdW  Elec       q    Type
REMARK                         _______ _______ _______ _____ _____    ______ ____
ROOT
ATOM      1  C   UNL     1       0.290  -0.124  -0.460  0.00  0.00    +0.000 C 
ATOM      2  C   UNL     1      -0.178  -1.169   0.577  0.00  0.00    +0.000 C 
ATOM      3  O   UNL     1      -1.522  -1.555   0.338  0.00  0.00    +0.000 OA
ATOM      4  C   UNL     1      -2.419  -0.461   0.466  0.00  0.00    +0.000 C 
ATOM      5  C   UNL     1      -2.111   0.621  -0.598  0.00  0.00    +0.000 C 
ATOM      6  C   UNL     1      -0.657   1.092  -0.453  0.00  0.00    +0.000 C 
ENDROOT
BRANCH   1   7
ATOM      7  N   UNL     1       1.672   0.286  -0.184  0.00  0.00    +0.000 N 
ATOM      8  H   UNL     1       1.831   1.200   0.296  0.00  0.00    +0.000 HD
BRANCH   7   9
ATOM      9  C   UNL     1       2.791  -0.549  -0.536  0.00  0.00    +0.000 C 
ATOM     10  C   UNL     1       4.053  -0.211  -0.218  0.00  0.00    +0.000 C 
ATOM     11  C   UNL     1       4.416   1.038   0.524  0.00  0.00    +0.000 C 
BRANCH   9  13
ATOM     12  H   UNL     1       3.311  -2.364  -1.496  0.00  0.00    +0.000 HD
ATOM     13  O   UNL     1       2.558  -1.741  -1.226  0.00  0.00    +0.000 OA
ENDBRANCH   9  13
ENDBRANCH   7   9
ENDBRANCH   1   7
BRANCH   2  14
ATOM     14  O   UNL     1      -0.026  -0.697   1.895  0.00  0.00    +0.000 OA
ATOM     15  H   UNL     1       0.930  -0.810   2.137  0.00  0.00    +0.000 HD
ENDBRANCH   2  14
BRANCH   5  16
ATOM     16  O   UNL     1      -2.961   1.729  -0.432  0.00  0.00    +0.000 OA
ATOM     17  H   UNL     1      -3.696   1.637  -1.093  0.00  0.00    +0.000 HD
ENDBRANCH   5  16
BRANCH   6  18
ATOM     18  O   UNL     1      -0.346   1.950  -1.521  0.00  0.00    +0.000 OA
ATOM     19  H   UNL     1       0.401   2.530  -1.220  0.00  0.00    +0.000 HD
ENDBRANCH   6  18
BRANCH   4  20
ATOM     20  C   UNL     1      -3.847  -1.006   0.316  0.00  0.00    +0.000 C 
BRANCH  20  21
ATOM     21  O   UNL     1      -4.784  -0.042   0.712  0.00  0.00    +0.000 OA
ATOM     22  H   UNL     1      -5.677  -0.451   0.570  0.00  0.00    +0.000 HD
ENDBRANCH  20  21
ENDBRANCH   4  20
TORSDOF 8
