REMARK  Name = 24847493
REMARK  9 active torsions:
REMARK  status: ('A' for Active; 'I' for Inactive)
REMARK    1  A    between atoms: N_2  and  N_3
REMARK    2  A    between atoms: N_3  and  C_4
REMARK    3  A    between atoms: C_4  and  C_5
REMARK    4  A    between atoms: N_9  and  C_10
REMARK    5  A    between atoms: C_11  and  O_12
REMARK    6  A    between atoms: C_14  and  C_15
REMARK    7  A    between atoms: C_15  and  O_16
REMARK    8  A    between atoms: C_17  and  O_18
REMARK    9  A    between atoms: C_19  and  O_20
REMARK                            x       y       z     vdW  Elec       q    Type
REMARK                         _______ _______ _______ _____ _____    ______ ____
ROOT
ATOM      1  C   UNL     1       0.311  -0.478   0.596  0.00  0.00    +0.000 C 
ATOM      2  C   UNL     1      -1.133  -0.070   0.942  0.00  0.00    +0.000 C 
ATOM      3  O   UNL     1      -1.940  -1.224   1.108  0.00  0.00    +0.000 OA
ATOM      4  C   UNL     1      -1.522  -1.970   2.240  0.00  0.00    +0.000 C 
ATOM      5  C   UNL     1      -0.101  -2.538   2.014  0.00  0.00    +0.000 C 
ATOM      6  C   UNL     1       0.873  -1.381   1.712  0.00  0.00    +0.000 C 
ENDROOT
BRANCH   1  10
ATOM      7  N   UNL     1       2.345   2.428  -0.917  0.00  0.00    +0.000 N 
ATOM      8  C   UNL     1       1.481   1.279  -0.829  0.00  0.00    +0.000 C 
ATOM      9  O   UNL     1       0.978   0.797  -1.880  0.00  0.00    +0.000 OA
ATOM     10  N   UNL     1       1.151   0.715   0.449  0.00  0.00    +0.000 N 
ATOM     11  H   UNL     1       1.372   1.269   1.308  0.00  0.00    +0.000 HD
BRANCH   7  13
ATOM     12  O   UNL     1       3.803   1.701   0.737  0.00  0.00    +0.000 OA
ATOM     13  N   UNL     1       3.413   2.615  -0.020  0.00  0.00    +0.000 NA
ENDBRANCH   7  13
BRANCH   7  14
ATOM     14  C   UNL     1       2.107   3.451  -1.938  0.00  0.00    +0.000 C 
BRANCH  14  15
ATOM     15  C   UNL     1       0.880   4.293  -1.590  0.00  0.00    +0.000 C 
ATOM     16 CL   UNL     1       1.132   5.194  -0.072  0.00  0.00    +0.000 Cl
ENDBRANCH  14  15
ENDBRANCH   7  14
ENDBRANCH   1  10
BRANCH   2  17
ATOM     17  O   UNL     1      -1.654   0.698  -0.108  0.00  0.00    +0.000 OA
ATOM     18  H   UNL     1      -2.537   1.031   0.199  0.00  0.00    +0.000 HD
ENDBRANCH   2  17
BRANCH   5  19
ATOM     19  O   UNL     1       0.323  -3.226   3.163  0.00  0.00    +0.000 OA
ATOM     20  H   UNL     1       1.055  -3.834   2.880  0.00  0.00    +0.000 HD
ENDBRANCH   5  19
BRANCH   6  21
ATOM     21  O   UNL     1       2.146  -1.870   1.367  0.00  0.00    +0.000 OA
ATOM     22  H   UNL     1       2.046  -2.418   0.545  0.00  0.00    +0.000 HD
ENDBRANCH   6  21
BRANCH   4  23
ATOM     23  C   UNL     1      -2.529  -3.102   2.474  0.00  0.00    +0.000 C 
BRANCH  23  24
ATOM     24  O   UNL     1      -3.803  -2.562   2.692  0.00  0.00    +0.000 OA
ATOM     25  H   UNL     1      -4.410  -3.335   2.827  0.00  0.00    +0.000 HD
ENDBRANCH  23  24
ENDBRANCH   4  23
TORSDOF 9
