REMARK  Name = 22833605
REMARK  9 active torsions:
REMARK  status: ('A' for Active; 'I' for Inactive)
REMARK    1  A    between atoms: C_1  and  C_2
REMARK    2  A    between atoms: C_2  and  O_3
REMARK    3  A    between atoms: C_2  and  C_15
REMARK    4  A    between atoms: O_3  and  C_4
REMARK    5  A    between atoms: C_5  and  O_6
REMARK    6  A    between atoms: C_7  and  C_8
REMARK    7  A    between atoms: C_8  and  O_9
REMARK    8  A    between atoms: C_11  and  O_12
REMARK    9  A    between atoms: C_13  and  N_14
REMARK                            x       y       z     vdW  Elec       q    Type
REMARK                         _______ _______ _______ _____ _____    ______ ____
ROOT
ATOM      1  C   UNL     1      -0.663  -1.190  -1.111  0.00  0.00    +0.000 C 
ATOM      2  C   UNL     1      -0.765  -2.347  -0.093  0.00  0.00    +0.000 C 
ATOM      3  C   UNL     1       0.125  -2.047   1.137  0.00  0.00    +0.000 C 
ATOM      4  O   UNL     1       1.472  -1.867   0.733  0.00  0.00    +0.000 OA
ATOM      5  C   UNL     1       1.604  -0.717  -0.086  0.00  0.00    +0.000 C 
ATOM      6  C   UNL     1       0.828  -0.913  -1.410  0.00  0.00    +0.000 C 
ENDROOT
BRANCH   6   7
ATOM      7  N   UNL     1       0.984   0.250  -2.295  0.00  0.00    +0.000 N 
ATOM      8  H   UNL     1       1.987   0.356  -2.571  0.00  0.00    +0.000 HD
ATOM      9  H   UNL     1       0.426   0.109  -3.167  0.00  0.00    +0.000 HD
ATOM     10  H   UNL     1       0.668   1.127  -1.819  0.00  0.00    +0.000 HD
ENDBRANCH   6   7
BRANCH   2  11
ATOM     11  O   UNL     1      -2.098  -2.526   0.312  0.00  0.00    +0.000 OA
ATOM     12  H   UNL     1      -2.555  -3.017  -0.419  0.00  0.00    +0.000 HD
ENDBRANCH   2  11
BRANCH   5  13
ATOM     13  O   UNL     1       2.963  -0.526  -0.372  0.00  0.00    +0.000 OA
ATOM     14  H   UNL     1       3.401  -0.298   0.489  0.00  0.00    +0.000 HD
ENDBRANCH   5  13
BRANCH   1  15
ATOM     15  O   UNL     1      -1.260  -0.017  -0.571  0.00  0.00    +0.000 OA
BRANCH  15  17
ATOM     16  C   UNL     1      -2.511   1.077  -2.329  0.00  0.00    +0.000 C 
ATOM     17  C   UNL     1      -2.568   0.206  -1.072  0.00  0.00    +0.000 C 
BRANCH  17  18
ATOM     18  C   UNL     1      -3.371   0.904  -0.016  0.00  0.00    +0.000 C 
ATOM     19  O   UNL     1      -2.875   1.863   0.632  0.00  0.00    +0.000 OA
ATOM     20  O   UNL     1      -4.684   0.519   0.227  0.00  0.00    +0.000 OA
ENDBRANCH  17  18
ENDBRANCH  15  17
ENDBRANCH   1  15
BRANCH   3  21
ATOM     21  C   UNL     1       0.070  -3.206   2.144  0.00  0.00    +0.000 C 
BRANCH  21  22
ATOM     22  O   UNL     1       0.833  -2.902   3.280  0.00  0.00    +0.000 OA
ATOM     23  H   UNL     1       1.778  -3.111   3.056  0.00  0.00    +0.000 HD
ENDBRANCH  21  22
ENDBRANCH   3  21
TORSDOF 8
