@<TRIPOS>MOLECULE
oxls.pdb
   58    62     1     0     0
SMALL
bcc


@<TRIPOS>ATOM
      1 C           90.6300    20.5740  -104.4780 cc         1 LIG       0.206300
      2 C1          90.7760    19.3200  -105.0330 cd         1 LIG      -0.177600
      3 N           91.3410    19.5070  -106.2370 na         1 LIG       0.050400
      4 N1          91.5180    20.8070  -106.4190 nd         1 LIG      -0.169800
      5 N2          91.0940    21.4820  -105.3610 nc         1 LIG      -0.299000
      6 C2          90.6720    18.7430  -101.9780 c3         1 LIG       0.014600
      7 N3          90.0910    20.0850  -102.0690 na         1 LIG      -0.185900
      8 C3          90.0320    20.8810  -103.1640 cc         1 LIG       0.403500
      9 N4          89.3600    22.0300  -102.9370 nd         1 LIG      -0.621000
     10 C4          88.9920    21.9640  -101.6420 cd         1 LIG       0.381800
     11 C5          89.4430    20.7680  -101.0990 cc         1 LIG      -0.161600
     12 C6          88.2470    23.0470  -100.9640 ca         1 LIG      -0.127500
     13 C7          87.0400    22.7550  -100.3080 ca         1 LIG      -0.085000
     14 C8          86.3180    23.7670   -99.6700 ca         1 LIG      -0.171500
     15 C9          86.7880    25.0830   -99.6910 ca         1 LIG       0.125900
     16 F           86.0860    26.0650   -99.0730 f          1 LIG      -0.142900
     17 C10         87.9770    25.3880  -100.3600 ca         1 LIG      -0.171500
     18 C11         88.7010    24.3780  -100.9990 ca         1 LIG      -0.085000
     19 C12         89.1880    20.2680   -99.7310 ca         1 LIG       0.023000
     20 C13         88.3300    19.1800   -99.5230 ca         1 LIG      -0.235800
     21 C14         88.0850    18.7370   -98.2220 ca         1 LIG       0.392200
     22 N5          88.6750    19.3600   -97.1670 nb         1 LIG      -0.660000
     23 C15         89.5090    20.4190   -97.3400 ca         1 LIG       0.392200
     24 C16         89.7800    20.8950   -98.6260 ca         1 LIG      -0.235800
     25 C17         91.6410    18.4690  -107.2270 c3         1 LIG       0.056000
     26 C18         91.9250    19.0960  -108.6040 c3         1 LIG       0.335900
     27 O           92.2250    18.0950  -109.5660 os         1 LIG      -0.432600
     28 C19         93.4010    17.3710  -109.2290 c3         1 LIG       0.075100
     29 C20         93.2120    16.6060  -107.8940 c3         1 LIG       0.070100
     30 C21         92.8320    17.6000  -106.7800 c3         1 LIG       0.101100
     31 O1          92.9560    20.0510  -108.5270 oh         1 LIG      -0.608800
     32 H           92.5900    20.8160  -108.0140 ho         1 LIG       0.431000
     33 O2          94.4030    15.9470  -107.5470 oh         1 LIG      -0.599800
     34 H1          94.4450    15.9310  -106.5560 ho         1 LIG       0.418000
     35 O3          92.5380    16.9270  -105.5810 oh         1 LIG      -0.613800
     36 H2          93.1940    16.1890  -105.4800 ho         1 LIG       0.430000
     37 C22         93.7050    16.4070  -110.3860 c3         1 LIG       0.139400
     38 O4          94.7820    15.5730  -110.0620 oh         1 LIG      -0.596800
     39 H3          94.4350    14.9200  -109.4000 ho         1 LIG       0.414000
     40 HC          90.4930    18.3770  -104.5890 h4         1 LIG       0.214000
     41 HC1         86.6670    21.7410  -100.2970 ha         1 LIG       0.150000
     42 HC2         85.3960    23.5320   -99.1600 ha         1 LIG       0.148500
     43 HC3         88.3370    26.4060  -100.3830 ha         1 LIG       0.148500
     44 HC4         89.6140    24.6210  -101.5230 ha         1 LIG       0.150000
     45 HC5         87.8620    18.6880  -100.3630 ha         1 LIG       0.152000
     46 HC6         87.4260    17.8980   -98.0530 h4         1 LIG       0.026100
     47 HC7         89.9630    20.8930   -96.4830 h4         1 LIG       0.026100
     48 HC8         90.4400    21.7380   -98.7670 ha         1 LIG       0.152000
     49 HC9         90.7660    17.8250  -107.3200 h1         1 LIG       0.089700
     50 HC10        91.0200    19.6090  -108.9290 h2         1 LIG       0.106700
     51 HC11        94.2300    18.0710  -109.1230 h1         1 LIG       0.074700
     52 HC12        92.4150    15.8720  -108.0090 h1         1 LIG       0.098700
     53 HC13        93.6850    18.2560  -106.6030 h1         1 LIG       0.076700
     54 HC14        93.9540    16.9840  -111.2770 h1         1 LIG       0.063200
     55 HC15        92.8250    15.7970  -110.5870 h1         1 LIG       0.063200
     56 HC16        90.6900    18.4240  -100.9360 h1         1 LIG       0.059700
     57 HC17        90.0690    18.0460  -102.5600 h1         1 LIG       0.059700
     58 HC18        91.6890    18.7600  -102.3710 h1         1 LIG       0.059700
@<TRIPOS>BOND
     1     1     5 1   
     2     1     2 2   
     3     1     8 1   
     4     2     3 1   
     5     2    40 1   
     6     6     7 1   
     7     6    56 1   
     8     6    57 1   
     9     6    58 1   
    10     8     9 2   
    11    10    12 1   
    12    10    11 2   
    13    11    19 1   
    14    12    13 ar  
    15    12    18 ar  
    16    13    41 1   
    17    13    14 ar  
    18    14    42 1   
    19    14    15 ar  
    20    15    16 1   
    21    15    17 ar  
    22    17    18 ar  
    23    17    43 1   
    24    18    44 1   
    25    19    24 ar  
    26    19    20 ar  
    27    20    21 ar  
    28    20    45 1   
    29    21    22 ar  
    30    21    46 1   
    31    23    24 ar  
    32    23    47 1   
    33    24    48 1   
    34    25    30 1   
    35    25    26 1   
    36    25    49 1   
    37    26    31 1   
    38    26    27 1   
    39    26    50 1   
    40    28    29 1   
    41    28    37 1   
    42    28    51 1   
    43    29    30 1   
    44    29    33 1   
    45    29    52 1   
    46    30    35 1   
    47    30    53 1   
    48    37    38 1   
    49    37    55 1   
    50    37    54 1   
    51     3     4 1   
    52     3    25 1   
    53     4     5 2   
    54     7    11 1   
    55     7     8 1   
    56     9    10 1   
    57    22    23 ar  
    58    27    28 1   
    59    31    32 1   
    60    33    34 1   
    61    35    36 1   
    62    38    39 1   
@<TRIPOS>SUBSTRUCTURE
     1 LIG         1 TEMP              0 ****  ****    0 ROOT
