@<TRIPOS>MOLECULE
Molecule Ligandos_final.mol2
     6     0
SMALL
NO_CHARGES
@<TRIPOS>ATOM
      1 ACC        84.0160   17.9720 -102.6190 HB    0     HB      0.0000
      3 ACC        87.3820   17.0370 -104.9250 HB    2     HB      0.0000
      4 ACC        85.4470   14.9380 -105.0970 HB    3     HB      0.0000
      5 ACC        85.1600   16.1740 -101.7130 HB    4     HB      0.0000
      9 ACC        87.3660   19.7930 -101.1770 HB    8     HB      0.0000
     14 AR         88.1912   22.4273 -103.4502 AR    13    AR      0.0000
@<TRIPOS>BOND
@<TRIPOS>MOLECULE
Ligandos_final.mol2
    33    35
SMALL
NO_CHARGES
@<TRIPOS>ATOM
      1 C1         85.2230   17.5630 -101.9920 C.2   1     6041    0.3220
      2 C1A        89.0200   22.4480 -104.5680 C.1   1     6041   -0.0153
      3 O1         84.0160   17.9720 -102.6190 O.2   1     6041   -0.2570
      4 C2         86.3940   17.7720 -102.9310 C.2   1     6041    0.1898
      5 C2A        88.5540   21.2500 -104.0630 C.1   1     6041   -0.0391
      6 N2         86.6000   19.1550 -103.2580 N.2   1     6041   -0.1980
      7 C3         86.1760   16.9900 -104.2010 C.2   1     6041    0.2597
      8 C3A        88.6500   23.6220 -103.9480 C.1   1     6041   -0.0372
      9 O3         87.3820   17.0370 -104.9250 O.2   1     6041   -0.2812
     10 C4         85.8590   15.5500 -103.8860 C.2   1     6041    0.2671
     11 C4A        87.3640   22.4070 -102.3320 C.1   1     6041   -0.0737
     12 O4         85.4470   14.9380 -105.0970 O.2   1     6041   -0.2802
     13 C5         84.7070   15.5670 -102.9120 C.2   1     6041    0.1946
     14 C5A        83.9070   10.8720  -99.5110 C.1   1     6041    0.0077
     15 O5         85.1600   16.1740 -101.7130 O.3   1     6041   -0.2588
     16 C6         84.1030   14.2150 -102.6080 C.1   1     6041   -0.0101
     17 C6A        87.7310   21.2420 -102.9530 C.2   1     6041    0.1355
     18 C7         83.5430    9.5360  -99.7910 C.2   1     6041    0.1408
     19 C8         87.8280   23.5950 -102.8370 C.2   1     6041    0.1116
     20 C9         84.1850    9.1680 -100.9490 C.2   1     6041    0.1550
     21 C10        84.7590   11.2570 -100.5220 C.2   1     6041   -0.3150
     22 C11        87.2160   19.9950 -102.3720 C.2   1     6041    0.2943
     23 C12        82.5860    8.6870  -98.9390 C.2   1     6041    0.2217
     24 C18        84.2100    7.9320 -101.7430 Hev   1     6041    0.0000
     25 N21        85.1610   13.2300 -102.3910 N.2   1     6041   -0.3188
     26 O22        82.3520    7.5240  -99.3970 O.co2 1     6041   -0.6434
     27 O23        87.3660   19.7930 -101.1770 O.2   1     6041   -0.2639
     28 O24        82.1260    9.2470  -97.8970 O.co2 1     6041   -0.6434
     29 O25        85.0120   13.6990  -99.8100 O.2   1     6041   -0.9312
     30 O26        86.9580   12.3860 -100.7750 O.2   1     6041   -0.9312
     31 O27        84.9320   10.2180 -101.3920 O.3   1     6041   -0.2348
     32 S32        85.5660   12.7780 -100.7890 S.O2  1     6041    2.4641
     33 BR         87.2890   25.1810 -101.9440 Br    1     6041   -0.0315
@<TRIPOS>BOND
     1     1     3    1 
     2     1    15    1 
     3     1     4    1 
     4     2     5    ar
     5     2     8    ar
     6     4     6    1 
     7     4     7    1 
     8     5    17    ar
     9     6    22    1 
    10     7     9    1 
    11     7    10    1 
    12     8    19    ar
    13    10    12    1 
    14    10    13    1 
    15    11    17    ar
    16    11    19    ar
    17    13    15    1 
    18    13    16    1 
    19    14    18    ar
    20    14    21    ar
    21    16    25    1 
    22    17    22    1 
    23    18    20    ar
    24    18    23    1 
    25    19    33    1 
    26    20    24    1 
    27    20    31    ar
    28    21    31    ar
    29    21    32    1 
    30    22    27    2 
    31    23    26    ar
    32    23    28    ar
    33    25    32    1 
    34    29    32    2 
    35    30    32    2 
@<TRIPOS>MOLECULE
Molecule Ligandos_final.mol2
    15     0
SMALL
NO_CHARGES
@<TRIPOS>ATOM
      1 ACC        84.0160   17.9720 -102.6190 HB    0     HB      0.0000
      2 ACC        86.6000   19.1550 -103.2580 HB    1     HB      0.0000
      3 ACC        87.3820   17.0370 -104.9250 HB    2     HB      0.0000
      4 ACC        85.4470   14.9380 -105.0970 HB    3     HB      0.0000
      5 ACC        85.1600   16.1740 -101.7130 HB    4     HB      0.0000
      6 ACC        82.3520    7.5240  -99.3970 HB    5     HB      0.0000
      7 ACC        82.1260    9.2470  -97.8970 HB    6     HB      0.0000
      8 ACC        85.1610   13.2300 -102.3910 HB    7     HB      0.0000
      9 ACC        87.3660   19.7930 -101.1770 HB    8     HB      0.0000
     10 ACC        85.0120   13.6990  -99.8100 HB    9     HB      0.0000
     11 ACC        86.9580   12.3860 -100.7750 HB    10    HB      0.0000
     12 ACC        84.9320   10.2180 -101.3920 HB    11    HB      0.0000
     13 ANI        82.5860    8.6870  -98.9390 CHG   12    CHG     0.2217
     14 AR         88.1912   22.4273 -103.4502 AR    13    AR      0.0000
     15 AR         84.2652   10.2102 -100.4330 AR    14    AR      0.0000
@<TRIPOS>BOND
@<TRIPOS>MOLECULE
3_var_464.mol2
    44    46
SMALL
NO_CHARGES
@<TRIPOS>ATOM
      1 C1         83.6947   15.1553 -103.2310 C.3   1     UNK     0.0000
      2 O1         84.3979   15.4798 -102.0514 O.3   1     UNK     0.0000
      3 C2         85.4911   16.3261 -102.3532 C.3   1     UNK     0.0000
      4 O2         85.1638   17.6588 -101.9758 O.3   1     UNK     0.0000
      5 C3         86.2612   18.5167 -102.2276 C.3   1     UNK     0.0000
      6 C4         85.9724   19.9241 -101.7139 C.3   1     UNK     0.0000
      7 O3         87.0301   20.7948 -102.0669 O.3   1     UNK     0.0000
      8 C5         87.1833   20.8307 -103.4793 C.3   1     UNK     0.0000
      9 C6         88.2808   21.8066 -103.8118 C.ar  1     UNK     0.0000
     10 C7         88.1757   23.1485 -103.4043 C.ar  1     UNK     0.0000
     11 C8         89.1899   24.0609 -103.7104 C.ar  1     UNK     0.0000
     12 C9         90.3154   23.6435 -104.4254 C.ar  1     UNK     0.0000
     13 C10        90.4286   22.3126 -104.8358 C.ar  1     UNK     0.0000
     14 C11        89.4169   21.3958 -104.5321 C.ar  1     UNK     0.0000
     15 O4         87.5511   19.5551 -103.9874 O.3   1     UNK     0.0000
     16 C12        86.5111   18.6307 -103.7377 C.3   1     UNK     0.0000
     17 C13        86.8632   17.2421 -104.2932 C.3   1     UNK     0.0000
     18 O5         88.1117   16.8198 -103.8004 O.3   1     UNK     0.0000
     19 C14        85.7584   16.2459 -103.8758 C.3   1     UNK     0.0000
     20 N1         86.1316   14.8777 -104.2535 N.am  1     UNK     0.0000
     21 C15        85.5763   14.2022 -105.3912 C.2   1     UNK     0.0000
     22 C16        85.9369   12.7772 -105.6581 C.3   1     UNK     0.0000
     23 O6         84.7619   14.7898 -106.1534 O.2   1     UNK     0.0000
     24 H1         82.8928   14.4325 -102.9760 H     1     UNK     0.0000
     25 H2         84.3564   14.6712 -103.9830 H     1     UNK     0.0000
     26 H3         83.2083   16.0569 -103.6643 H     1     UNK     0.0000
     27 H4         86.4132   15.9787 -101.8215 H     1     UNK     0.0000
     28 H5         87.1783   18.1554 -101.7039 H     1     UNK     0.0000
     29 H6         85.8917   19.8947 -100.6068 H     1     UNK     0.0000
     30 H7         85.0014   20.3032 -102.1078 H     1     UNK     0.0000
     31 H8         87.4721   19.8257 -103.8746 H     1     UNK     0.0000
     32 H9         87.3084   23.4856 -102.8498 H     1     UNK     0.0000
     33 H10        89.1030   25.0921 -103.3934 H     1     UNK     0.0000
     34 H11        91.0995   24.3512 -104.6617 H     1     UNK     0.0000
     35 H12        91.3009   21.9908 -105.3901 H     1     UNK     0.0000
     36 H13        89.5222   20.3690 -104.8590 H     1     UNK     0.0000
     37 H14        85.5764   18.9645 -104.2507 H     1     UNK     0.0000
     38 H15        86.8913   17.2886 -105.4075 H     1     UNK     0.0000
     39 H16        88.8059   17.2562 -104.3599 H     1     UNK     0.0000
     40 H17        85.2223   16.7401 -104.7171 H     1     UNK     0.0000
     41 H18        86.7336   14.3246 -103.6018 H     1     UNK     0.0000
     42 H19        85.5977   12.4716 -106.6706 H     1     UNK     0.0000
     43 H20        87.0382   12.6517 -105.5974 H     1     UNK     0.0000
     44 H21        85.4525   12.1261 -104.9010 H     1     UNK     0.0000
@<TRIPOS>BOND
     1     1     2    1 
     2     2     3    1 
     3     3     4    1 
     4     4     5    1 
     5     5     6    1 
     6     6     7    1 
     7     7     8    1 
     8     8     9    1 
     9     9    10    ar
    10    10    11    ar
    11    11    12    ar
    12    12    13    ar
    13    13    14    ar
    14     8    15    1 
    15    15    16    1 
    16    16    17    1 
    17    17    18    1 
    18    17    19    1 
    19    19    20    1 
    20    20    21    am
    21    21    22    1 
    22    21    23    2 
    23    19     3    1 
    24    16     5    1 
    25    14     9    ar
    26     1    24    1 
    27     1    25    1 
    28     1    26    1 
    29     3    27    1 
    30     5    28    1 
    31     6    29    1 
    32     6    30    1 
    33     8    31    1 
    34    10    32    1 
    35    11    33    1 
    36    12    34    1 
    37    13    35    1 
    38    14    36    1 
    39    16    37    1 
    40    17    38    1 
    41    18    39    1 
    42    19    40    1 
    43    20    41    1 
    44    22    42    1 
    45    22    43    1 
    46    22    44    1 
@<TRIPOS>MOLECULE
Molecule 3_var_464.mol2
    11     0
SMALL
NO_CHARGES
@<TRIPOS>ATOM
      1 DON        88.1117   16.8198 -103.8004 HB    0     HB      0.0000
      2 DON        86.1316   14.8777 -104.2535 HB    1     HB      0.0000
      3 ACC        84.3979   15.4798 -102.0514 HB    2     HB      0.0000
      4 ACC        85.1638   17.6588 -101.9758 HB    3     HB      0.0000
      5 ACC        87.0301   20.7948 -102.0669 HB    4     HB      0.0000
      6 ACC        87.5511   19.5551 -103.9874 HB    5     HB      0.0000
      7 ACC        88.1117   16.8198 -103.8004 HB    6     HB      0.0000
      8 ACC        84.7619   14.7898 -106.1534 HB    7     HB      0.0000
      9 AR         89.3012   22.7280 -104.1200 AR    8     AR      0.0000
     10 HYD        83.6947   15.1553 -103.2310 HYD   9     HYD     0.0000
     11 HYD        85.9369   12.7772 -105.6581 HYD   10    HYD     0.0000
@<TRIPOS>BOND
