@<TRIPOS>MOLECULE
Molecule Ligandos_final.mol2
     6     0
SMALL
NO_CHARGES
@<TRIPOS>ATOM
      1 ACC        84.0160   17.9720 -102.6190 HB    0     HB      0.0000
      3 ACC        87.3820   17.0370 -104.9250 HB    2     HB      0.0000
      4 ACC        85.4470   14.9380 -105.0970 HB    3     HB      0.0000
      5 ACC        85.1600   16.1740 -101.7130 HB    4     HB      0.0000
      8 ACC        85.1610   13.2300 -102.3910 HB    7     HB      0.0000
      9 ACC        87.3660   19.7930 -101.1770 HB    8     HB      0.0000
@<TRIPOS>BOND
@<TRIPOS>MOLECULE
Ligandos_final.mol2
    33    35
SMALL
NO_CHARGES
@<TRIPOS>ATOM
      1 C1         85.2230   17.5630 -101.9920 C.2   1     6041    0.3220
      2 C1A        89.0200   22.4480 -104.5680 C.1   1     6041   -0.0153
      3 O1         84.0160   17.9720 -102.6190 O.2   1     6041   -0.2570
      4 C2         86.3940   17.7720 -102.9310 C.2   1     6041    0.1898
      5 C2A        88.5540   21.2500 -104.0630 C.1   1     6041   -0.0391
      6 N2         86.6000   19.1550 -103.2580 N.2   1     6041   -0.1980
      7 C3         86.1760   16.9900 -104.2010 C.2   1     6041    0.2597
      8 C3A        88.6500   23.6220 -103.9480 C.1   1     6041   -0.0372
      9 O3         87.3820   17.0370 -104.9250 O.2   1     6041   -0.2812
     10 C4         85.8590   15.5500 -103.8860 C.2   1     6041    0.2671
     11 C4A        87.3640   22.4070 -102.3320 C.1   1     6041   -0.0737
     12 O4         85.4470   14.9380 -105.0970 O.2   1     6041   -0.2802
     13 C5         84.7070   15.5670 -102.9120 C.2   1     6041    0.1946
     14 C5A        83.9070   10.8720  -99.5110 C.1   1     6041    0.0077
     15 O5         85.1600   16.1740 -101.7130 O.3   1     6041   -0.2588
     16 C6         84.1030   14.2150 -102.6080 C.1   1     6041   -0.0101
     17 C6A        87.7310   21.2420 -102.9530 C.2   1     6041    0.1355
     18 C7         83.5430    9.5360  -99.7910 C.2   1     6041    0.1408
     19 C8         87.8280   23.5950 -102.8370 C.2   1     6041    0.1116
     20 C9         84.1850    9.1680 -100.9490 C.2   1     6041    0.1550
     21 C10        84.7590   11.2570 -100.5220 C.2   1     6041   -0.3150
     22 C11        87.2160   19.9950 -102.3720 C.2   1     6041    0.2943
     23 C12        82.5860    8.6870  -98.9390 C.2   1     6041    0.2217
     24 C18        84.2100    7.9320 -101.7430 Hev   1     6041    0.0000
     25 N21        85.1610   13.2300 -102.3910 N.2   1     6041   -0.3188
     26 O22        82.3520    7.5240  -99.3970 O.co2 1     6041   -0.6434
     27 O23        87.3660   19.7930 -101.1770 O.2   1     6041   -0.2639
     28 O24        82.1260    9.2470  -97.8970 O.co2 1     6041   -0.6434
     29 O25        85.0120   13.6990  -99.8100 O.2   1     6041   -0.9312
     30 O26        86.9580   12.3860 -100.7750 O.2   1     6041   -0.9312
     31 O27        84.9320   10.2180 -101.3920 O.3   1     6041   -0.2348
     32 S32        85.5660   12.7780 -100.7890 S.O2  1     6041    2.4641
     33 BR         87.2890   25.1810 -101.9440 Br    1     6041   -0.0315
@<TRIPOS>BOND
     1     1     3    1 
     2     1    15    1 
     3     1     4    1 
     4     2     5    ar
     5     2     8    ar
     6     4     6    1 
     7     4     7    1 
     8     5    17    ar
     9     6    22    1 
    10     7     9    1 
    11     7    10    1 
    12     8    19    ar
    13    10    12    1 
    14    10    13    1 
    15    11    17    ar
    16    11    19    ar
    17    13    15    1 
    18    13    16    1 
    19    14    18    ar
    20    14    21    ar
    21    16    25    1 
    22    17    22    1 
    23    18    20    ar
    24    18    23    1 
    25    19    33    1 
    26    20    24    1 
    27    20    31    ar
    28    21    31    ar
    29    21    32    1 
    30    22    27    2 
    31    23    26    ar
    32    23    28    ar
    33    25    32    1 
    34    29    32    2 
    35    30    32    2 
@<TRIPOS>MOLECULE
Molecule Ligandos_final.mol2
    15     0
SMALL
NO_CHARGES
@<TRIPOS>ATOM
      1 ACC        84.0160   17.9720 -102.6190 HB    0     HB      0.0000
      2 ACC        86.6000   19.1550 -103.2580 HB    1     HB      0.0000
      3 ACC        87.3820   17.0370 -104.9250 HB    2     HB      0.0000
      4 ACC        85.4470   14.9380 -105.0970 HB    3     HB      0.0000
      5 ACC        85.1600   16.1740 -101.7130 HB    4     HB      0.0000
      6 ACC        82.3520    7.5240  -99.3970 HB    5     HB      0.0000
      7 ACC        82.1260    9.2470  -97.8970 HB    6     HB      0.0000
      8 ACC        85.1610   13.2300 -102.3910 HB    7     HB      0.0000
      9 ACC        87.3660   19.7930 -101.1770 HB    8     HB      0.0000
     10 ACC        85.0120   13.6990  -99.8100 HB    9     HB      0.0000
     11 ACC        86.9580   12.3860 -100.7750 HB    10    HB      0.0000
     12 ACC        84.9320   10.2180 -101.3920 HB    11    HB      0.0000
     13 ANI        82.5860    8.6870  -98.9390 CHG   12    CHG     0.2217
     14 AR         88.1912   22.4273 -103.4502 AR    13    AR      0.0000
     15 AR         84.2652   10.2102 -100.4330 AR    14    AR      0.0000
@<TRIPOS>BOND
@<TRIPOS>MOLECULE
3_var_268.mol2
    33    33
SMALL
NO_CHARGES
@<TRIPOS>ATOM
      1 C1         87.8626   22.4864 -101.8296 C.3   1     UNK     0.0000
      2 N1         87.3428   21.4958 -102.7775 N.pl3 1     UNK     0.0000
      3 N2         87.2007   21.8244 -104.1380 N.2   1     UNK     0.0000
      4 O1         87.4787   22.9626 -104.5695 O.2   1     UNK     0.0000
      5 C2         87.1131   20.1380 -102.3559 C.2   1     UNK     0.0000
      6 O2         87.3701   19.7993 -101.1679 O.2   1     UNK     0.0000
      7 N3         86.5956   19.1645 -103.2797 N.pl3 1     UNK     0.0000
      8 C3         86.4139   17.7721 -102.9380 C.3   1     UNK     0.0000
      9 C4         85.2105   17.5665 -101.9967 C.3   1     UNK     0.0000
     10 O3         84.0086   17.9684 -102.6073 O.3   1     UNK     0.0000
     11 O4         85.1360   16.2181 -101.5560 O.3   1     UNK     0.0000
     12 C5         84.9267   15.3189 -102.6369 C.3   1     UNK     0.0000
     13 C6         84.7327   13.9125 -102.0446 C.3   1     UNK     0.0000
     14 O5         85.5428   12.9696 -102.6943 O.3   1     UNK     0.0000
     15 C7         86.1237   15.3593 -103.6211 C.3   1     UNK     0.0000
     16 O6         85.8797   14.5247 -104.7259 O.3   1     UNK     0.0000
     17 C8         86.3263   16.7984 -104.1265 C.3   1     UNK     0.0000
     18 O7         87.4725   16.8872 -104.9369 O.3   1     UNK     0.0000
     19 H1         87.4590   22.3061 -100.8107 H     1     UNK     0.0000
     20 H2         88.9706   22.4286 -101.8020 H     1     UNK     0.0000
     21 H3         87.5571   23.5112 -102.1273 H     1     UNK     0.0000
     22 H4         85.5983   19.5602 -103.8435 H     1     UNK     0.0000
     23 H5         87.3288   17.5376 -102.3486 H     1     UNK     0.0000
     24 H6         85.3816   18.2064 -101.1013 H     1     UNK     0.0000
     25 H7         83.3077   17.9145 -101.9064 H     1     UNK     0.0000
     26 H8         84.8202   15.2274 -103.7425 H     1     UNK     0.0000
     27 H9         83.6633   13.6124 -102.1332 H     1     UNK     0.0000
     28 H10        84.9835   13.9191 -100.9622 H     1     UNK     0.0000
     29 H11        85.1181   12.7861 -103.5727 H     1     UNK     0.0000
     30 H12        87.0478   15.0410 -103.0788 H     1     UNK     0.0000
     31 H13        86.3627   13.6726 -104.5628 H     1     UNK     0.0000
     32 H14        85.4484   17.0789 -104.7510 H     1     UNK     0.0000
     33 H15        88.2577   16.6453 -104.3790 H     1     UNK     0.0000
@<TRIPOS>BOND
     1     1     2    1 
     2     2     3    2 
     3     3     4    2 
     4     2     5    2 
     5     5     6    2 
     6     5     7    2 
     7     7     8    1 
     8     8     9    1 
     9     9    10    1 
    10     9    11    1 
    11    11    12    1 
    12    12    13    1 
    13    13    14    1 
    14    12    15    1 
    15    15    16    1 
    16    15    17    1 
    17    17    18    1 
    18    17     8    1 
    19     1    19    1 
    20     1    20    1 
    21     1    21    1 
    22     7    22    1 
    23     8    23    1 
    24     9    24    1 
    25    10    25    1 
    26    12    26    1 
    27    13    27    1 
    28    13    28    1 
    29    14    29    1 
    30    15    30    1 
    31    16    31    1 
    32    17    32    1 
    33    18    33    1 
@<TRIPOS>MOLECULE
Molecule 3_var_268.mol2
    13     0
SMALL
NO_CHARGES
@<TRIPOS>ATOM
      1 DON        86.4633   19.1581 -103.4184 HB    0     HB      0.0000
      2 DON        84.0086   17.9684 -102.6073 HB    1     HB      0.0000
      3 DON        85.5428   12.9696 -102.6943 HB    2     HB      0.0000
      4 DON        85.8797   14.5247 -104.7259 HB    3     HB      0.0000
      5 DON        87.4725   16.8872 -104.9369 HB    4     HB      0.0000
      6 ACC        87.2007   21.8244 -104.1380 HB    5     HB      0.0000
      7 ACC        87.3701   19.7993 -101.1679 HB    6     HB      0.0000
      8 ACC        84.0086   17.9684 -102.6073 HB    7     HB      0.0000
      9 ACC        85.1360   16.2181 -101.5560 HB    8     HB      0.0000
     10 ACC        85.5428   12.9696 -102.6943 HB    9     HB      0.0000
     11 ACC        85.8797   14.5247 -104.7259 HB    10    HB      0.0000
     12 ACC        87.4725   16.8872 -104.9369 HB    11    HB      0.0000
     13 HYD        87.8626   22.4864 -101.8296 HYD   12    HYD     0.0000
@<TRIPOS>BOND
