@<TRIPOS>MOLECULE
Molecule Ligandos_final.mol2
     6     0
SMALL
NO_CHARGES
@<TRIPOS>ATOM
      3 ACC        87.3820   17.0370 -104.9250 HB    2     HB      0.0000
      4 ACC        85.4470   14.9380 -105.0970 HB    3     HB      0.0000
      5 ACC        85.1600   16.1740 -101.7130 HB    4     HB      0.0000
      8 ACC        85.1610   13.2300 -102.3910 HB    7     HB      0.0000
      9 ACC        87.3660   19.7930 -101.1770 HB    8     HB      0.0000
     14 AR         88.1912   22.4273 -103.4502 AR    13    AR      0.0000
@<TRIPOS>BOND
@<TRIPOS>MOLECULE
Ligandos_final.mol2
    33    35
SMALL
NO_CHARGES
@<TRIPOS>ATOM
      1 C1         85.2230   17.5630 -101.9920 C.2   1     6041    0.3220
      2 C1A        89.0200   22.4480 -104.5680 C.1   1     6041   -0.0153
      3 O1         84.0160   17.9720 -102.6190 O.2   1     6041   -0.2570
      4 C2         86.3940   17.7720 -102.9310 C.2   1     6041    0.1898
      5 C2A        88.5540   21.2500 -104.0630 C.1   1     6041   -0.0391
      6 N2         86.6000   19.1550 -103.2580 N.2   1     6041   -0.1980
      7 C3         86.1760   16.9900 -104.2010 C.2   1     6041    0.2597
      8 C3A        88.6500   23.6220 -103.9480 C.1   1     6041   -0.0372
      9 O3         87.3820   17.0370 -104.9250 O.2   1     6041   -0.2812
     10 C4         85.8590   15.5500 -103.8860 C.2   1     6041    0.2671
     11 C4A        87.3640   22.4070 -102.3320 C.1   1     6041   -0.0737
     12 O4         85.4470   14.9380 -105.0970 O.2   1     6041   -0.2802
     13 C5         84.7070   15.5670 -102.9120 C.2   1     6041    0.1946
     14 C5A        83.9070   10.8720  -99.5110 C.1   1     6041    0.0077
     15 O5         85.1600   16.1740 -101.7130 O.3   1     6041   -0.2588
     16 C6         84.1030   14.2150 -102.6080 C.1   1     6041   -0.0101
     17 C6A        87.7310   21.2420 -102.9530 C.2   1     6041    0.1355
     18 C7         83.5430    9.5360  -99.7910 C.2   1     6041    0.1408
     19 C8         87.8280   23.5950 -102.8370 C.2   1     6041    0.1116
     20 C9         84.1850    9.1680 -100.9490 C.2   1     6041    0.1550
     21 C10        84.7590   11.2570 -100.5220 C.2   1     6041   -0.3150
     22 C11        87.2160   19.9950 -102.3720 C.2   1     6041    0.2943
     23 C12        82.5860    8.6870  -98.9390 C.2   1     6041    0.2217
     24 C18        84.2100    7.9320 -101.7430 Hev   1     6041    0.0000
     25 N21        85.1610   13.2300 -102.3910 N.2   1     6041   -0.3188
     26 O22        82.3520    7.5240  -99.3970 O.co2 1     6041   -0.6434
     27 O23        87.3660   19.7930 -101.1770 O.2   1     6041   -0.2639
     28 O24        82.1260    9.2470  -97.8970 O.co2 1     6041   -0.6434
     29 O25        85.0120   13.6990  -99.8100 O.2   1     6041   -0.9312
     30 O26        86.9580   12.3860 -100.7750 O.2   1     6041   -0.9312
     31 O27        84.9320   10.2180 -101.3920 O.3   1     6041   -0.2348
     32 S32        85.5660   12.7780 -100.7890 S.O2  1     6041    2.4641
     33 BR         87.2890   25.1810 -101.9440 Br    1     6041   -0.0315
@<TRIPOS>BOND
     1     1     3    1 
     2     1    15    1 
     3     1     4    1 
     4     2     5    ar
     5     2     8    ar
     6     4     6    1 
     7     4     7    1 
     8     5    17    ar
     9     6    22    1 
    10     7     9    1 
    11     7    10    1 
    12     8    19    ar
    13    10    12    1 
    14    10    13    1 
    15    11    17    ar
    16    11    19    ar
    17    13    15    1 
    18    13    16    1 
    19    14    18    ar
    20    14    21    ar
    21    16    25    1 
    22    17    22    1 
    23    18    20    ar
    24    18    23    1 
    25    19    33    1 
    26    20    24    1 
    27    20    31    ar
    28    21    31    ar
    29    21    32    1 
    30    22    27    2 
    31    23    26    ar
    32    23    28    ar
    33    25    32    1 
    34    29    32    2 
    35    30    32    2 
@<TRIPOS>MOLECULE
Molecule Ligandos_final.mol2
    15     0
SMALL
NO_CHARGES
@<TRIPOS>ATOM
      1 ACC        84.0160   17.9720 -102.6190 HB    0     HB      0.0000
      2 ACC        86.6000   19.1550 -103.2580 HB    1     HB      0.0000
      3 ACC        87.3820   17.0370 -104.9250 HB    2     HB      0.0000
      4 ACC        85.4470   14.9380 -105.0970 HB    3     HB      0.0000
      5 ACC        85.1600   16.1740 -101.7130 HB    4     HB      0.0000
      6 ACC        82.3520    7.5240  -99.3970 HB    5     HB      0.0000
      7 ACC        82.1260    9.2470  -97.8970 HB    6     HB      0.0000
      8 ACC        85.1610   13.2300 -102.3910 HB    7     HB      0.0000
      9 ACC        87.3660   19.7930 -101.1770 HB    8     HB      0.0000
     10 ACC        85.0120   13.6990  -99.8100 HB    9     HB      0.0000
     11 ACC        86.9580   12.3860 -100.7750 HB    10    HB      0.0000
     12 ACC        84.9320   10.2180 -101.3920 HB    11    HB      0.0000
     13 ANI        82.5860    8.6870  -98.9390 CHG   12    CHG     0.2217
     14 AR         88.1912   22.4273 -103.4502 AR    13    AR      0.0000
     15 AR         84.2652   10.2102 -100.4330 AR    14    AR      0.0000
@<TRIPOS>BOND
@<TRIPOS>MOLECULE
3_var_438.mol2
    44    46
SMALL
NO_CHARGES
@<TRIPOS>ATOM
      1 H1         86.5559   12.1193 -104.8662 H     1     UNK     0.0000
      2 O1         86.3001   13.0940 -104.7630 O.3   1     UNK     0.0000
      3 C1         85.8912   13.8522 -105.8596 C.2   1     UNK     0.0000
      4 N1         85.5493   15.0974 -105.7142 N.2   1     UNK     0.0000
      5 C2         85.5534   15.8122 -104.4357 C.3   1     UNK     0.0000
      6 H2         84.5052   15.9275 -104.0752 H     1     UNK     0.0000
      7 C3         86.1757   17.2241 -104.5967 C.3   1     UNK     0.0000
      8 H3         85.4331   17.8687 -105.1151 H     1     UNK     0.0000
      9 O2         87.3334   17.2082 -105.3997 O.3   1     UNK     0.0000
     10 H4         87.9971   16.6030 -104.9832 H     1     UNK     0.0000
     11 C4         86.4454   17.8558 -103.2194 C.3   1     UNK     0.0000
     12 H5         85.4534   18.1082 -102.7754 H     1     UNK     0.0000
     13 O3         87.1951   19.0497 -103.3607 O.3   1     UNK     0.0000
     14 C5         87.7393   19.5042 -102.1214 C.3   1     UNK     0.0000
     15 H6         87.2347   19.0431 -101.2397 H     1     UNK     0.0000
     16 C6         87.5773   20.9988 -102.0475 C.ar  1     UNK     0.0000
     17 C7         88.1954   21.8204 -103.0064 C.ar  1     UNK     0.0000
     18 H7         88.7938   21.3839 -103.7969 H     1     UNK     0.0000
     19 C8         88.0436   23.2091 -102.9493 C.ar  1     UNK     0.0000
     20 H8         88.5231   23.8363 -103.6898 H     1     UNK     0.0000
     21 C9         87.2724   23.7885 -101.9383 C.ar  1     UNK     0.0000
     22 H9         87.1556   24.8635 -101.8957 H     1     UNK     0.0000
     23 C10        86.6508   22.9798 -100.9832 C.ar  1     UNK     0.0000
     24 H10        86.0522   23.4299 -100.2017 H     1     UNK     0.0000
     25 C11        86.7995   21.5901 -101.0360 C.ar  1     UNK     0.0000
     26 H11        86.3086   20.9792 -100.2888 H     1     UNK     0.0000
     27 O4         87.1074   18.9276 -100.9854 O.3   1     UNK     0.0000
     28 C12        87.3699   17.5358 -100.9319 C.3   1     UNK     0.0000
     29 H12        86.6830   17.0912 -100.1803 H     1     UNK     0.0000
     30 H13        88.4057   17.3606 -100.5646 H     1     UNK     0.0000
     31 C13        87.1598   16.8534 -102.2963 C.3   1     UNK     0.0000
     32 H14        88.1708   16.6103 -102.6991 H     1     UNK     0.0000
     33 O5         86.3812   15.6801 -102.1482 O.3   1     UNK     0.0000
     34 C14        86.3138   14.9764 -103.3810 C.3   1     UNK     0.0000
     35 H15        87.2387   14.9848 -102.7519 H     1     UNK     0.0000
     36 O6         85.6030   13.7684 -103.1826 O.3   1     UNK     0.0000
     37 C15        85.5042   13.4821 -101.8042 C.3   1     UNK     0.0000
     38 H16        85.0079   14.3082 -101.2482 H     1     UNK     0.0000
     39 H17        86.5052   13.2679 -101.3694 H     1     UNK     0.0000
     40 H18        84.8826   12.5724 -101.6764 H     1     UNK     0.0000
     41 C16        85.8230   13.2224 -107.2134 C.3   1     UNK     0.0000
     42 H19        84.9334   12.5613 -107.2673 H     1     UNK     0.0000
     43 H20        86.7373   12.6189 -107.3916 H     1     UNK     0.0000
     44 H21        85.7484   13.9974 -108.0059 H     1     UNK     0.0000
@<TRIPOS>BOND
     1     1     2    1 
     2     2     3    1 
     3     3     4    2 
     4     4     5    1 
     5     5     6    1 
     6     5     7    1 
     7     7     8    1 
     8     7     9    1 
     9     9    10    1 
    10     7    11    1 
    11    11    12    1 
    12    11    13    1 
    13    13    14    1 
    14    14    15    1 
    15    14    16    1 
    16    16    17    ar
    17    17    18    1 
    18    17    19    ar
    19    19    20    1 
    20    19    21    ar
    21    21    22    1 
    22    21    23    ar
    23    23    24    1 
    24    23    25    ar
    25    25    26    1 
    26    14    27    1 
    27    27    28    1 
    28    28    29    1 
    29    28    30    1 
    30    28    31    1 
    31    31    32    1 
    32    31    33    1 
    33    33    34    1 
    34    34    35    1 
    35    34    36    1 
    36    36    37    1 
    37    37    38    1 
    38    37    39    1 
    39    37    40    1 
    40     3    41    1 
    41    41    42    1 
    42    41    43    1 
    43    41    44    1 
    44    34     5    1 
    45    31    11    1 
    46    25    16    ar
@<TRIPOS>MOLECULE
Molecule 3_var_438.mol2
    12     0
SMALL
NO_CHARGES
@<TRIPOS>ATOM
      1 DON        86.3001   13.0940 -104.7630 HB    0     HB      0.0000
      2 DON        87.3334   17.2082 -105.3997 HB    1     HB      0.0000
      3 ACC        86.3001   13.0940 -104.7630 HB    2     HB      0.0000
      4 ACC        85.5493   15.0974 -105.7142 HB    3     HB      0.0000
      5 ACC        87.3334   17.2082 -105.3997 HB    4     HB      0.0000
      6 ACC        87.1951   19.0497 -103.3607 HB    5     HB      0.0000
      7 ACC        87.1074   18.9276 -100.9854 HB    6     HB      0.0000
      8 ACC        86.3812   15.6801 -102.1482 HB    7     HB      0.0000
      9 ACC        85.6030   13.7684 -103.1826 HB    8     HB      0.0000
     10 AR         87.4232   22.3978 -101.9935 AR    9     AR      0.0000
     11 HYD        85.5042   13.4821 -101.8042 HYD   10    HYD     0.0000
     12 HYD        85.8230   13.2224 -107.2134 HYD   11    HYD     0.0000
@<TRIPOS>BOND
