@<TRIPOS>MOLECULE
Molecule Ligandos_final.mol2
     7     0
SMALL
NO_CHARGES
@<TRIPOS>ATOM
      1 ACC        84.0160   17.9720 -102.6190 HB    0     HB      0.0000
      3 ACC        87.3820   17.0370 -104.9250 HB    2     HB      0.0000
      4 ACC        85.4470   14.9380 -105.0970 HB    3     HB      0.0000
      5 ACC        85.1600   16.1740 -101.7130 HB    4     HB      0.0000
      8 ACC        85.1610   13.2300 -102.3910 HB    7     HB      0.0000
      9 ACC        87.3660   19.7930 -101.1770 HB    8     HB      0.0000
     14 AR         88.1912   22.4273 -103.4502 AR    13    AR      0.0000
@<TRIPOS>BOND
@<TRIPOS>MOLECULE
Ligandos_final.mol2
    33    35
SMALL
NO_CHARGES
@<TRIPOS>ATOM
      1 C1         85.2230   17.5630 -101.9920 C.2   1     6041    0.3220
      2 C1A        89.0200   22.4480 -104.5680 C.1   1     6041   -0.0153
      3 O1         84.0160   17.9720 -102.6190 O.2   1     6041   -0.2570
      4 C2         86.3940   17.7720 -102.9310 C.2   1     6041    0.1898
      5 C2A        88.5540   21.2500 -104.0630 C.1   1     6041   -0.0391
      6 N2         86.6000   19.1550 -103.2580 N.2   1     6041   -0.1980
      7 C3         86.1760   16.9900 -104.2010 C.2   1     6041    0.2597
      8 C3A        88.6500   23.6220 -103.9480 C.1   1     6041   -0.0372
      9 O3         87.3820   17.0370 -104.9250 O.2   1     6041   -0.2812
     10 C4         85.8590   15.5500 -103.8860 C.2   1     6041    0.2671
     11 C4A        87.3640   22.4070 -102.3320 C.1   1     6041   -0.0737
     12 O4         85.4470   14.9380 -105.0970 O.2   1     6041   -0.2802
     13 C5         84.7070   15.5670 -102.9120 C.2   1     6041    0.1946
     14 C5A        83.9070   10.8720  -99.5110 C.1   1     6041    0.0077
     15 O5         85.1600   16.1740 -101.7130 O.3   1     6041   -0.2588
     16 C6         84.1030   14.2150 -102.6080 C.1   1     6041   -0.0101
     17 C6A        87.7310   21.2420 -102.9530 C.2   1     6041    0.1355
     18 C7         83.5430    9.5360  -99.7910 C.2   1     6041    0.1408
     19 C8         87.8280   23.5950 -102.8370 C.2   1     6041    0.1116
     20 C9         84.1850    9.1680 -100.9490 C.2   1     6041    0.1550
     21 C10        84.7590   11.2570 -100.5220 C.2   1     6041   -0.3150
     22 C11        87.2160   19.9950 -102.3720 C.2   1     6041    0.2943
     23 C12        82.5860    8.6870  -98.9390 C.2   1     6041    0.2217
     24 C18        84.2100    7.9320 -101.7430 Hev   1     6041    0.0000
     25 N21        85.1610   13.2300 -102.3910 N.2   1     6041   -0.3188
     26 O22        82.3520    7.5240  -99.3970 O.co2 1     6041   -0.6434
     27 O23        87.3660   19.7930 -101.1770 O.2   1     6041   -0.2639
     28 O24        82.1260    9.2470  -97.8970 O.co2 1     6041   -0.6434
     29 O25        85.0120   13.6990  -99.8100 O.2   1     6041   -0.9312
     30 O26        86.9580   12.3860 -100.7750 O.2   1     6041   -0.9312
     31 O27        84.9320   10.2180 -101.3920 O.3   1     6041   -0.2348
     32 S32        85.5660   12.7780 -100.7890 S.O2  1     6041    2.4641
     33 BR         87.2890   25.1810 -101.9440 Br    1     6041   -0.0315
@<TRIPOS>BOND
     1     1     3    1 
     2     1    15    1 
     3     1     4    1 
     4     2     5    ar
     5     2     8    ar
     6     4     6    1 
     7     4     7    1 
     8     5    17    ar
     9     6    22    1 
    10     7     9    1 
    11     7    10    1 
    12     8    19    ar
    13    10    12    1 
    14    10    13    1 
    15    11    17    ar
    16    11    19    ar
    17    13    15    1 
    18    13    16    1 
    19    14    18    ar
    20    14    21    ar
    21    16    25    1 
    22    17    22    1 
    23    18    20    ar
    24    18    23    1 
    25    19    33    1 
    26    20    24    1 
    27    20    31    ar
    28    21    31    ar
    29    21    32    1 
    30    22    27    2 
    31    23    26    ar
    32    23    28    ar
    33    25    32    1 
    34    29    32    2 
    35    30    32    2 
@<TRIPOS>MOLECULE
Molecule Ligandos_final.mol2
    15     0
SMALL
NO_CHARGES
@<TRIPOS>ATOM
      1 ACC        84.0160   17.9720 -102.6190 HB    0     HB      0.0000
      2 ACC        86.6000   19.1550 -103.2580 HB    1     HB      0.0000
      3 ACC        87.3820   17.0370 -104.9250 HB    2     HB      0.0000
      4 ACC        85.4470   14.9380 -105.0970 HB    3     HB      0.0000
      5 ACC        85.1600   16.1740 -101.7130 HB    4     HB      0.0000
      6 ACC        82.3520    7.5240  -99.3970 HB    5     HB      0.0000
      7 ACC        82.1260    9.2470  -97.8970 HB    6     HB      0.0000
      8 ACC        85.1610   13.2300 -102.3910 HB    7     HB      0.0000
      9 ACC        87.3660   19.7930 -101.1770 HB    8     HB      0.0000
     10 ACC        85.0120   13.6990  -99.8100 HB    9     HB      0.0000
     11 ACC        86.9580   12.3860 -100.7750 HB    10    HB      0.0000
     12 ACC        84.9320   10.2180 -101.3920 HB    11    HB      0.0000
     13 ANI        82.5860    8.6870  -98.9390 CHG   12    CHG     0.2217
     14 AR         88.1912   22.4273 -103.4502 AR    13    AR      0.0000
     15 AR         84.2652   10.2102 -100.4330 AR    14    AR      0.0000
@<TRIPOS>BOND
@<TRIPOS>MOLECULE
3_var_418.mol2
    57    60
SMALL
NO_CHARGES
@<TRIPOS>ATOM
      1 C1         84.4489   19.2913 -101.5660 C.3   1     UNK     0.0000
      2 O1         83.6533   18.4456 -102.3683 O.3   1     UNK     0.0000
      3 C2         84.4395   17.3930 -102.8946 C.3   1     UNK     0.0000
      4 O2         84.1696   16.2038 -102.1626 O.3   1     UNK     0.0000
      5 C3         84.9076   15.1267 -102.7073 C.3   1     UNK     0.0000
      6 C4         84.5355   13.8168 -102.0192 C.3   1     UNK     0.0000
      7 O3         85.3540   12.7685 -102.5010 O.3   1     UNK     0.0000
      8 C5         86.7214   13.0610 -102.2490 C.3   1     UNK     0.0000
      9 C6         87.5494   11.9019 -102.7365 C.ar  1     UNK     0.0000
     10 C7         87.5838   11.5903 -104.1077 C.ar  1     UNK     0.0000
     11 C8         88.3461   10.5124 -104.5679 C.ar  1     UNK     0.0000
     12 C9         89.0758    9.7348 -103.6652 C.ar  1     UNK     0.0000
     13 C10        89.0430   10.0324 -102.3002 C.ar  1     UNK     0.0000
     14 C11        88.2828   11.1102 -101.8349 C.ar  1     UNK     0.0000
     15 O4         87.1338   14.2272 -102.9485 O.3   1     UNK     0.0000
     16 C12        86.4088   15.3449 -102.4790 C.3   1     UNK     0.0000
     17 C13        86.8518   16.6263 -103.2021 C.3   1     UNK     0.0000
     18 O5         86.7387   16.4516 -104.6049 O.3   1     UNK     0.0000
     19 S1         85.1081   16.3693 -105.0695 S.o2  1     UNK     0.0000
     20 C14        84.7798   17.7002 -106.2000 C.3   1     UNK     0.0000
     21 O6         84.8237   15.0651 -105.7602 O.2   1     UNK     0.0000
     22 O7         84.2106   16.5137 -103.8721 O.2   1     UNK     0.0000
     23 C15        85.9330   17.7885 -102.7564 C.3   1     UNK     0.0000
     24 N1         86.5881   19.1206 -103.2652 N.am  1     UNK     0.0000
     25 C16        87.2339   20.0387 -102.4071 C.2   1     UNK     0.0000
     26 O8         87.3660   19.7930 -101.1769 O.2   1     UNK     0.0000
     27 C17        87.7638   21.3081 -102.9575 C.ar  1     UNK     0.0000
     28 C18        87.9330   22.4383 -102.1352 C.ar  1     UNK     0.0000
     29 C19        88.4180   23.6357 -102.6702 C.ar  1     UNK     0.0000
     30 C20        88.7341   23.7203 -104.0279 C.ar  1     UNK     0.0000
     31 C21        88.5602   22.6090 -104.8555 C.ar  1     UNK     0.0000
     32 C22        88.0735   21.4097 -104.3265 C.ar  1     UNK     0.0000
     33 H1         85.3133   19.7013 -102.1340 H     1     UNK     0.0000
     34 H2         84.7998   18.7590 -100.6545 H     1     UNK     0.0000
     35 H3         83.8288   20.1492 -101.2347 H     1     UNK     0.0000
     36 H4         84.2189   17.2459 -103.9827 H     1     UNK     0.0000
     37 H5         84.6893   15.0014 -103.7948 H     1     UNK     0.0000
     38 H6         84.6211   13.9070 -100.9120 H     1     UNK     0.0000
     39 H7         83.4767   13.5754 -102.2511 H     1     UNK     0.0000
     40 H8         86.8955   13.1850 -101.1519 H     1     UNK     0.0000
     41 H9         87.0217   12.1842 -104.8185 H     1     UNK     0.0000
     42 H10        88.3709   10.2805 -105.6246 H     1     UNK     0.0000
     43 H11        89.6651    8.9005 -104.0232 H     1     UNK     0.0000
     44 H12        89.6071    9.4276 -101.6020 H     1     UNK     0.0000
     45 H13        88.2685   11.3249 -100.7736 H     1     UNK     0.0000
     46 H14        86.6060   15.4938 -101.3895 H     1     UNK     0.0000
     47 H15        85.8875   16.4942 -102.6569 H     1     UNK     0.0000
     48 H16        84.9837   18.6692 -105.6996 H     1     UNK     0.0000
     49 H17        83.7175   17.6650 -106.5186 H     1     UNK     0.0000
     50 H18        85.4359   17.5997 -107.0893 H     1     UNK     0.0000
     51 H19        85.9662   17.7048 -101.8277 H     1     UNK     0.0000
     52 H20        86.2094   19.4071 -104.1827 H     1     UNK     0.0000
     53 H21        87.6677   22.4098 -101.0864 H     1     UNK     0.0000
     54 H22        88.5419   24.5013 -102.0323 H     1     UNK     0.0000
     55 H23        89.1086   24.6485 -104.4398 H     1     UNK     0.0000
     56 H24        88.8018   22.6768 -105.9084 H     1     UNK     0.0000
     57 H25        87.9483   20.5595 -104.9855 H     1     UNK     0.0000
@<TRIPOS>BOND
     1     1     2    1 
     2     2     3    1 
     3     3     4    1 
     4     4     5    1 
     5     5     6    1 
     6     6     7    1 
     7     7     8    1 
     8     8     9    1 
     9     9    10    ar
    10    10    11    ar
    11    11    12    ar
    12    12    13    ar
    13    13    14    ar
    14     8    15    1 
    15    15    16    1 
    16    16    17    1 
    17    17    18    1 
    18    18    19    1 
    19    19    20    1 
    20    19    21    2 
    21    19    22    2 
    22    17    23    1 
    23    23    24    1 
    24    24    25    am
    25    25    26    2 
    26    25    27    1 
    27    27    28    ar
    28    28    29    ar
    29    29    30    ar
    30    30    31    ar
    31    31    32    ar
    32    23     3    1 
    33    32    27    ar
    34    16     5    1 
    35    14     9    ar
    36     1    33    1 
    37     1    34    1 
    38     1    35    1 
    39     3    36    1 
    40     5    37    1 
    41     6    38    1 
    42     6    39    1 
    43     8    40    1 
    44    10    41    1 
    45    11    42    1 
    46    12    43    1 
    47    13    44    1 
    48    14    45    1 
    49    16    46    1 
    50    17    47    1 
    51    20    48    1 
    52    20    49    1 
    53    20    50    1 
    54    23    51    1 
    55    24    52    1 
    56    28    53    1 
    57    29    54    1 
    58    30    55    1 
    59    31    56    1 
    60    32    57    1 
@<TRIPOS>MOLECULE
Molecule 3_var_418.mol2
    13     0
SMALL
NO_CHARGES
@<TRIPOS>ATOM
      1 DON        86.5672   19.0890 -103.2537 HB    0     HB      0.0000
      2 ACC        83.6533   18.4456 -102.3683 HB    1     HB      0.0000
      3 ACC        84.1696   16.2038 -102.1626 HB    2     HB      0.0000
      4 ACC        85.3540   12.7685 -102.5010 HB    3     HB      0.0000
      5 ACC        87.1338   14.2272 -102.9485 HB    4     HB      0.0000
      6 ACC        86.7387   16.4516 -104.6049 HB    5     HB      0.0000
      7 ACC        84.8237   15.0651 -105.7602 HB    6     HB      0.0000
      8 ACC        84.2106   16.5137 -103.8721 HB    7     HB      0.0000
      9 ACC        87.3660   19.7930 -101.1769 HB    8     HB      0.0000
     10 AR         88.3135   10.8137 -103.2021 AR    9     AR      0.0000
     11 AR         88.2471   22.5202 -103.4955 AR    10    AR      0.0000
     12 HYD        84.4489   19.2913 -101.5660 HYD   11    HYD     0.0000
     13 HYD        84.7798   17.7002 -106.2000 HYD   12    HYD     0.0000
@<TRIPOS>BOND
