@<TRIPOS>MOLECULE
Molecule Ligandos_final.mol2
     6     0
SMALL
NO_CHARGES
@<TRIPOS>ATOM
      1 ACC        84.0160   17.9720 -102.6190 HB    0     HB      0.0000
      3 ACC        87.3820   17.0370 -104.9250 HB    2     HB      0.0000
      4 ACC        85.4470   14.9380 -105.0970 HB    3     HB      0.0000
      5 ACC        85.1600   16.1740 -101.7130 HB    4     HB      0.0000
      9 ACC        87.3660   19.7930 -101.1770 HB    8     HB      0.0000
     14 AR         88.1912   22.4273 -103.4502 AR    13    AR      0.0000
@<TRIPOS>BOND
@<TRIPOS>MOLECULE
Ligandos_final.mol2
    33    35
SMALL
NO_CHARGES
@<TRIPOS>ATOM
      1 C1         85.2230   17.5630 -101.9920 C.2   1     6041    0.3220
      2 C1A        89.0200   22.4480 -104.5680 C.1   1     6041   -0.0153
      3 O1         84.0160   17.9720 -102.6190 O.2   1     6041   -0.2570
      4 C2         86.3940   17.7720 -102.9310 C.2   1     6041    0.1898
      5 C2A        88.5540   21.2500 -104.0630 C.1   1     6041   -0.0391
      6 N2         86.6000   19.1550 -103.2580 N.2   1     6041   -0.1980
      7 C3         86.1760   16.9900 -104.2010 C.2   1     6041    0.2597
      8 C3A        88.6500   23.6220 -103.9480 C.1   1     6041   -0.0372
      9 O3         87.3820   17.0370 -104.9250 O.2   1     6041   -0.2812
     10 C4         85.8590   15.5500 -103.8860 C.2   1     6041    0.2671
     11 C4A        87.3640   22.4070 -102.3320 C.1   1     6041   -0.0737
     12 O4         85.4470   14.9380 -105.0970 O.2   1     6041   -0.2802
     13 C5         84.7070   15.5670 -102.9120 C.2   1     6041    0.1946
     14 C5A        83.9070   10.8720  -99.5110 C.1   1     6041    0.0077
     15 O5         85.1600   16.1740 -101.7130 O.3   1     6041   -0.2588
     16 C6         84.1030   14.2150 -102.6080 C.1   1     6041   -0.0101
     17 C6A        87.7310   21.2420 -102.9530 C.2   1     6041    0.1355
     18 C7         83.5430    9.5360  -99.7910 C.2   1     6041    0.1408
     19 C8         87.8280   23.5950 -102.8370 C.2   1     6041    0.1116
     20 C9         84.1850    9.1680 -100.9490 C.2   1     6041    0.1550
     21 C10        84.7590   11.2570 -100.5220 C.2   1     6041   -0.3150
     22 C11        87.2160   19.9950 -102.3720 C.2   1     6041    0.2943
     23 C12        82.5860    8.6870  -98.9390 C.2   1     6041    0.2217
     24 C18        84.2100    7.9320 -101.7430 Hev   1     6041    0.0000
     25 N21        85.1610   13.2300 -102.3910 N.2   1     6041   -0.3188
     26 O22        82.3520    7.5240  -99.3970 O.co2 1     6041   -0.6434
     27 O23        87.3660   19.7930 -101.1770 O.2   1     6041   -0.2639
     28 O24        82.1260    9.2470  -97.8970 O.co2 1     6041   -0.6434
     29 O25        85.0120   13.6990  -99.8100 O.2   1     6041   -0.9312
     30 O26        86.9580   12.3860 -100.7750 O.2   1     6041   -0.9312
     31 O27        84.9320   10.2180 -101.3920 O.3   1     6041   -0.2348
     32 S32        85.5660   12.7780 -100.7890 S.O2  1     6041    2.4641
     33 BR         87.2890   25.1810 -101.9440 Br    1     6041   -0.0315
@<TRIPOS>BOND
     1     1     3    1 
     2     1    15    1 
     3     1     4    1 
     4     2     5    ar
     5     2     8    ar
     6     4     6    1 
     7     4     7    1 
     8     5    17    ar
     9     6    22    1 
    10     7     9    1 
    11     7    10    1 
    12     8    19    ar
    13    10    12    1 
    14    10    13    1 
    15    11    17    ar
    16    11    19    ar
    17    13    15    1 
    18    13    16    1 
    19    14    18    ar
    20    14    21    ar
    21    16    25    1 
    22    17    22    1 
    23    18    20    ar
    24    18    23    1 
    25    19    33    1 
    26    20    24    1 
    27    20    31    ar
    28    21    31    ar
    29    21    32    1 
    30    22    27    2 
    31    23    26    ar
    32    23    28    ar
    33    25    32    1 
    34    29    32    2 
    35    30    32    2 
@<TRIPOS>MOLECULE
Molecule Ligandos_final.mol2
    15     0
SMALL
NO_CHARGES
@<TRIPOS>ATOM
      1 ACC        84.0160   17.9720 -102.6190 HB    0     HB      0.0000
      2 ACC        86.6000   19.1550 -103.2580 HB    1     HB      0.0000
      3 ACC        87.3820   17.0370 -104.9250 HB    2     HB      0.0000
      4 ACC        85.4470   14.9380 -105.0970 HB    3     HB      0.0000
      5 ACC        85.1600   16.1740 -101.7130 HB    4     HB      0.0000
      6 ACC        82.3520    7.5240  -99.3970 HB    5     HB      0.0000
      7 ACC        82.1260    9.2470  -97.8970 HB    6     HB      0.0000
      8 ACC        85.1610   13.2300 -102.3910 HB    7     HB      0.0000
      9 ACC        87.3660   19.7930 -101.1770 HB    8     HB      0.0000
     10 ACC        85.0120   13.6990  -99.8100 HB    9     HB      0.0000
     11 ACC        86.9580   12.3860 -100.7750 HB    10    HB      0.0000
     12 ACC        84.9320   10.2180 -101.3920 HB    11    HB      0.0000
     13 ANI        82.5860    8.6870  -98.9390 CHG   12    CHG     0.2217
     14 AR         88.1912   22.4273 -103.4502 AR    13    AR      0.0000
     15 AR         84.2652   10.2102 -100.4330 AR    14    AR      0.0000
@<TRIPOS>BOND
@<TRIPOS>MOLECULE
3_var_260.mol2
    42    43
SMALL
NO_CHARGES
@<TRIPOS>ATOM
      1 C1         85.4898   20.8123 -100.7020 C.3   1     UNK     0.0000
      2 C2         86.6828   19.9355 -100.8994 C.2   1     UNK     0.0000
      3 O1         87.5403   19.8344  -99.9806 O.2   1     UNK     0.0000
      4 N1         86.8277   19.1894 -102.1155 N.am  1     UNK     0.0000
      5 C3         85.8260   19.2330 -103.1894 C.3   1     UNK     0.0000
      6 C4         86.4287   18.7285 -104.5206 C.3   1     UNK     0.0000
      7 O2         87.6000   19.4846 -104.8367 O.3   1     UNK     0.0000
      8 C5         88.0011   20.6828 -104.2217 C.ar  1     UNK     0.0000
      9 C6         88.8741   21.6033 -104.8326 C.ar  1     UNK     0.0000
     10 C7         89.2360   22.7799 -104.1697 C.ar  1     UNK     0.0000
     11 C8         88.7383   23.0592 -102.8846 C.ar  1     UNK     0.0000
     12 N2         89.1084   24.2699 -102.1996 N.2   1     UNK     0.0000
     13 O3         89.8773   25.0952 -102.7351 O.co2 1     UNK     0.0000
     14 O4         88.6197   24.5389 -100.9415 O.co2 1     UNK     0.0000
     15 C9         87.8727   22.1345 -102.2768 C.ar  1     UNK     0.0000
     16 C10        87.5117   20.9590 -102.9407 C.ar  1     UNK     0.0000
     17 O5         86.8067   17.3657 -104.4168 O.3   1     UNK     0.0000
     18 C11        85.7016   16.5042 -104.1740 C.3   1     UNK     0.0000
     19 C12        84.8081   16.3281 -105.4196 C.3   1     UNK     0.0000
     20 O6         85.0558   15.0824 -106.0122 O.3   1     UNK     0.0000
     21 C13        84.9261   16.8779 -102.8837 C.3   1     UNK     0.0000
     22 O7         85.7065   16.5178 -101.7713 O.3   1     UNK     0.0000
     23 C14        84.5958   18.3867 -102.8191 C.3   1     UNK     0.0000
     24 O8         83.5387   18.6981 -103.6905 O.3   1     UNK     0.0000
     25 H1         85.6234   21.4584  -99.8084 H     1     UNK     0.0000
     26 H2         85.3500   21.4593 -101.5931 H     1     UNK     0.0000
     27 H3         84.5871   20.1817 -100.5625 H     1     UNK     0.0000
     28 H4         87.6974   18.6228 -102.2424 H     1     UNK     0.0000
     29 H5         85.5010   20.2871 -103.3253 H     1     UNK     0.0000
     30 H6         85.5684   19.4287 -104.4776 H     1     UNK     0.0000
     31 H7         89.2848   21.4244 -105.8155 H     1     UNK     0.0000
     32 H8         89.9075   23.4710 -104.6629 H     1     UNK     0.0000
     33 H9         87.4736   22.3189 -101.2878 H     1     UNK     0.0000
     34 H10        86.8426   20.2581 -102.4575 H     1     UNK     0.0000
     35 H11        86.7255   16.2315 -104.5145 H     1     UNK     0.0000
     36 H12        83.7314   16.4031 -105.1631 H     1     UNK     0.0000
     37 H13        85.0487   17.1340 -106.1488 H     1     UNK     0.0000
     38 H14        84.4704   15.0353 -106.8123 H     1     UNK     0.0000
     39 H15        83.9763   16.2940 -102.8544 H     1     UNK     0.0000
     40 H16        85.0979   16.4877 -100.9871 H     1     UNK     0.0000
     41 H17        84.2828   18.6473 -101.7811 H     1     UNK     0.0000
     42 H18        82.7085   18.3453 -103.2758 H     1     UNK     0.0000
@<TRIPOS>BOND
     1     1     2    1 
     2     2     3    2 
     3     2     4    am
     4     4     5    1 
     5     5     6    1 
     6     6     7    1 
     7     7     8    1 
     8     8     9    ar
     9     9    10    ar
    10    10    11    ar
    11    11    12    1 
    12    12    13    2 
    13    12    14    2 
    14    11    15    ar
    15    15    16    ar
    16     6    17    1 
    17    17    18    1 
    18    18    19    1 
    19    19    20    1 
    20    18    21    1 
    21    21    22    1 
    22    21    23    1 
    23    23    24    1 
    24    23     5    1 
    25    16     8    ar
    26     1    25    1 
    27     1    26    1 
    28     1    27    1 
    29     4    28    1 
    30     5    29    1 
    31     6    30    1 
    32     9    31    1 
    33    10    32    1 
    34    15    33    1 
    35    16    34    1 
    36    18    35    1 
    37    19    36    1 
    38    19    37    1 
    39    20    38    1 
    40    21    39    1 
    41    22    40    1 
    42    23    41    1 
    43    24    42    1 
@<TRIPOS>MOLECULE
Molecule 3_var_260.mol2
    12     0
SMALL
NO_CHARGES
@<TRIPOS>ATOM
      1 DON        86.8277   19.1894 -102.1155 HB    0     HB      0.0000
      2 DON        85.0558   15.0824 -106.0122 HB    1     HB      0.0000
      3 DON        85.7065   16.5178 -101.7713 HB    2     HB      0.0000
      4 DON        83.5387   18.6981 -103.6905 HB    3     HB      0.0000
      5 ACC        87.5403   19.8344  -99.9806 HB    4     HB      0.0000
      6 ACC        87.6000   19.4846 -104.8367 HB    5     HB      0.0000
      7 ACC        86.8067   17.3657 -104.4168 HB    6     HB      0.0000
      8 ACC        85.0558   15.0824 -106.0122 HB    7     HB      0.0000
      9 ACC        85.7065   16.5178 -101.7713 HB    8     HB      0.0000
     10 ACC        83.5387   18.6981 -103.6905 HB    9     HB      0.0000
     11 AR         88.3723   21.8698 -103.5543 AR    10    AR      0.0000
     12 HYD        85.4898   20.8123 -100.7020 HYD   11    HYD     0.0000
@<TRIPOS>BOND
