@<TRIPOS>MOLECULE
Molecule Ligandos_final.mol2
     6     0
SMALL
NO_CHARGES
@<TRIPOS>ATOM
      1 ACC        84.0160   17.9720 -102.6190 HB    0     HB      0.0000
      3 ACC        87.3820   17.0370 -104.9250 HB    2     HB      0.0000
      4 ACC        85.4470   14.9380 -105.0970 HB    3     HB      0.0000
      5 ACC        85.1600   16.1740 -101.7130 HB    4     HB      0.0000
      9 ACC        87.3660   19.7930 -101.1770 HB    8     HB      0.0000
     14 AR         88.1912   22.4273 -103.4502 AR    13    AR      0.0000
@<TRIPOS>BOND
@<TRIPOS>MOLECULE
Ligandos_final.mol2
    33    35
SMALL
NO_CHARGES
@<TRIPOS>ATOM
      1 C1         85.2230   17.5630 -101.9920 C.2   1     6041    0.3220
      2 C1A        89.0200   22.4480 -104.5680 C.1   1     6041   -0.0153
      3 O1         84.0160   17.9720 -102.6190 O.2   1     6041   -0.2570
      4 C2         86.3940   17.7720 -102.9310 C.2   1     6041    0.1898
      5 C2A        88.5540   21.2500 -104.0630 C.1   1     6041   -0.0391
      6 N2         86.6000   19.1550 -103.2580 N.2   1     6041   -0.1980
      7 C3         86.1760   16.9900 -104.2010 C.2   1     6041    0.2597
      8 C3A        88.6500   23.6220 -103.9480 C.1   1     6041   -0.0372
      9 O3         87.3820   17.0370 -104.9250 O.2   1     6041   -0.2812
     10 C4         85.8590   15.5500 -103.8860 C.2   1     6041    0.2671
     11 C4A        87.3640   22.4070 -102.3320 C.1   1     6041   -0.0737
     12 O4         85.4470   14.9380 -105.0970 O.2   1     6041   -0.2802
     13 C5         84.7070   15.5670 -102.9120 C.2   1     6041    0.1946
     14 C5A        83.9070   10.8720  -99.5110 C.1   1     6041    0.0077
     15 O5         85.1600   16.1740 -101.7130 O.3   1     6041   -0.2588
     16 C6         84.1030   14.2150 -102.6080 C.1   1     6041   -0.0101
     17 C6A        87.7310   21.2420 -102.9530 C.2   1     6041    0.1355
     18 C7         83.5430    9.5360  -99.7910 C.2   1     6041    0.1408
     19 C8         87.8280   23.5950 -102.8370 C.2   1     6041    0.1116
     20 C9         84.1850    9.1680 -100.9490 C.2   1     6041    0.1550
     21 C10        84.7590   11.2570 -100.5220 C.2   1     6041   -0.3150
     22 C11        87.2160   19.9950 -102.3720 C.2   1     6041    0.2943
     23 C12        82.5860    8.6870  -98.9390 C.2   1     6041    0.2217
     24 C18        84.2100    7.9320 -101.7430 Hev   1     6041    0.0000
     25 N21        85.1610   13.2300 -102.3910 N.2   1     6041   -0.3188
     26 O22        82.3520    7.5240  -99.3970 O.co2 1     6041   -0.6434
     27 O23        87.3660   19.7930 -101.1770 O.2   1     6041   -0.2639
     28 O24        82.1260    9.2470  -97.8970 O.co2 1     6041   -0.6434
     29 O25        85.0120   13.6990  -99.8100 O.2   1     6041   -0.9312
     30 O26        86.9580   12.3860 -100.7750 O.2   1     6041   -0.9312
     31 O27        84.9320   10.2180 -101.3920 O.3   1     6041   -0.2348
     32 S32        85.5660   12.7780 -100.7890 S.O2  1     6041    2.4641
     33 BR         87.2890   25.1810 -101.9440 Br    1     6041   -0.0315
@<TRIPOS>BOND
     1     1     3    1 
     2     1    15    1 
     3     1     4    1 
     4     2     5    ar
     5     2     8    ar
     6     4     6    1 
     7     4     7    1 
     8     5    17    ar
     9     6    22    1 
    10     7     9    1 
    11     7    10    1 
    12     8    19    ar
    13    10    12    1 
    14    10    13    1 
    15    11    17    ar
    16    11    19    ar
    17    13    15    1 
    18    13    16    1 
    19    14    18    ar
    20    14    21    ar
    21    16    25    1 
    22    17    22    1 
    23    18    20    ar
    24    18    23    1 
    25    19    33    1 
    26    20    24    1 
    27    20    31    ar
    28    21    31    ar
    29    21    32    1 
    30    22    27    2 
    31    23    26    ar
    32    23    28    ar
    33    25    32    1 
    34    29    32    2 
    35    30    32    2 
@<TRIPOS>MOLECULE
Molecule Ligandos_final.mol2
    15     0
SMALL
NO_CHARGES
@<TRIPOS>ATOM
      1 ACC        84.0160   17.9720 -102.6190 HB    0     HB      0.0000
      2 ACC        86.6000   19.1550 -103.2580 HB    1     HB      0.0000
      3 ACC        87.3820   17.0370 -104.9250 HB    2     HB      0.0000
      4 ACC        85.4470   14.9380 -105.0970 HB    3     HB      0.0000
      5 ACC        85.1600   16.1740 -101.7130 HB    4     HB      0.0000
      6 ACC        82.3520    7.5240  -99.3970 HB    5     HB      0.0000
      7 ACC        82.1260    9.2470  -97.8970 HB    6     HB      0.0000
      8 ACC        85.1610   13.2300 -102.3910 HB    7     HB      0.0000
      9 ACC        87.3660   19.7930 -101.1770 HB    8     HB      0.0000
     10 ACC        85.0120   13.6990  -99.8100 HB    9     HB      0.0000
     11 ACC        86.9580   12.3860 -100.7750 HB    10    HB      0.0000
     12 ACC        84.9320   10.2180 -101.3920 HB    11    HB      0.0000
     13 ANI        82.5860    8.6870  -98.9390 CHG   12    CHG     0.2217
     14 AR         88.1912   22.4273 -103.4502 AR    13    AR      0.0000
     15 AR         84.2652   10.2102 -100.4330 AR    14    AR      0.0000
@<TRIPOS>BOND
@<TRIPOS>MOLECULE
3_var_8.mol2
    58    62
SMALL
NO_CHARGES
@<TRIPOS>ATOM
      1 C1         88.2210   22.0019 -105.7990 C.3   1     UNK     0.0000
      2 N1         88.4320   22.8065 -104.5931 N.ar  1     UNK     0.0000
      3 C2         88.2331   22.4243 -103.3076 C.ar  1     UNK     0.0000
      4 C3         87.8409   21.0714 -102.8682 C.ar  1     UNK     0.0000
      5 C4         87.1558   20.1404 -103.6182 C.ar  1     UNK     0.0000
      6 N2         86.9945   19.0652 -102.8249 N.ar  1     UNK     0.0000
      7 C5         86.4025   17.8160 -102.8818 C.3   1     UNK     0.0000
      8 C6         85.1512   17.4797 -102.0273 C.3   1     UNK     0.0000
      9 O1         85.2713   16.1978 -101.4634 O.3   1     UNK     0.0000
     10 O2         83.9509   17.5947 -102.7786 O.3   1     UNK     0.0000
     11 C7         83.8568   16.6787 -103.8702 C.3   1     UNK     0.0000
     12 C8         83.0141   15.4561 -103.4663 C.3   1     UNK     0.0000
     13 O3         82.6096   14.7363 -104.6006 O.3   1     UNK     0.0000
     14 C9         85.2255   16.2752 -104.4969 C.3   1     UNK     0.0000
     15 O4         85.0740   15.8856 -105.8409 O.3   1     UNK     0.0000
     16 C10        86.2140   17.4407 -104.3708 C.3   1     UNK     0.0000
     17 O5         87.4453   17.0763 -104.9389 O.3   1     UNK     0.0000
     18 N3         87.5548   19.3232 -101.6538 N.ar  1     UNK     0.0000
     19 N4         88.0746   20.5423 -101.6498 N.ar  1     UNK     0.0000
     20 N5         88.4387   23.4279 -102.4284 N.ar  1     UNK     0.0000
     21 C11        88.7977   24.4825 -103.1872 C.ar  1     UNK     0.0000
     22 C12        89.1457   25.8008 -102.6123 C.ar  1     UNK     0.0000
     23 C13        88.4648   26.2627 -101.4729 C.ar  1     UNK     0.0000
     24 C14        88.7872   27.5014 -100.9101 C.ar  1     UNK     0.0000
     25 C15        89.7999   28.2839 -101.4712 C.ar  1     UNK     0.0000
     26 F1         90.1120   29.4841 -100.9234 F     1     UNK     0.0000
     27 C16        90.4972   27.8241 -102.5914 C.ar  1     UNK     0.0000
     28 C17        90.1781   26.5859 -103.1570 C.ar  1     UNK     0.0000
     29 C18        88.7996   24.1053 -104.5233 C.ar  1     UNK     0.0000
     30 C19        89.0589   24.9792 -105.6875 C.ar  1     UNK     0.0000
     31 C20        88.3474   26.1767 -105.8473 C.ar  1     UNK     0.0000
     32 C21        88.6220   26.9981 -106.9432 C.ar  1     UNK     0.0000
     33 N6         89.5735   26.6369 -107.8449 N.ar  1     UNK     0.0000
     34 C22        90.2796   25.4826 -107.7120 C.ar  1     UNK     0.0000
     35 C23        90.0371   24.6332 -106.6299 C.ar  1     UNK     0.0000
     36 H1         88.2137   22.6327 -106.7104 H     1     UNK     0.0000
     37 H2         87.2344   21.4962 -105.7488 H     1     UNK     0.0000
     38 H3         89.0274   21.2447 -105.8891 H     1     UNK     0.0000
     39 H4         86.8115   20.2309 -104.6405 H     1     UNK     0.0000
     40 H5         86.2789   17.1810 -102.2409 H     1     UNK     0.0000
     41 H6         85.0982   18.2136 -101.1903 H     1     UNK     0.0000
     42 H7         84.5347   16.1105 -100.8035 H     1     UNK     0.0000
     43 H8         83.2780   17.2147 -104.6543 H     1     UNK     0.0000
     44 H9         82.1021   15.8083 -102.9393 H     1     UNK     0.0000
     45 H10        83.5691   14.7983 -102.7602 H     1     UNK     0.0000
     46 H11        83.3241   14.0743 -104.7916 H     1     UNK     0.0000
     47 H12        85.6462   15.4061 -103.9435 H     1     UNK     0.0000
     48 H13        84.7598   16.6753 -106.3542 H     1     UNK     0.0000
     49 H14        85.7888   18.3069 -104.9320 H     1     UNK     0.0000
     50 H15        87.9609   17.9158 -105.0624 H     1     UNK     0.0000
     51 H16        87.6751   25.6706 -101.0270 H     1     UNK     0.0000
     52 H17        88.2511   27.8537 -100.0382 H     1     UNK     0.0000
     53 H18        91.2913   28.4232 -103.0180 H     1     UNK     0.0000
     54 H19        90.7536   26.2363 -104.0037 H     1     UNK     0.0000
     55 H20        87.5878   26.4696 -105.1329 H     1     UNK     0.0000
     56 H21        88.0784   27.9238 -107.0767 H     1     UNK     0.0000
     57 H22        91.0323   25.2256 -108.4451 H     1     UNK     0.0000
     58 H23        90.6116   23.7213 -106.5226 H     1     UNK     0.0000
@<TRIPOS>BOND
     1     1     2    1 
     2     2     3    ar
     3     3     4    1 
     4     4     5    ar
     5     5     6    ar
     6     6     7    1 
     7     7     8    1 
     8     8     9    1 
     9     8    10    1 
    10    10    11    1 
    11    11    12    1 
    12    12    13    1 
    13    11    14    1 
    14    14    15    1 
    15    14    16    1 
    16    16    17    1 
    17     6    18    ar
    18    18    19    ar
    19     3    20    ar
    20    20    21    ar
    21    21    22    1 
    22    22    23    ar
    23    23    24    ar
    24    24    25    ar
    25    25    26    1 
    26    25    27    ar
    27    27    28    ar
    28    21    29    ar
    29    29    30    1 
    30    30    31    ar
    31    31    32    ar
    32    32    33    ar
    33    33    34    ar
    34    34    35    ar
    35    29     2    ar
    36    35    30    ar
    37    19     4    ar
    38    28    22    ar
    39    16     7    1 
    40     1    36    1 
    41     1    37    1 
    42     1    38    1 
    43     5    39    1 
    44     7    40    1 
    45     8    41    1 
    46     9    42    1 
    47    11    43    1 
    48    12    44    1 
    49    12    45    1 
    50    13    46    1 
    51    14    47    1 
    52    15    48    1 
    53    16    49    1 
    54    17    50    1 
    55    23    51    1 
    56    24    52    1 
    57    27    53    1 
    58    28    54    1 
    59    31    55    1 
    60    32    56    1 
    61    34    57    1 
    62    35    58    1 
@<TRIPOS>MOLECULE
Molecule 3_var_8.mol2
    20     0
SMALL
NO_CHARGES
@<TRIPOS>ATOM
      1 DON        85.2713   16.1978 -101.4634 HB    0     HB      0.0000
      2 DON        82.6096   14.7363 -104.6006 HB    1     HB      0.0000
      3 DON        85.0740   15.8856 -105.8409 HB    2     HB      0.0000
      4 DON        87.4453   17.0763 -104.9389 HB    3     HB      0.0000
      5 ACC        85.2713   16.1978 -101.4634 HB    4     HB      0.0000
      6 ACC        83.9509   17.5947 -102.7786 HB    5     HB      0.0000
      7 ACC        82.6096   14.7363 -104.6006 HB    6     HB      0.0000
      8 ACC        85.0740   15.8856 -105.8409 HB    7     HB      0.0000
      9 ACC        87.4453   17.0763 -104.9389 HB    8     HB      0.0000
     10 ACC        87.5548   19.3232 -101.6538 HB    9     HB      0.0000
     11 ACC        88.0746   20.5423 -101.6498 HB    10    HB      0.0000
     12 ACC        88.4387   23.4279 -102.4284 HB    11    HB      0.0000
     13 ACC        89.5735   26.6369 -107.8449 HB    12    HB      0.0000
     14 CAT        88.4320   22.8065 -104.5931 CHG   13    CHG     0.0000
     15 CAT        86.9945   19.0652 -102.8249 CHG   14    CHG     0.0000
     16 AR         88.5402   23.4493 -103.6079 AR    15    AR      0.0000
     17 AR         87.5241   20.0285 -102.5230 AR    16    AR      0.0000
     18 AR         89.4788   27.0431 -102.0358 AR    17    AR      0.0000
     19 AR         89.3197   25.8178 -106.7775 AR    18    AR      0.0000
     20 HYD        88.2210   22.0019 -105.7990 HYD   19    HYD     0.0000
@<TRIPOS>BOND
