@<TRIPOS>MOLECULE
Molecule Ligandos_final.mol2
     6     0
SMALL
NO_CHARGES
@<TRIPOS>ATOM
      1 ACC        84.0160   17.9720 -102.6190 HB    0     HB      0.0000
      3 ACC        87.3820   17.0370 -104.9250 HB    2     HB      0.0000
      4 ACC        85.4470   14.9380 -105.0970 HB    3     HB      0.0000
      5 ACC        85.1600   16.1740 -101.7130 HB    4     HB      0.0000
      9 ACC        87.3660   19.7930 -101.1770 HB    8     HB      0.0000
     14 AR         88.1912   22.4273 -103.4502 AR    13    AR      0.0000
@<TRIPOS>BOND
@<TRIPOS>MOLECULE
Ligandos_final.mol2
    33    35
SMALL
NO_CHARGES
@<TRIPOS>ATOM
      1 C1         85.2230   17.5630 -101.9920 C.2   1     6041    0.3220
      2 C1A        89.0200   22.4480 -104.5680 C.1   1     6041   -0.0153
      3 O1         84.0160   17.9720 -102.6190 O.2   1     6041   -0.2570
      4 C2         86.3940   17.7720 -102.9310 C.2   1     6041    0.1898
      5 C2A        88.5540   21.2500 -104.0630 C.1   1     6041   -0.0391
      6 N2         86.6000   19.1550 -103.2580 N.2   1     6041   -0.1980
      7 C3         86.1760   16.9900 -104.2010 C.2   1     6041    0.2597
      8 C3A        88.6500   23.6220 -103.9480 C.1   1     6041   -0.0372
      9 O3         87.3820   17.0370 -104.9250 O.2   1     6041   -0.2812
     10 C4         85.8590   15.5500 -103.8860 C.2   1     6041    0.2671
     11 C4A        87.3640   22.4070 -102.3320 C.1   1     6041   -0.0737
     12 O4         85.4470   14.9380 -105.0970 O.2   1     6041   -0.2802
     13 C5         84.7070   15.5670 -102.9120 C.2   1     6041    0.1946
     14 C5A        83.9070   10.8720  -99.5110 C.1   1     6041    0.0077
     15 O5         85.1600   16.1740 -101.7130 O.3   1     6041   -0.2588
     16 C6         84.1030   14.2150 -102.6080 C.1   1     6041   -0.0101
     17 C6A        87.7310   21.2420 -102.9530 C.2   1     6041    0.1355
     18 C7         83.5430    9.5360  -99.7910 C.2   1     6041    0.1408
     19 C8         87.8280   23.5950 -102.8370 C.2   1     6041    0.1116
     20 C9         84.1850    9.1680 -100.9490 C.2   1     6041    0.1550
     21 C10        84.7590   11.2570 -100.5220 C.2   1     6041   -0.3150
     22 C11        87.2160   19.9950 -102.3720 C.2   1     6041    0.2943
     23 C12        82.5860    8.6870  -98.9390 C.2   1     6041    0.2217
     24 C18        84.2100    7.9320 -101.7430 Hev   1     6041    0.0000
     25 N21        85.1610   13.2300 -102.3910 N.2   1     6041   -0.3188
     26 O22        82.3520    7.5240  -99.3970 O.co2 1     6041   -0.6434
     27 O23        87.3660   19.7930 -101.1770 O.2   1     6041   -0.2639
     28 O24        82.1260    9.2470  -97.8970 O.co2 1     6041   -0.6434
     29 O25        85.0120   13.6990  -99.8100 O.2   1     6041   -0.9312
     30 O26        86.9580   12.3860 -100.7750 O.2   1     6041   -0.9312
     31 O27        84.9320   10.2180 -101.3920 O.3   1     6041   -0.2348
     32 S32        85.5660   12.7780 -100.7890 S.O2  1     6041    2.4641
     33 BR         87.2890   25.1810 -101.9440 Br    1     6041   -0.0315
@<TRIPOS>BOND
     1     1     3    1 
     2     1    15    1 
     3     1     4    1 
     4     2     5    ar
     5     2     8    ar
     6     4     6    1 
     7     4     7    1 
     8     5    17    ar
     9     6    22    1 
    10     7     9    1 
    11     7    10    1 
    12     8    19    ar
    13    10    12    1 
    14    10    13    1 
    15    11    17    ar
    16    11    19    ar
    17    13    15    1 
    18    13    16    1 
    19    14    18    ar
    20    14    21    ar
    21    16    25    1 
    22    17    22    1 
    23    18    20    ar
    24    18    23    1 
    25    19    33    1 
    26    20    24    1 
    27    20    31    ar
    28    21    31    ar
    29    21    32    1 
    30    22    27    2 
    31    23    26    ar
    32    23    28    ar
    33    25    32    1 
    34    29    32    2 
    35    30    32    2 
@<TRIPOS>MOLECULE
Molecule Ligandos_final.mol2
    15     0
SMALL
NO_CHARGES
@<TRIPOS>ATOM
      1 ACC        84.0160   17.9720 -102.6190 HB    0     HB      0.0000
      2 ACC        86.6000   19.1550 -103.2580 HB    1     HB      0.0000
      3 ACC        87.3820   17.0370 -104.9250 HB    2     HB      0.0000
      4 ACC        85.4470   14.9380 -105.0970 HB    3     HB      0.0000
      5 ACC        85.1600   16.1740 -101.7130 HB    4     HB      0.0000
      6 ACC        82.3520    7.5240  -99.3970 HB    5     HB      0.0000
      7 ACC        82.1260    9.2470  -97.8970 HB    6     HB      0.0000
      8 ACC        85.1610   13.2300 -102.3910 HB    7     HB      0.0000
      9 ACC        87.3660   19.7930 -101.1770 HB    8     HB      0.0000
     10 ACC        85.0120   13.6990  -99.8100 HB    9     HB      0.0000
     11 ACC        86.9580   12.3860 -100.7750 HB    10    HB      0.0000
     12 ACC        84.9320   10.2180 -101.3920 HB    11    HB      0.0000
     13 ANI        82.5860    8.6870  -98.9390 CHG   12    CHG     0.2217
     14 AR         88.1912   22.4273 -103.4502 AR    13    AR      0.0000
     15 AR         84.2652   10.2102 -100.4330 AR    14    AR      0.0000
@<TRIPOS>BOND
@<TRIPOS>MOLECULE
3_var_390.mol2
    42    43
SMALL
NO_CHARGES
@<TRIPOS>ATOM
      1 H1         85.1327   16.2624 -100.1725 H     1     UNK     0.0000
      2 O1         85.0534   16.6444 -101.1072 O.3   1     UNK     0.0000
      3 C1         84.1223   17.6400 -101.4022 C.2   1     UNK     0.0000
      4 N1         84.0071   18.1059 -102.6106 N.2   1     UNK     0.0000
      5 C2         84.8039   17.6603 -103.7565 C.3   1     UNK     0.0000
      6 H2         84.5323   18.2518 -104.6608 H     1     UNK     0.0000
      7 C3         86.3223   17.8205 -103.4926 C.3   1     UNK     0.0000
      8 H3         86.1312   18.0840 -104.9971 H     1     UNK     0.0000
      9 O2         86.6733   19.1818 -103.3089 O.3   1     UNK     0.0000
     10 C4         87.4226   20.2368 -103.7873 C.ar  1     UNK     0.0000
     11 C5         87.9369   20.3319 -105.0992 C.ar  1     UNK     0.0000
     12 H4         87.7588   19.5667 -105.8383 H     1     UNK     0.0000
     13 C6         88.7236   21.4220 -105.4748 C.ar  1     UNK     0.0000
     14 H5         89.1192   21.4815 -106.4806 H     1     UNK     0.0000
     15 C7         89.0064   22.4315 -104.5573 C.ar  1     UNK     0.0000
     16 H6         89.6181   23.2743 -104.8527 H     1     UNK     0.0000
     17 C8         88.5044   22.3558 -103.2579 C.ar  1     UNK     0.0000
     18 H7         88.7398   23.1517 -102.5623 H     1     UNK     0.0000
     19 C9         87.7113   21.2637 -102.8611 C.ar  1     UNK     0.0000
     20 C10        87.1936   21.1882 -101.4776 C.2   1     UNK     0.0000
     21 H8         86.9734   22.0913 -100.9239 H     1     UNK     0.0000
     22 O3         86.9977   20.0772 -100.9167 O.2   1     UNK     0.0000
     23 O4         87.0445   17.3962 -104.6359 O.3   1     UNK     0.0000
     24 C11        86.8793   16.0033 -104.8526 C.3   1     UNK     0.0000
     25 H9         87.1854   15.4312 -103.9450 H     1     UNK     0.0000
     26 C12        87.8267   15.5669 -105.9804 C.3   1     UNK     0.0000
     27 H10        87.7387   14.4712 -106.1666 H     1     UNK     0.0000
     28 H11        88.8729   15.7563 -105.6584 H     1     UNK     0.0000
     29 O5         87.5877   16.3023 -107.1518 O.3   1     UNK     0.0000
     30 H12        86.9459   15.7769 -107.6972 H     1     UNK     0.0000
     31 C13        85.4038   15.6782 -105.1880 C.3   1     UNK     0.0000
     32 H13        85.1254   16.2055 -106.1308 H     1     UNK     0.0000
     33 O6         85.2440   14.2925 -105.3546 O.3   1     UNK     0.0000
     34 H14        84.3730   14.1584 -105.8122 H     1     UNK     0.0000
     35 C14        84.4868   16.1838 -104.0595 C.3   1     UNK     0.0000
     36 H15        83.4299   16.1046 -104.4097 H     1     UNK     0.0000
     37 O7         84.6720   15.3922 -102.9105 O.3   1     UNK     0.0000
     38 H16        83.8327   15.4440 -102.3827 H     1     UNK     0.0000
     39 C15        83.2280   18.1585 -100.3232 C.3   1     UNK     0.0000
     40 H17        83.8405   18.4815  -99.4559 H     1     UNK     0.0000
     41 H18        82.5360   17.3525 -100.0010 H     1     UNK     0.0000
     42 H19        82.6314   19.0236 -100.6836 H     1     UNK     0.0000
@<TRIPOS>BOND
     1     1     2    1 
     2     2     3    1 
     3     3     4    2 
     4     4     5    1 
     5     5     6    1 
     6     5     7    1 
     7     7     8    1 
     8     7     9    1 
     9     9    10    1 
    10    10    11    ar
    11    11    12    1 
    12    11    13    ar
    13    13    14    1 
    14    13    15    ar
    15    15    16    1 
    16    15    17    ar
    17    17    18    1 
    18    17    19    ar
    19    19    20    1 
    20    20    21    1 
    21    20    22    2 
    22     7    23    1 
    23    23    24    1 
    24    24    25    1 
    25    24    26    1 
    26    26    27    1 
    27    26    28    1 
    28    26    29    1 
    29    29    30    1 
    30    24    31    1 
    31    31    32    1 
    32    31    33    1 
    33    33    34    1 
    34    31    35    1 
    35    35    36    1 
    36    35    37    1 
    37    37    38    1 
    38     3    39    1 
    39    39    40    1 
    40    39    41    1 
    41    39    42    1 
    42    35     5    1 
    43    19    10    ar
@<TRIPOS>MOLECULE
Molecule 3_var_390.mol2
    14     0
SMALL
NO_CHARGES
@<TRIPOS>ATOM
      1 DON        85.0534   16.6444 -101.1072 HB    0     HB      0.0000
      2 DON        87.5877   16.3023 -107.1518 HB    1     HB      0.0000
      3 DON        85.2440   14.2925 -105.3546 HB    2     HB      0.0000
      4 DON        84.6720   15.3922 -102.9105 HB    3     HB      0.0000
      5 ACC        85.0534   16.6444 -101.1072 HB    4     HB      0.0000
      6 ACC        84.0071   18.1059 -102.6106 HB    5     HB      0.0000
      7 ACC        86.6333   19.1498 -103.3607 HB    6     HB      0.0000
      8 ACC        86.9977   20.0772 -100.9167 HB    7     HB      0.0000
      9 ACC        87.0445   17.3962 -104.6359 HB    8     HB      0.0000
     10 ACC        87.5877   16.3023 -107.1518 HB    9     HB      0.0000
     11 ACC        85.2440   14.2925 -105.3546 HB    10    HB      0.0000
     12 ACC        84.6720   15.3922 -102.9105 HB    11    HB      0.0000
     13 AR         88.2175   21.3403 -104.1729 AR    12    AR      0.0000
     14 HYD        83.2280   18.1585 -100.3232 HYD   13    HYD     0.0000
@<TRIPOS>BOND
