@<TRIPOS>MOLECULE
Molecule Ligandos_final.mol2
     6     0
SMALL
NO_CHARGES
@<TRIPOS>ATOM
      3 ACC        87.3820   17.0370 -104.9250 HB    2     HB      0.0000
      4 ACC        85.4470   14.9380 -105.0970 HB    3     HB      0.0000
      5 ACC        85.1600   16.1740 -101.7130 HB    4     HB      0.0000
      8 ACC        85.1610   13.2300 -102.3910 HB    7     HB      0.0000
      9 ACC        87.3660   19.7930 -101.1770 HB    8     HB      0.0000
     14 AR         88.1912   22.4273 -103.4502 AR    13    AR      0.0000
@<TRIPOS>BOND
@<TRIPOS>MOLECULE
Ligandos_final.mol2
    33    35
SMALL
NO_CHARGES
@<TRIPOS>ATOM
      1 C1         85.2230   17.5630 -101.9920 C.2   1     6041    0.3220
      2 C1A        89.0200   22.4480 -104.5680 C.1   1     6041   -0.0153
      3 O1         84.0160   17.9720 -102.6190 O.2   1     6041   -0.2570
      4 C2         86.3940   17.7720 -102.9310 C.2   1     6041    0.1898
      5 C2A        88.5540   21.2500 -104.0630 C.1   1     6041   -0.0391
      6 N2         86.6000   19.1550 -103.2580 N.2   1     6041   -0.1980
      7 C3         86.1760   16.9900 -104.2010 C.2   1     6041    0.2597
      8 C3A        88.6500   23.6220 -103.9480 C.1   1     6041   -0.0372
      9 O3         87.3820   17.0370 -104.9250 O.2   1     6041   -0.2812
     10 C4         85.8590   15.5500 -103.8860 C.2   1     6041    0.2671
     11 C4A        87.3640   22.4070 -102.3320 C.1   1     6041   -0.0737
     12 O4         85.4470   14.9380 -105.0970 O.2   1     6041   -0.2802
     13 C5         84.7070   15.5670 -102.9120 C.2   1     6041    0.1946
     14 C5A        83.9070   10.8720  -99.5110 C.1   1     6041    0.0077
     15 O5         85.1600   16.1740 -101.7130 O.3   1     6041   -0.2588
     16 C6         84.1030   14.2150 -102.6080 C.1   1     6041   -0.0101
     17 C6A        87.7310   21.2420 -102.9530 C.2   1     6041    0.1355
     18 C7         83.5430    9.5360  -99.7910 C.2   1     6041    0.1408
     19 C8         87.8280   23.5950 -102.8370 C.2   1     6041    0.1116
     20 C9         84.1850    9.1680 -100.9490 C.2   1     6041    0.1550
     21 C10        84.7590   11.2570 -100.5220 C.2   1     6041   -0.3150
     22 C11        87.2160   19.9950 -102.3720 C.2   1     6041    0.2943
     23 C12        82.5860    8.6870  -98.9390 C.2   1     6041    0.2217
     24 C18        84.2100    7.9320 -101.7430 Hev   1     6041    0.0000
     25 N21        85.1610   13.2300 -102.3910 N.2   1     6041   -0.3188
     26 O22        82.3520    7.5240  -99.3970 O.co2 1     6041   -0.6434
     27 O23        87.3660   19.7930 -101.1770 O.2   1     6041   -0.2639
     28 O24        82.1260    9.2470  -97.8970 O.co2 1     6041   -0.6434
     29 O25        85.0120   13.6990  -99.8100 O.2   1     6041   -0.9312
     30 O26        86.9580   12.3860 -100.7750 O.2   1     6041   -0.9312
     31 O27        84.9320   10.2180 -101.3920 O.3   1     6041   -0.2348
     32 S32        85.5660   12.7780 -100.7890 S.O2  1     6041    2.4641
     33 BR         87.2890   25.1810 -101.9440 Br    1     6041   -0.0315
@<TRIPOS>BOND
     1     1     3    1 
     2     1    15    1 
     3     1     4    1 
     4     2     5    ar
     5     2     8    ar
     6     4     6    1 
     7     4     7    1 
     8     5    17    ar
     9     6    22    1 
    10     7     9    1 
    11     7    10    1 
    12     8    19    ar
    13    10    12    1 
    14    10    13    1 
    15    11    17    ar
    16    11    19    ar
    17    13    15    1 
    18    13    16    1 
    19    14    18    ar
    20    14    21    ar
    21    16    25    1 
    22    17    22    1 
    23    18    20    ar
    24    18    23    1 
    25    19    33    1 
    26    20    24    1 
    27    20    31    ar
    28    21    31    ar
    29    21    32    1 
    30    22    27    2 
    31    23    26    ar
    32    23    28    ar
    33    25    32    1 
    34    29    32    2 
    35    30    32    2 
@<TRIPOS>MOLECULE
Molecule Ligandos_final.mol2
    15     0
SMALL
NO_CHARGES
@<TRIPOS>ATOM
      1 ACC        84.0160   17.9720 -102.6190 HB    0     HB      0.0000
      2 ACC        86.6000   19.1550 -103.2580 HB    1     HB      0.0000
      3 ACC        87.3820   17.0370 -104.9250 HB    2     HB      0.0000
      4 ACC        85.4470   14.9380 -105.0970 HB    3     HB      0.0000
      5 ACC        85.1600   16.1740 -101.7130 HB    4     HB      0.0000
      6 ACC        82.3520    7.5240  -99.3970 HB    5     HB      0.0000
      7 ACC        82.1260    9.2470  -97.8970 HB    6     HB      0.0000
      8 ACC        85.1610   13.2300 -102.3910 HB    7     HB      0.0000
      9 ACC        87.3660   19.7930 -101.1770 HB    8     HB      0.0000
     10 ACC        85.0120   13.6990  -99.8100 HB    9     HB      0.0000
     11 ACC        86.9580   12.3860 -100.7750 HB    10    HB      0.0000
     12 ACC        84.9320   10.2180 -101.3920 HB    11    HB      0.0000
     13 ANI        82.5860    8.6870  -98.9390 CHG   12    CHG     0.2217
     14 AR         88.1912   22.4273 -103.4502 AR    13    AR      0.0000
     15 AR         84.2652   10.2102 -100.4330 AR    14    AR      0.0000
@<TRIPOS>BOND
@<TRIPOS>MOLECULE
3_var_363.mol2
    38    39
SMALL
NO_CHARGES
@<TRIPOS>ATOM
      1 N1         85.1852   19.1037 -103.7953 N.4   1     UNK     0.0000
      2 C1         86.4485   18.6692 -103.1880 C.3   1     UNK     0.0000
      3 C2         87.0332   17.4614 -103.9543 C.3   1     UNK     0.0000
      4 O1         87.2225   17.7624 -105.3139 O.3   1     UNK     0.0000
      5 C3         86.1326   16.2137 -103.7936 C.3   1     UNK     0.0000
      6 O2         85.1154   16.2052 -104.7651 O.3   1     UNK     0.0000
      7 C4         85.4825   16.1898 -102.3854 C.3   1     UNK     0.0000
      8 C5         85.2846   14.7491 -101.8959 C.3   1     UNK     0.0000
      9 O3         85.8693   13.8431 -102.7925 O.3   1     UNK     0.0000
     10 O4         86.2991   16.8879 -101.4620 O.3   1     UNK     0.0000
     11 C6         86.2301   18.2906 -101.6854 C.3   1     UNK     0.0000
     12 O5         87.2640   18.8942 -100.9202 O.3   1     UNK     0.0000
     13 C7         87.3179   20.2960 -101.1075 C.3   1     UNK     0.0000
     14 C8         87.9291   20.6407 -102.4412 C.ar  1     UNK     0.0000
     15 C9         88.0062   21.9811 -102.8528 C.ar  1     UNK     0.0000
     16 C10        88.6023   22.3093 -104.0743 C.ar  1     UNK     0.0000
     17 C11        89.1248   21.3030 -104.8913 C.ar  1     UNK     0.0000
     18 C12        89.0517   19.9667 -104.4882 C.ar  1     UNK     0.0000
     19 C13        88.4566   19.6343 -103.2673 C.ar  1     UNK     0.0000
     20 H1         85.3748   19.4196 -104.7739 H     1     UNK     0.0000
     21 H2         84.8541   19.9567 -103.2887 H     1     UNK     0.0000
     22 H3         87.1773   19.5099 -103.2575 H     1     UNK     0.0000
     23 H4         88.0242   17.2194 -103.5004 H     1     UNK     0.0000
     24 H5         87.9844   18.3972 -105.3638 H     1     UNK     0.0000
     25 H6         86.7828   15.3140 -103.9205 H     1     UNK     0.0000
     26 H7         85.4989   15.7992 -105.5861 H     1     UNK     0.0000
     27 H8         84.4679   16.6552 -102.4334 H     1     UNK     0.0000
     28 H9         86.2683   14.2396 -101.7738 H     1     UNK     0.0000
     29 H10        84.6986   14.1813 -102.6502 H     1     UNK     0.0000
     30 H11        85.2308   13.7323 -103.5444 H     1     UNK     0.0000
     31 H12        85.6056   19.0427 -102.2303 H     1     UNK     0.0000
     32 H13        86.3003   20.7389 -101.0704 H     1     UNK     0.0000
     33 H14        87.1719   19.1983 -100.9814 H     1     UNK     0.0000
     34 H15        87.6118   22.7698 -102.2239 H     1     UNK     0.0000
     35 H16        88.6617   23.3441 -104.3861 H     1     UNK     0.0000
     36 H17        89.5873   21.5585 -105.8358 H     1     UNK     0.0000
     37 H18        89.4592   19.1886 -105.1204 H     1     UNK     0.0000
     38 H19        88.4152   18.5958 -102.9636 H     1     UNK     0.0000
@<TRIPOS>BOND
     1     1     2    1 
     2     2     3    1 
     3     3     4    1 
     4     3     5    1 
     5     5     6    1 
     6     5     7    1 
     7     7     8    1 
     8     8     9    1 
     9     7    10    1 
    10    10    11    1 
    11    11    12    1 
    12    12    13    1 
    13    13    14    1 
    14    14    15    ar
    15    15    16    ar
    16    16    17    ar
    17    17    18    ar
    18    18    19    ar
    19    11     2    1 
    20    19    14    ar
    21     1    20    1 
    22     1    21    1 
    23     2    22    1 
    24     3    23    1 
    25     4    24    1 
    26     5    25    1 
    27     6    26    1 
    28     7    27    1 
    29     8    28    1 
    30     8    29    1 
    31     9    30    1 
    32    11    31    1 
    33    13    32    1 
    34    13    33    1 
    35    15    34    1 
    36    16    35    1 
    37    17    36    1 
    38    18    37    1 
    39    19    38    1 
@<TRIPOS>MOLECULE
Molecule 3_var_363.mol2
    11     0
SMALL
NO_CHARGES
@<TRIPOS>ATOM
      1 DON        85.1852   19.1037 -103.7953 HB    0     HB      0.0000
      2 DON        87.2225   17.7624 -105.3139 HB    1     HB      0.0000
      3 DON        85.1154   16.2052 -104.7651 HB    2     HB      0.0000
      4 DON        85.8693   13.8431 -102.7925 HB    3     HB      0.0000
      5 ACC        87.2225   17.7624 -105.3139 HB    4     HB      0.0000
      6 ACC        85.1154   16.2052 -104.7651 HB    5     HB      0.0000
      7 ACC        85.8693   13.8431 -102.7925 HB    6     HB      0.0000
      8 ACC        86.2991   16.8879 -101.4620 HB    7     HB      0.0000
      9 ACC        87.2640   18.8942 -100.9202 HB    8     HB      0.0000
     10 CAT        85.1852   19.1037 -103.7953 CHG   9     CHG     0.0000
     11 AR         88.5285   20.9725 -103.6692 AR    10    AR      0.0000
@<TRIPOS>BOND
