@<TRIPOS>MOLECULE
Molecule Ligandos_final.mol2
     6     0
SMALL
NO_CHARGES
@<TRIPOS>ATOM
      1 ACC        84.0160   17.9720 -102.6190 HB    0     HB      0.0000
      3 ACC        87.3820   17.0370 -104.9250 HB    2     HB      0.0000
      4 ACC        85.4470   14.9380 -105.0970 HB    3     HB      0.0000
      5 ACC        85.1600   16.1740 -101.7130 HB    4     HB      0.0000
      9 ACC        87.3660   19.7930 -101.1770 HB    8     HB      0.0000
     14 AR         88.1912   22.4273 -103.4502 AR    13    AR      0.0000
@<TRIPOS>BOND
@<TRIPOS>MOLECULE
Ligandos_final.mol2
    33    35
SMALL
NO_CHARGES
@<TRIPOS>ATOM
      1 C1         85.2230   17.5630 -101.9920 C.2   1     6041    0.3220
      2 C1A        89.0200   22.4480 -104.5680 C.1   1     6041   -0.0153
      3 O1         84.0160   17.9720 -102.6190 O.2   1     6041   -0.2570
      4 C2         86.3940   17.7720 -102.9310 C.2   1     6041    0.1898
      5 C2A        88.5540   21.2500 -104.0630 C.1   1     6041   -0.0391
      6 N2         86.6000   19.1550 -103.2580 N.2   1     6041   -0.1980
      7 C3         86.1760   16.9900 -104.2010 C.2   1     6041    0.2597
      8 C3A        88.6500   23.6220 -103.9480 C.1   1     6041   -0.0372
      9 O3         87.3820   17.0370 -104.9250 O.2   1     6041   -0.2812
     10 C4         85.8590   15.5500 -103.8860 C.2   1     6041    0.2671
     11 C4A        87.3640   22.4070 -102.3320 C.1   1     6041   -0.0737
     12 O4         85.4470   14.9380 -105.0970 O.2   1     6041   -0.2802
     13 C5         84.7070   15.5670 -102.9120 C.2   1     6041    0.1946
     14 C5A        83.9070   10.8720  -99.5110 C.1   1     6041    0.0077
     15 O5         85.1600   16.1740 -101.7130 O.3   1     6041   -0.2588
     16 C6         84.1030   14.2150 -102.6080 C.1   1     6041   -0.0101
     17 C6A        87.7310   21.2420 -102.9530 C.2   1     6041    0.1355
     18 C7         83.5430    9.5360  -99.7910 C.2   1     6041    0.1408
     19 C8         87.8280   23.5950 -102.8370 C.2   1     6041    0.1116
     20 C9         84.1850    9.1680 -100.9490 C.2   1     6041    0.1550
     21 C10        84.7590   11.2570 -100.5220 C.2   1     6041   -0.3150
     22 C11        87.2160   19.9950 -102.3720 C.2   1     6041    0.2943
     23 C12        82.5860    8.6870  -98.9390 C.2   1     6041    0.2217
     24 C18        84.2100    7.9320 -101.7430 Hev   1     6041    0.0000
     25 N21        85.1610   13.2300 -102.3910 N.2   1     6041   -0.3188
     26 O22        82.3520    7.5240  -99.3970 O.co2 1     6041   -0.6434
     27 O23        87.3660   19.7930 -101.1770 O.2   1     6041   -0.2639
     28 O24        82.1260    9.2470  -97.8970 O.co2 1     6041   -0.6434
     29 O25        85.0120   13.6990  -99.8100 O.2   1     6041   -0.9312
     30 O26        86.9580   12.3860 -100.7750 O.2   1     6041   -0.9312
     31 O27        84.9320   10.2180 -101.3920 O.3   1     6041   -0.2348
     32 S32        85.5660   12.7780 -100.7890 S.O2  1     6041    2.4641
     33 BR         87.2890   25.1810 -101.9440 Br    1     6041   -0.0315
@<TRIPOS>BOND
     1     1     3    1 
     2     1    15    1 
     3     1     4    1 
     4     2     5    ar
     5     2     8    ar
     6     4     6    1 
     7     4     7    1 
     8     5    17    ar
     9     6    22    1 
    10     7     9    1 
    11     7    10    1 
    12     8    19    ar
    13    10    12    1 
    14    10    13    1 
    15    11    17    ar
    16    11    19    ar
    17    13    15    1 
    18    13    16    1 
    19    14    18    ar
    20    14    21    ar
    21    16    25    1 
    22    17    22    1 
    23    18    20    ar
    24    18    23    1 
    25    19    33    1 
    26    20    24    1 
    27    20    31    ar
    28    21    31    ar
    29    21    32    1 
    30    22    27    2 
    31    23    26    ar
    32    23    28    ar
    33    25    32    1 
    34    29    32    2 
    35    30    32    2 
@<TRIPOS>MOLECULE
Molecule Ligandos_final.mol2
    15     0
SMALL
NO_CHARGES
@<TRIPOS>ATOM
      1 ACC        84.0160   17.9720 -102.6190 HB    0     HB      0.0000
      2 ACC        86.6000   19.1550 -103.2580 HB    1     HB      0.0000
      3 ACC        87.3820   17.0370 -104.9250 HB    2     HB      0.0000
      4 ACC        85.4470   14.9380 -105.0970 HB    3     HB      0.0000
      5 ACC        85.1600   16.1740 -101.7130 HB    4     HB      0.0000
      6 ACC        82.3520    7.5240  -99.3970 HB    5     HB      0.0000
      7 ACC        82.1260    9.2470  -97.8970 HB    6     HB      0.0000
      8 ACC        85.1610   13.2300 -102.3910 HB    7     HB      0.0000
      9 ACC        87.3660   19.7930 -101.1770 HB    8     HB      0.0000
     10 ACC        85.0120   13.6990  -99.8100 HB    9     HB      0.0000
     11 ACC        86.9580   12.3860 -100.7750 HB    10    HB      0.0000
     12 ACC        84.9320   10.2180 -101.3920 HB    11    HB      0.0000
     13 ANI        82.5860    8.6870  -98.9390 CHG   12    CHG     0.2217
     14 AR         88.1912   22.4273 -103.4502 AR    13    AR      0.0000
     15 AR         84.2652   10.2102 -100.4330 AR    14    AR      0.0000
@<TRIPOS>BOND
@<TRIPOS>MOLECULE
3_var_300.mol2
    41    43
SMALL
NO_CHARGES
@<TRIPOS>ATOM
      1 H1         82.2664   17.2302 -102.5305 H     1     UNK     0.0000
      2 O1         83.2362   16.9405 -102.5700 O.3   1     UNK     0.0000
      3 C1         83.6496   15.7250 -102.0258 C.2   1     UNK     0.0000
      4 N1         84.8991   15.3695 -102.0651 N.2   1     UNK     0.0000
      5 C2         85.9791   16.1684 -102.6503 C.3   1     UNK     0.0000
      6 H2         86.9581   15.6677 -102.4694 H     1     UNK     0.0000
      7 C3         86.0322   17.5489 -101.9567 C.3   1     UNK     0.0000
      8 H3         86.3986   17.4195 -100.9104 H     1     UNK     0.0000
      9 O2         84.7618   18.1545 -101.9506 O.3   1     UNK     0.0000
     10 H4         84.2820   17.8155 -101.1505 H     1     UNK     0.0000
     11 C4         87.0286   18.4412 -102.7054 C.3   1     UNK     0.0000
     12 H5         88.0423   17.9871 -102.5828 H     1     UNK     0.0000
     13 O3         87.0256   19.7528 -102.1923 O.3   1     UNK     0.0000
     14 C5         88.0166   20.5585 -102.8344 C.3   1     UNK     0.0000
     15 H6         87.4439   20.1509 -101.9733 H     1     UNK     0.0000
     16 C6         87.4858   21.9490 -103.1072 C.ar  1     UNK     0.0000
     17 C7         87.1245   22.7778 -102.0308 C.ar  1     UNK     0.0000
     18 H7         87.1985   22.4166 -101.0124 H     1     UNK     0.0000
     19 C8         86.6660   24.0784 -102.2623 C.ar  1     UNK     0.0000
     20 H8         86.3842   24.7084 -101.4286 H     1     UNK     0.0000
     21 C9         86.5765   24.5678 -103.5677 C.ar  1     UNK     0.0000
     22 H9         86.2239   25.5757 -103.7449 H     1     UNK     0.0000
     23 C10        86.9489   23.7588 -104.6441 C.ar  1     UNK     0.0000
     24 H10        86.8879   24.1423 -105.6542 H     1     UNK     0.0000
     25 C11        87.4067   22.4572 -104.4179 C.ar  1     UNK     0.0000
     26 H11        87.7035   21.8526 -105.2653 H     1     UNK     0.0000
     27 O4         88.5791   19.9945 -104.0218 O.3   1     UNK     0.0000
     28 C12        87.5837   19.4854 -104.8929 C.3   1     UNK     0.0000
     29 H12        87.0016   20.3238 -105.3357 H     1     UNK     0.0000
     30 H13        88.0942   18.9820 -105.7413 H     1     UNK     0.0000
     31 C13        86.6480   18.4905 -104.1862 C.3   1     UNK     0.0000
     32 H14        85.6100   18.8849 -104.3032 H     1     UNK     0.0000
     33 O5         86.7511   17.1964 -104.7522 O.3   1     UNK     0.0000
     34 C14        85.7692   16.3373 -104.1824 C.3   1     UNK     0.0000
     35 H15        84.7504   16.7492 -104.3682 H     1     UNK     0.0000
     36 O6         85.8252   15.0900 -104.8218 O.3   1     UNK     0.0000
     37 H16        86.7692   14.7843 -104.7821 H     1     UNK     0.0000
     38 C15        82.6504   14.8282 -101.3690 C.3   1     UNK     0.0000
     39 H17        82.4246   15.2113 -100.3523 H     1     UNK     0.0000
     40 H18        83.0444   13.7924 -101.2887 H     1     UNK     0.0000
     41 H19        81.7151   14.8063 -101.9667 H     1     UNK     0.0000
@<TRIPOS>BOND
     1     1     2    1 
     2     2     3    1 
     3     3     4    2 
     4     4     5    1 
     5     5     6    1 
     6     5     7    1 
     7     7     8    1 
     8     7     9    1 
     9     9    10    1 
    10     7    11    1 
    11    11    12    1 
    12    11    13    1 
    13    13    14    1 
    14    14    15    1 
    15    14    16    1 
    16    16    17    ar
    17    17    18    1 
    18    17    19    ar
    19    19    20    1 
    20    19    21    ar
    21    21    22    1 
    22    21    23    ar
    23    23    24    1 
    24    23    25    ar
    25    25    26    1 
    26    14    27    1 
    27    27    28    1 
    28    28    29    1 
    29    28    30    1 
    30    28    31    1 
    31    31    32    1 
    32    31    33    1 
    33    33    34    1 
    34    34    35    1 
    35    34    36    1 
    36    36    37    1 
    37     3    38    1 
    38    38    39    1 
    39    38    40    1 
    40    38    41    1 
    41    34     5    1 
    42    31    11    1 
    43    25    16    ar
@<TRIPOS>MOLECULE
Molecule 3_var_300.mol2
    12     0
SMALL
NO_CHARGES
@<TRIPOS>ATOM
      1 DON        83.2362   16.9405 -102.5700 HB    0     HB      0.0000
      2 DON        84.7618   18.1545 -101.9506 HB    1     HB      0.0000
      3 DON        85.8252   15.0900 -104.8218 HB    2     HB      0.0000
      4 ACC        83.2362   16.9405 -102.5700 HB    3     HB      0.0000
      5 ACC        84.8991   15.3695 -102.0651 HB    4     HB      0.0000
      6 ACC        84.7618   18.1545 -101.9506 HB    5     HB      0.0000
      7 ACC        87.0256   19.7528 -102.1923 HB    6     HB      0.0000
      8 ACC        88.5791   19.9945 -104.0218 HB    7     HB      0.0000
      9 ACC        86.7511   17.1964 -104.7522 HB    8     HB      0.0000
     10 ACC        85.8252   15.0900 -104.8218 HB    9     HB      0.0000
     11 AR         87.0347   23.2648 -103.3383 AR    10    AR      0.0000
     12 HYD        82.6504   14.8282 -101.3690 HYD   11    HYD     0.0000
@<TRIPOS>BOND
