@<TRIPOS>MOLECULE
Molecule Ligandos_final.mol2
     6     0
SMALL
NO_CHARGES
@<TRIPOS>ATOM
      1 ACC        84.0160   17.9720 -102.6190 HB    0     HB      0.0000
      4 ACC        85.4470   14.9380 -105.0970 HB    3     HB      0.0000
      5 ACC        85.1600   16.1740 -101.7130 HB    4     HB      0.0000
      8 ACC        85.1610   13.2300 -102.3910 HB    7     HB      0.0000
      9 ACC        87.3660   19.7930 -101.1770 HB    8     HB      0.0000
     14 AR         88.1912   22.4273 -103.4502 AR    13    AR      0.0000
@<TRIPOS>BOND
@<TRIPOS>MOLECULE
Ligandos_final.mol2
    33    35
SMALL
NO_CHARGES
@<TRIPOS>ATOM
      1 C1         85.2230   17.5630 -101.9920 C.2   1     6041    0.3220
      2 C1A        89.0200   22.4480 -104.5680 C.1   1     6041   -0.0153
      3 O1         84.0160   17.9720 -102.6190 O.2   1     6041   -0.2570
      4 C2         86.3940   17.7720 -102.9310 C.2   1     6041    0.1898
      5 C2A        88.5540   21.2500 -104.0630 C.1   1     6041   -0.0391
      6 N2         86.6000   19.1550 -103.2580 N.2   1     6041   -0.1980
      7 C3         86.1760   16.9900 -104.2010 C.2   1     6041    0.2597
      8 C3A        88.6500   23.6220 -103.9480 C.1   1     6041   -0.0372
      9 O3         87.3820   17.0370 -104.9250 O.2   1     6041   -0.2812
     10 C4         85.8590   15.5500 -103.8860 C.2   1     6041    0.2671
     11 C4A        87.3640   22.4070 -102.3320 C.1   1     6041   -0.0737
     12 O4         85.4470   14.9380 -105.0970 O.2   1     6041   -0.2802
     13 C5         84.7070   15.5670 -102.9120 C.2   1     6041    0.1946
     14 C5A        83.9070   10.8720  -99.5110 C.1   1     6041    0.0077
     15 O5         85.1600   16.1740 -101.7130 O.3   1     6041   -0.2588
     16 C6         84.1030   14.2150 -102.6080 C.1   1     6041   -0.0101
     17 C6A        87.7310   21.2420 -102.9530 C.2   1     6041    0.1355
     18 C7         83.5430    9.5360  -99.7910 C.2   1     6041    0.1408
     19 C8         87.8280   23.5950 -102.8370 C.2   1     6041    0.1116
     20 C9         84.1850    9.1680 -100.9490 C.2   1     6041    0.1550
     21 C10        84.7590   11.2570 -100.5220 C.2   1     6041   -0.3150
     22 C11        87.2160   19.9950 -102.3720 C.2   1     6041    0.2943
     23 C12        82.5860    8.6870  -98.9390 C.2   1     6041    0.2217
     24 C18        84.2100    7.9320 -101.7430 Hev   1     6041    0.0000
     25 N21        85.1610   13.2300 -102.3910 N.2   1     6041   -0.3188
     26 O22        82.3520    7.5240  -99.3970 O.co2 1     6041   -0.6434
     27 O23        87.3660   19.7930 -101.1770 O.2   1     6041   -0.2639
     28 O24        82.1260    9.2470  -97.8970 O.co2 1     6041   -0.6434
     29 O25        85.0120   13.6990  -99.8100 O.2   1     6041   -0.9312
     30 O26        86.9580   12.3860 -100.7750 O.2   1     6041   -0.9312
     31 O27        84.9320   10.2180 -101.3920 O.3   1     6041   -0.2348
     32 S32        85.5660   12.7780 -100.7890 S.O2  1     6041    2.4641
     33 BR         87.2890   25.1810 -101.9440 Br    1     6041   -0.0315
@<TRIPOS>BOND
     1     1     3    1 
     2     1    15    1 
     3     1     4    1 
     4     2     5    ar
     5     2     8    ar
     6     4     6    1 
     7     4     7    1 
     8     5    17    ar
     9     6    22    1 
    10     7     9    1 
    11     7    10    1 
    12     8    19    ar
    13    10    12    1 
    14    10    13    1 
    15    11    17    ar
    16    11    19    ar
    17    13    15    1 
    18    13    16    1 
    19    14    18    ar
    20    14    21    ar
    21    16    25    1 
    22    17    22    1 
    23    18    20    ar
    24    18    23    1 
    25    19    33    1 
    26    20    24    1 
    27    20    31    ar
    28    21    31    ar
    29    21    32    1 
    30    22    27    2 
    31    23    26    ar
    32    23    28    ar
    33    25    32    1 
    34    29    32    2 
    35    30    32    2 
@<TRIPOS>MOLECULE
Molecule Ligandos_final.mol2
    15     0
SMALL
NO_CHARGES
@<TRIPOS>ATOM
      1 ACC        84.0160   17.9720 -102.6190 HB    0     HB      0.0000
      2 ACC        86.6000   19.1550 -103.2580 HB    1     HB      0.0000
      3 ACC        87.3820   17.0370 -104.9250 HB    2     HB      0.0000
      4 ACC        85.4470   14.9380 -105.0970 HB    3     HB      0.0000
      5 ACC        85.1600   16.1740 -101.7130 HB    4     HB      0.0000
      6 ACC        82.3520    7.5240  -99.3970 HB    5     HB      0.0000
      7 ACC        82.1260    9.2470  -97.8970 HB    6     HB      0.0000
      8 ACC        85.1610   13.2300 -102.3910 HB    7     HB      0.0000
      9 ACC        87.3660   19.7930 -101.1770 HB    8     HB      0.0000
     10 ACC        85.0120   13.6990  -99.8100 HB    9     HB      0.0000
     11 ACC        86.9580   12.3860 -100.7750 HB    10    HB      0.0000
     12 ACC        84.9320   10.2180 -101.3920 HB    11    HB      0.0000
     13 ANI        82.5860    8.6870  -98.9390 CHG   12    CHG     0.2217
     14 AR         88.1912   22.4273 -103.4502 AR    13    AR      0.0000
     15 AR         84.2652   10.2102 -100.4330 AR    14    AR      0.0000
@<TRIPOS>BOND
@<TRIPOS>MOLECULE
3_var_424.mol2
    40    42
SMALL
NO_CHARGES
@<TRIPOS>ATOM
      1 C1         86.1094   18.4086 -101.0288 C.3   1     UNK     0.0000
      2 O1         84.8358   18.1534 -101.5797 O.3   1     UNK     0.0000
      3 C2         84.9618   17.3872 -102.7626 C.3   1     UNK     0.0000
      4 O2         84.6144   16.0400 -102.4825 O.3   1     UNK     0.0000
      5 C3         84.6360   15.2572 -103.6672 C.3   1     UNK     0.0000
      6 C4         84.0883   13.8612 -103.3362 C.3   1     UNK     0.0000
      7 O3         85.0557   12.8812 -103.6039 O.3   1     UNK     0.0000
      8 C5         86.0801   15.1680 -104.2252 C.3   1     UNK     0.0000
      9 O4         86.1020   14.4355 -105.4257 O.3   1     UNK     0.0000
     10 C6         86.6363   16.5823 -104.4813 C.3   1     UNK     0.0000
     11 O5         85.9852   17.1697 -105.5813 O.3   1     UNK     0.0000
     12 C7         86.4325   17.4472 -103.2242 C.3   1     UNK     0.0000
     13 N1         87.1145   19.1219 -103.1808 N.am  1     UNK     0.0000
     14 C8         87.5134   19.9091 -104.3085 C.2   1     UNK     0.0000
     15 O6         87.5140   19.4938 -105.4977 O.2   1     UNK     0.0000
     16 C9         87.8893   21.2515 -103.8836 C.ar  1     UNK     0.0000
     17 C10        88.3421   22.3459 -104.6186 C.ar  1     UNK     0.0000
     18 C11        88.6173   23.5381 -103.9250 C.ar  1     UNK     0.0000
     19 C12        88.4324   23.6114 -102.5272 C.ar  1     UNK     0.0000
     20 C13        87.9704   22.4932 -101.8100 C.ar  1     UNK     0.0000
     21 C14        87.7087   21.3228 -102.5203 C.ar  1     UNK     0.0000
     22 C15        87.2167   20.0265 -102.0701 C.2   1     UNK     0.0000
     23 O7         86.9075   19.7434 -100.8829 O.2   1     UNK     0.0000
     24 H1         85.9874   19.0759 -100.1513 H     1     UNK     0.0000
     25 H2         86.7742   18.9268 -101.7554 H     1     UNK     0.0000
     26 H3         86.5830   17.4675 -100.6717 H     1     UNK     0.0000
     27 H4         84.3059   17.7959 -103.5687 H     1     UNK     0.0000
     28 H5         85.5425   15.4114 -103.0354 H     1     UNK     0.0000
     29 H6         83.1580   13.6604 -103.9166 H     1     UNK     0.0000
     30 H7         83.8340   13.8034 -102.2570 H     1     UNK     0.0000
     31 H8         85.0089   12.6895 -104.5769 H     1     UNK     0.0000
     32 H9         86.7331   14.6806 -103.4606 H     1     UNK     0.0000
     33 H10        86.3235   13.4961 -105.1933 H     1     UNK     0.0000
     34 H11        87.7322   16.5109 -104.6806 H     1     UNK     0.0000
     35 H12        86.4601   16.8644 -106.3977 H     1     UNK     0.0000
     36 H13        86.7360   17.3235 -104.2014 H     1     UNK     0.0000
     37 H14        88.4772   22.2816 -105.6903 H     1     UNK     0.0000
     38 H15        88.9714   24.4053 -104.4669 H     1     UNK     0.0000
     39 H16        88.6455   24.5346 -102.0042 H     1     UNK     0.0000
     40 H17        87.8221   22.5416 -100.7390 H     1     UNK     0.0000
@<TRIPOS>BOND
     1     1     2    1 
     2     2     3    1 
     3     3     4    1 
     4     4     5    1 
     5     5     6    1 
     6     6     7    1 
     7     5     8    1 
     8     8     9    1 
     9     8    10    1 
    10    10    11    1 
    11    10    12    1 
    12    12    13    1 
    13    13    14    am
    14    14    15    2 
    15    14    16    1 
    16    16    17    ar
    17    17    18    ar
    18    18    19    ar
    19    19    20    ar
    20    20    21    ar
    21    21    22    1 
    22    22    23    2 
    23    12     3    1 
    24    22    13    am
    25    21    16    ar
    26     1    24    1 
    27     1    25    1 
    28     1    26    1 
    29     3    27    1 
    30     5    28    1 
    31     6    29    1 
    32     6    30    1 
    33     7    31    1 
    34     8    32    1 
    35     9    33    1 
    36    10    34    1 
    37    11    35    1 
    38    12    36    1 
    39    17    37    1 
    40    18    38    1 
    41    19    39    1 
    42    20    40    1 
@<TRIPOS>MOLECULE
Molecule 3_var_424.mol2
    13     0
SMALL
NO_CHARGES
@<TRIPOS>ATOM
      1 DON        85.0557   12.8812 -103.6039 HB    0     HB      0.0000
      2 DON        86.1020   14.4355 -105.4257 HB    1     HB      0.0000
      3 DON        85.9852   17.1697 -105.5813 HB    2     HB      0.0000
      4 ACC        84.8358   18.1534 -101.5797 HB    3     HB      0.0000
      5 ACC        84.6144   16.0400 -102.4825 HB    4     HB      0.0000
      6 ACC        85.0557   12.8812 -103.6039 HB    5     HB      0.0000
      7 ACC        86.1020   14.4355 -105.4257 HB    6     HB      0.0000
      8 ACC        85.9852   17.1697 -105.5813 HB    7     HB      0.0000
      9 ACC        87.5140   19.4938 -105.4977 HB    8     HB      0.0000
     10 ACC        86.9075   19.7434 -100.8829 HB    9     HB      0.0000
     11 AR         87.4885   20.3264 -103.1926 AR    10    AR      0.0000
     12 AR         88.1600   22.4271 -103.2141 AR    11    AR      0.0000
     13 HYD        86.1094   18.4086 -101.0288 HYD   12    HYD     0.0000
@<TRIPOS>BOND
