@<TRIPOS>MOLECULE
Molecule Ligandos_final.mol2
     6     0
SMALL
NO_CHARGES
@<TRIPOS>ATOM
      1 ACC        84.0160   17.9720 -102.6190 HB    0     HB      0.0000
      3 ACC        87.3820   17.0370 -104.9250 HB    2     HB      0.0000
      4 ACC        85.4470   14.9380 -105.0970 HB    3     HB      0.0000
      5 ACC        85.1600   16.1740 -101.7130 HB    4     HB      0.0000
      9 ACC        87.3660   19.7930 -101.1770 HB    8     HB      0.0000
     14 AR         88.1912   22.4273 -103.4502 AR    13    AR      0.0000
@<TRIPOS>BOND
@<TRIPOS>MOLECULE
Ligandos_final.mol2
    33    35
SMALL
NO_CHARGES
@<TRIPOS>ATOM
      1 C1         85.2230   17.5630 -101.9920 C.2   1     6041    0.3220
      2 C1A        89.0200   22.4480 -104.5680 C.1   1     6041   -0.0153
      3 O1         84.0160   17.9720 -102.6190 O.2   1     6041   -0.2570
      4 C2         86.3940   17.7720 -102.9310 C.2   1     6041    0.1898
      5 C2A        88.5540   21.2500 -104.0630 C.1   1     6041   -0.0391
      6 N2         86.6000   19.1550 -103.2580 N.2   1     6041   -0.1980
      7 C3         86.1760   16.9900 -104.2010 C.2   1     6041    0.2597
      8 C3A        88.6500   23.6220 -103.9480 C.1   1     6041   -0.0372
      9 O3         87.3820   17.0370 -104.9250 O.2   1     6041   -0.2812
     10 C4         85.8590   15.5500 -103.8860 C.2   1     6041    0.2671
     11 C4A        87.3640   22.4070 -102.3320 C.1   1     6041   -0.0737
     12 O4         85.4470   14.9380 -105.0970 O.2   1     6041   -0.2802
     13 C5         84.7070   15.5670 -102.9120 C.2   1     6041    0.1946
     14 C5A        83.9070   10.8720  -99.5110 C.1   1     6041    0.0077
     15 O5         85.1600   16.1740 -101.7130 O.3   1     6041   -0.2588
     16 C6         84.1030   14.2150 -102.6080 C.1   1     6041   -0.0101
     17 C6A        87.7310   21.2420 -102.9530 C.2   1     6041    0.1355
     18 C7         83.5430    9.5360  -99.7910 C.2   1     6041    0.1408
     19 C8         87.8280   23.5950 -102.8370 C.2   1     6041    0.1116
     20 C9         84.1850    9.1680 -100.9490 C.2   1     6041    0.1550
     21 C10        84.7590   11.2570 -100.5220 C.2   1     6041   -0.3150
     22 C11        87.2160   19.9950 -102.3720 C.2   1     6041    0.2943
     23 C12        82.5860    8.6870  -98.9390 C.2   1     6041    0.2217
     24 C18        84.2100    7.9320 -101.7430 Hev   1     6041    0.0000
     25 N21        85.1610   13.2300 -102.3910 N.2   1     6041   -0.3188
     26 O22        82.3520    7.5240  -99.3970 O.co2 1     6041   -0.6434
     27 O23        87.3660   19.7930 -101.1770 O.2   1     6041   -0.2639
     28 O24        82.1260    9.2470  -97.8970 O.co2 1     6041   -0.6434
     29 O25        85.0120   13.6990  -99.8100 O.2   1     6041   -0.9312
     30 O26        86.9580   12.3860 -100.7750 O.2   1     6041   -0.9312
     31 O27        84.9320   10.2180 -101.3920 O.3   1     6041   -0.2348
     32 S32        85.5660   12.7780 -100.7890 S.O2  1     6041    2.4641
     33 BR         87.2890   25.1810 -101.9440 Br    1     6041   -0.0315
@<TRIPOS>BOND
     1     1     3    1 
     2     1    15    1 
     3     1     4    1 
     4     2     5    ar
     5     2     8    ar
     6     4     6    1 
     7     4     7    1 
     8     5    17    ar
     9     6    22    1 
    10     7     9    1 
    11     7    10    1 
    12     8    19    ar
    13    10    12    1 
    14    10    13    1 
    15    11    17    ar
    16    11    19    ar
    17    13    15    1 
    18    13    16    1 
    19    14    18    ar
    20    14    21    ar
    21    16    25    1 
    22    17    22    1 
    23    18    20    ar
    24    18    23    1 
    25    19    33    1 
    26    20    24    1 
    27    20    31    ar
    28    21    31    ar
    29    21    32    1 
    30    22    27    2 
    31    23    26    ar
    32    23    28    ar
    33    25    32    1 
    34    29    32    2 
    35    30    32    2 
@<TRIPOS>MOLECULE
Molecule Ligandos_final.mol2
    15     0
SMALL
NO_CHARGES
@<TRIPOS>ATOM
      1 ACC        84.0160   17.9720 -102.6190 HB    0     HB      0.0000
      2 ACC        86.6000   19.1550 -103.2580 HB    1     HB      0.0000
      3 ACC        87.3820   17.0370 -104.9250 HB    2     HB      0.0000
      4 ACC        85.4470   14.9380 -105.0970 HB    3     HB      0.0000
      5 ACC        85.1600   16.1740 -101.7130 HB    4     HB      0.0000
      6 ACC        82.3520    7.5240  -99.3970 HB    5     HB      0.0000
      7 ACC        82.1260    9.2470  -97.8970 HB    6     HB      0.0000
      8 ACC        85.1610   13.2300 -102.3910 HB    7     HB      0.0000
      9 ACC        87.3660   19.7930 -101.1770 HB    8     HB      0.0000
     10 ACC        85.0120   13.6990  -99.8100 HB    9     HB      0.0000
     11 ACC        86.9580   12.3860 -100.7750 HB    10    HB      0.0000
     12 ACC        84.9320   10.2180 -101.3920 HB    11    HB      0.0000
     13 ANI        82.5860    8.6870  -98.9390 CHG   12    CHG     0.2217
     14 AR         88.1912   22.4273 -103.4502 AR    13    AR      0.0000
     15 AR         84.2652   10.2102 -100.4330 AR    14    AR      0.0000
@<TRIPOS>BOND
@<TRIPOS>MOLECULE
3_var_322.mol2
    46    47
SMALL
NO_CHARGES
@<TRIPOS>ATOM
      1 C1         84.6831   18.8045 -101.5687 C.3   1     UNK     0.0000
      2 O1         84.0401   18.0008 -102.5340 O.3   1     UNK     0.0000
      3 C2         84.9905   17.2006 -103.2118 C.3   1     UNK     0.0000
      4 O2         84.9079   15.8721 -102.7210 O.3   1     UNK     0.0000
      5 C3         85.7823   15.0158 -103.4366 C.3   1     UNK     0.0000
      6 C4         85.5348   13.5721 -102.9745 C.3   1     UNK     0.0000
      7 O3         84.5046   13.5338 -102.0235 O.3   1     UNK     0.0000
      8 C5         87.2529   15.4270 -103.1865 C.3   1     UNK     0.0000
      9 O4         88.1134   14.5866 -103.9114 O.3   1     UNK     0.0000
     10 C6         87.4728   16.8962 -103.6035 C.3   1     UNK     0.0000
     11 O5         87.3553   17.0072 -105.0132 O.3   1     UNK     0.0000
     12 S1         85.8237   16.4992 -105.5475 S.o2  1     UNK     0.0000
     13 C7         85.0776   17.7172 -106.6096 C.3   1     UNK     0.0000
     14 O6         85.9930   15.2279 -106.3297 O.2   1     UNK     0.0000
     15 O7         84.9144   16.2274 -104.3824 O.2   1     UNK     0.0000
     16 C8         86.3966   17.7730 -102.9278 C.3   1     UNK     0.0000
     17 N1         86.5309   19.1247 -103.3242 N.am  1     UNK     0.0000
     18 C9         87.2343   20.0380 -102.4082 C.2   1     UNK     0.0000
     19 O8         87.3660   19.7931 -101.1775 O.2   1     UNK     0.0000
     20 C10        87.7649   21.3096 -102.9559 C.ar  1     UNK     0.0000
     21 C11        87.9347   22.4411 -102.1347 C.ar  1     UNK     0.0000
     22 C12        88.4257   23.6361 -102.6695 C.ar  1     UNK     0.0000
     23 C13        88.7469   23.7183 -104.0260 C.ar  1     UNK     0.0000
     24 C14        88.5718   22.6067 -104.8528 C.ar  1     UNK     0.0000
     25 C15        88.0799   21.4095 -104.3242 C.ar  1     UNK     0.0000
     26 H1         85.1193   18.1800 -100.7582 H     1     UNK     0.0000
     27 H2         83.9283   19.4731 -101.1067 H     1     UNK     0.0000
     28 H3         85.4662   19.4486 -102.0272 H     1     UNK     0.0000
     29 H4         84.8110   17.2311 -104.3166 H     1     UNK     0.0000
     30 H5         84.8183   15.3996 -103.8470 H     1     UNK     0.0000
     31 H6         86.4693   13.1320 -102.5553 H     1     UNK     0.0000
     32 H7         85.2261   12.9480 -103.8398 H     1     UNK     0.0000
     33 H8         84.9107   13.7754 -101.1504 H     1     UNK     0.0000
     34 H9         87.4592   15.3312 -102.0928 H     1     UNK     0.0000
     35 H10        88.9858   14.5921 -103.4378 H     1     UNK     0.0000
     36 H11        86.5518   16.5121 -103.1066 H     1     UNK     0.0000
     37 H12        85.7871   17.9913 -107.4170 H     1     UNK     0.0000
     38 H13        84.1547   17.2978 -107.0608 H     1     UNK     0.0000
     39 H14        84.8132   18.6189 -106.0209 H     1     UNK     0.0000
     40 H15        86.1854   17.6960 -101.8062 H     1     UNK     0.0000
     41 H16        86.2749   19.3811 -104.2140 H     1     UNK     0.0000
     42 H17        87.6653   22.4171 -101.0873 H     1     UNK     0.0000
     43 H18        88.5505   24.5021 -102.0321 H     1     UNK     0.0000
     44 H19        89.1259   24.6448 -104.4375 H     1     UNK     0.0000
     45 H20        88.8172   22.6725 -105.9050 H     1     UNK     0.0000
     46 H21        87.9553   20.5590 -104.9829 H     1     UNK     0.0000
@<TRIPOS>BOND
     1     1     2    1 
     2     2     3    1 
     3     3     4    1 
     4     4     5    1 
     5     5     6    1 
     6     6     7    1 
     7     5     8    1 
     8     8     9    1 
     9     8    10    1 
    10    10    11    1 
    11    11    12    1 
    12    12    13    1 
    13    12    14    2 
    14    12    15    2 
    15    10    16    1 
    16    16    17    1 
    17    17    18    am
    18    18    19    2 
    19    18    20    1 
    20    20    21    ar
    21    21    22    ar
    22    22    23    ar
    23    23    24    ar
    24    24    25    ar
    25    16     3    1 
    26    25    20    ar
    27     1    26    1 
    28     1    27    1 
    29     1    28    1 
    30     3    29    1 
    31     5    30    1 
    32     6    31    1 
    33     6    32    1 
    34     7    33    1 
    35     8    34    1 
    36     9    35    1 
    37    10    36    1 
    38    13    37    1 
    39    13    38    1 
    40    13    39    1 
    41    16    40    1 
    42    17    41    1 
    43    21    42    1 
    44    22    43    1 
    45    23    44    1 
    46    24    45    1 
    47    25    46    1 
@<TRIPOS>MOLECULE
Molecule 3_var_322.mol2
    14     0
SMALL
NO_CHARGES
@<TRIPOS>ATOM
      1 DON        84.5046   13.5338 -102.0235 HB    0     HB      0.0000
      2 DON        88.1134   14.5866 -103.9114 HB    1     HB      0.0000
      3 DON        86.5661   19.0873 -103.2546 HB    2     HB      0.0000
      4 ACC        84.0401   18.0008 -102.5340 HB    3     HB      0.0000
      5 ACC        84.9079   15.8721 -102.7210 HB    4     HB      0.0000
      6 ACC        84.5046   13.5338 -102.0235 HB    5     HB      0.0000
      7 ACC        88.1134   14.5866 -103.9114 HB    6     HB      0.0000
      8 ACC        87.3553   17.0072 -105.0133 HB    7     HB      0.0000
      9 ACC        85.9930   15.2279 -106.3297 HB    8     HB      0.0000
     10 ACC        84.9144   16.2274 -104.3824 HB    9     HB      0.0000
     11 ACC        87.3660   19.7931 -101.1775 HB    10    HB      0.0000
     12 AR         88.2540   22.5202 -103.4939 AR    11    AR      0.0000
     13 HYD        84.6831   18.8045 -101.5687 HYD   12    HYD     0.0000
     14 HYD        85.0776   17.7172 -106.6096 HYD   13    HYD     0.0000
@<TRIPOS>BOND
