@<TRIPOS>MOLECULE
Molecule Ligandos_final.mol2
     3     0
SMALL
NO_CHARGES
@<TRIPOS>ATOM
      5 ACC        33.1760    3.5180  -58.7810 HB    4     HB      0.0000
      6 ACC        32.1930    5.3290  -60.1640 HB    5     HB      0.0000
      8 AR         32.6817   -3.6287  -65.2760 AR    7     AR      0.0000
@<TRIPOS>BOND
@<TRIPOS>MOLECULE
Ligandos_final.mol2
    33    35
SMALL
NO_CHARGES
@<TRIPOS>ATOM
      1 C1         34.4600    0.4030  -61.4630 C.3   1     604     0.0000
      2 C1A        31.4480   -4.1500  -65.6180 C.ar  1     604     0.0000
      3 O1         35.5110   -0.4990  -61.1620 O.3   1     604     0.0000
      4 C2         34.2620    0.5920  -62.9480 C.3   1     604     0.0000
      5 C2A        31.5420   -3.0050  -64.8510 C.ar  1     604     0.0000
      6 N2         34.0600   -0.6570  -63.6450 N.am  1     604     0.0000
      7 C3         35.4470    1.3580  -63.4970 C.3   1     604     0.0000
      8 C3A        32.5930   -4.7780  -66.0400 C.ar  1     604     0.0000
      9 O3         35.3190    1.5200  -64.9050 O.3   1     604     0.0000
     10 C4         35.4990    2.6980  -62.7960 C.3   1     604     0.0000
     11 C4A        33.9180   -3.1030  -64.9360 C.ar  1     604     0.0000
     12 O4         36.6120    3.4100  -63.2990 O.3   1     604     0.0000
     13 C5         35.7180    2.4380  -61.3250 C.3   1     604     0.0000
     14 C5A        33.6680    5.9620  -57.1000 C.ar  1     604     0.0000
     15 O5         34.6550    1.6550  -60.8130 O.3   1     604     0.0000
     16 C6         35.7770    3.7080  -60.4950 C.3   1     604     0.0000
     17 C6A        32.7650   -2.4820  -64.5170 C.ar  1     604     0.0000
     18 C7         34.2580    7.1740  -56.6870 C.ar  1     604     0.0000
     19 C8         33.8240   -4.2540  -65.6940 C.ar  1     604     0.0000
     20 C9         34.7710    7.8040  -57.7890 C.ar  1     604     0.0000
     21 C10        33.8570    5.9180  -58.4620 C.ar  1     604     0.0000
     22 C11        32.8240   -1.2630  -63.7010 C.2   1     604     0.0000
     23 C12        34.2960    7.6700  -55.2570 C.2   1     604     0.0000
     24 C18        35.4850    9.0730  -57.9450 C.3   1     604     0.0000
     25 N21        34.6110    4.5690  -60.7660 N.pl3 1     604     0.0000
     26 O22        34.7110    8.8530  -55.0920 O.co2 1     604     0.0000
     27 O23        31.8220   -0.8920  -63.1150 O.2   1     604     0.0000
     28 O24        33.8950    6.8060  -54.4280 O.co2 1     604     0.0000
     29 O25        33.1760    3.5180  -58.7810 O.2   1     604     0.0000
     30 O26        32.1930    5.3290  -60.1640 O.2   1     604     0.0000
     31 O27        34.5270    7.0310  -58.8860 O.2   1     604     0.0000
     32 S32        33.3610    4.7070  -59.5870 S.o2  1     604     0.0000
     33 BR         35.4060   -5.1490  -66.2810 Br    1     604     0.0000
@<TRIPOS>BOND
     1     1     3    1 
     2     1    15    1 
     3     1     4    1 
     4     2     5    ar
     5     2     8    ar
     6     4     6    1 
     7     4     7    1 
     8     5    17    ar
     9     6    22    am
    10     7     9    1 
    11     7    10    1 
    12     8    19    ar
    13    10    12    1 
    14    10    13    1 
    15    11    17    ar
    16    11    19    ar
    17    13    15    1 
    18    13    16    1 
    19    14    18    ar
    20    14    21    ar
    21    16    25    1 
    22    17    22    1 
    23    18    20    ar
    24    18    23    1 
    25    19    33    1 
    26    20    24    1 
    27    20    31    ar
    28    21    31    ar
    29    21    32    1 
    30    22    27    2 
    31    23    26    2 
    32    23    28    2 
    33    25    32    1 
    34    29    32    2 
    35    30    32    2 
@<TRIPOS>MOLECULE
Molecule Ligandos_final.mol2
     9     0
SMALL
NO_CHARGES
@<TRIPOS>ATOM
      1 ACC        34.6550    1.6550  -60.8130 HB    0     HB      0.0000
      2 ACC        34.7110    8.8530  -55.0920 HB    1     HB      0.0000
      3 ACC        33.8950    6.8060  -54.4280 HB    2     HB      0.0000
      4 ACC        31.8220   -0.8920  -63.1150 HB    3     HB      0.0000
      5 ACC        33.1760    3.5180  -58.7810 HB    4     HB      0.0000
      6 ACC        32.1930    5.3290  -60.1640 HB    5     HB      0.0000
      7 ANI        34.2960    7.6700  -55.2570 CHG   6     CHG     0.0000
      8 AR         32.6817   -3.6287  -65.2760 AR    7     AR      0.0000
      9 AR         34.2162    6.7778  -57.7848 AR    8     AR      0.0000
@<TRIPOS>BOND
@<TRIPOS>MOLECULE
3_var_154.mol2
    48    50
SMALL
NO_CHARGES
@<TRIPOS>ATOM
      1 H1         36.9892    2.9734  -62.8561 H     1     UNK     0.0000
      2 O1         36.0270    2.8392  -62.5691 O.3   1     UNK     0.0000
      3 C1         35.0949    2.2486  -63.4219 C.2   1     UNK     0.0000
      4 N1         33.8577    2.1010  -63.0526 N.2   1     UNK     0.0000
      5 C2         33.3273    2.4857  -61.7424 C.3   1     UNK     0.0000
      6 H2         32.5391    1.7670  -61.4196 H     1     UNK     0.0000
      7 C3         34.4645    2.4380  -60.7085 C.3   1     UNK     0.0000
      8 H3         33.1978    2.3335  -61.2906 H     1     UNK     0.0000
      9 O2         34.7765    1.1183  -60.7293 O.3   1     UNK     0.0000
     10 C4         34.5087   -0.1284  -61.8555 C.ar  1     UNK     0.0000
     11 C5         35.5309   -1.0470  -61.5972 C.ar  1     UNK     0.0000
     12 H4         36.2118   -0.8753  -60.7730 H     1     UNK     0.0000
     13 C6         35.6873   -2.1856  -62.3917 C.ar  1     UNK     0.0000
     14 H5         36.4928   -2.8677  -62.1551 H     1     UNK     0.0000
     15 C7         34.8132   -2.4263  -63.4690 C.ar  1     UNK     0.0000
     16 C8         34.9246   -3.5597  -64.3064 C.2   1     UNK     0.0000
     17 C9         35.9955   -4.6002  -64.1050 C.3   1     UNK     0.0000
     18 H6         35.8927   -5.0555  -63.0975 H     1     UNK     0.0000
     19 H7         36.9976   -4.1316  -64.2002 H     1     UNK     0.0000
     20 H8         35.9246   -5.4140  -64.8579 H     1     UNK     0.0000
     21 C10        34.0066   -3.7134  -65.3544 C.2   1     UNK     0.0000
     22 H9         34.0599   -4.5689  -66.0176 H     1     UNK     0.0000
     23 C11        33.0127   -2.7510  -65.5440 C.2   1     UNK     0.0000
     24 O3         32.1841   -2.8805  -66.4825 O.2   1     UNK     0.0000
     25 O4         32.9340   -1.6971  -64.7403 O.3   1     UNK     0.0000
     26 C12        33.7764   -1.4990  -63.7311 C.ar  1     UNK     0.0000
     27 C13        33.6284   -0.3629  -62.9283 C.ar  1     UNK     0.0000
     28 H10        32.8258    0.3270  -63.1504 H     1     UNK     0.0000
     29 O5         33.9788    2.8216  -59.4343 O.3   1     UNK     0.0000
     30 C14        33.6015    4.1875  -59.4378 C.3   1     UNK     0.0000
     31 H11        33.4637    5.0897  -60.0803 H     1     UNK     0.0000
     32 C15        33.2611    4.6007  -57.9987 C.3   1     UNK     0.0000
     33 H12        32.2114    4.9588  -57.9486 H     1     UNK     0.0000
     34 H13        33.3569    3.7292  -57.3104 H     1     UNK     0.0000
     35 O6         34.0949    5.6490  -57.5821 O.3   1     UNK     0.0000
     36 H14        34.9520    5.2382  -57.2952 H     1     UNK     0.0000
     37 C16        32.3912    4.3976  -60.3787 C.3   1     UNK     0.0000
     38 H15        31.5298    3.7905  -60.0057 H     1     UNK     0.0000
     39 O7         32.0505    5.7603  -60.4380 O.3   1     UNK     0.0000
     40 H16        31.3234    5.9103  -59.7790 H     1     UNK     0.0000
     41 C17        32.7431    3.9130  -61.7945 C.3   1     UNK     0.0000
     42 H17        33.5127    4.6047  -62.2175 H     1     UNK     0.0000
     43 O8         31.5818    3.9357  -62.5849 O.3   1     UNK     0.0000
     44 H18        31.8666    4.1273  -63.5164 H     1     UNK     0.0000
     45 C18        35.5095    1.8176  -64.7916 C.3   1     UNK     0.0000
     46 H19        34.7979    1.0681  -65.1992 H     1     UNK     0.0000
     47 H20        35.5335    2.7001  -65.4639 H     1     UNK     0.0000
     48 H21        36.5205    1.3610  -64.7526 H     1     UNK     0.0000
@<TRIPOS>BOND
     1     1     2    1 
     2     2     3    1 
     3     3     4    2 
     4     4     5    1 
     5     5     6    1 
     6     5     7    1 
     7     7     8    1 
     8     7     9    1 
     9     9    10    1 
    10    10    11    ar
    11    11    12    1 
    12    11    13    ar
    13    13    14    1 
    14    13    15    ar
    15    15    16    1 
    16    16    17    1 
    17    17    18    1 
    18    17    19    1 
    19    17    20    1 
    20    16    21    2 
    21    21    22    1 
    22    21    23    2 
    23    23    24    2 
    24    23    25    1 
    25    25    26    1 
    26    26    27    ar
    27    27    28    1 
    28     7    29    1 
    29    29    30    1 
    30    30    31    1 
    31    30    32    1 
    32    32    33    1 
    33    32    34    1 
    34    32    35    1 
    35    35    36    1 
    36    30    37    1 
    37    37    38    1 
    38    37    39    1 
    39    39    40    1 
    40    37    41    1 
    41    41    42    1 
    42    41    43    1 
    43    43    44    1 
    44     3    45    1 
    45    45    46    1 
    46    45    47    1 
    47    45    48    1 
    48    41     5    1 
    49    27    10    ar
    50    26    15    ar
@<TRIPOS>MOLECULE
Molecule 3_var_154.mol2
    18     0
SMALL
NO_CHARGES
@<TRIPOS>ATOM
      1 DON        36.0270    2.8392  -62.5691 HB    0     HB      0.0000
      2 DON        34.0949    5.6490  -57.5821 HB    1     HB      0.0000
      3 DON        32.0505    5.7603  -60.4380 HB    2     HB      0.0000
      4 DON        31.5818    3.9357  -62.5849 HB    3     HB      0.0000
      5 ACC        36.0270    2.8392  -62.5691 HB    4     HB      0.0000
      6 ACC        33.8577    2.1010  -63.0526 HB    5     HB      0.0000
      7 ACC        34.4039    0.9981  -61.0247 HB    6     HB      0.0000
      8 ACC        32.1841   -2.8805  -66.4825 HB    7     HB      0.0000
      9 ACC        32.9340   -1.6971  -64.7403 HB    8     HB      0.0000
     10 ACC        33.9788    2.8216  -59.4343 HB    9     HB      0.0000
     11 ACC        34.0949    5.6490  -57.5821 HB    10    HB      0.0000
     12 ACC        32.0505    5.7603  -60.4380 HB    11    HB      0.0000
     13 ACC        31.5818    3.9357  -62.5849 HB    12    HB      0.0000
     14 AR         34.6575   -1.2749  -62.6622 AR    13    AR      0.0000
     15 AR         33.9113   -2.6078  -64.5242 AR    14    AR      0.0000
     16 HYD        35.4600   -4.0800  -64.2057 HYD   15    HYD     0.0000
     17 HYD        35.9955   -4.6002  -64.1050 HYD   16    HYD     0.0000
     18 HYD        35.5095    1.8176  -64.7916 HYD   17    HYD     0.0000
@<TRIPOS>BOND
