@<TRIPOS>MOLECULE
Molecule Ligandos_final.mol2
     3     0
SMALL
NO_CHARGES
@<TRIPOS>ATOM
      5 ACC        33.1760    3.5180  -58.7810 HB    4     HB      0.0000
      6 ACC        32.1930    5.3290  -60.1640 HB    5     HB      0.0000
      8 AR         32.6817   -3.6287  -65.2760 AR    7     AR      0.0000
@<TRIPOS>BOND
@<TRIPOS>MOLECULE
Ligandos_final.mol2
    33    35
SMALL
NO_CHARGES
@<TRIPOS>ATOM
      1 C1         34.4600    0.4030  -61.4630 C.3   1     604     0.0000
      2 C1A        31.4480   -4.1500  -65.6180 C.ar  1     604     0.0000
      3 O1         35.5110   -0.4990  -61.1620 O.3   1     604     0.0000
      4 C2         34.2620    0.5920  -62.9480 C.3   1     604     0.0000
      5 C2A        31.5420   -3.0050  -64.8510 C.ar  1     604     0.0000
      6 N2         34.0600   -0.6570  -63.6450 N.am  1     604     0.0000
      7 C3         35.4470    1.3580  -63.4970 C.3   1     604     0.0000
      8 C3A        32.5930   -4.7780  -66.0400 C.ar  1     604     0.0000
      9 O3         35.3190    1.5200  -64.9050 O.3   1     604     0.0000
     10 C4         35.4990    2.6980  -62.7960 C.3   1     604     0.0000
     11 C4A        33.9180   -3.1030  -64.9360 C.ar  1     604     0.0000
     12 O4         36.6120    3.4100  -63.2990 O.3   1     604     0.0000
     13 C5         35.7180    2.4380  -61.3250 C.3   1     604     0.0000
     14 C5A        33.6680    5.9620  -57.1000 C.ar  1     604     0.0000
     15 O5         34.6550    1.6550  -60.8130 O.3   1     604     0.0000
     16 C6         35.7770    3.7080  -60.4950 C.3   1     604     0.0000
     17 C6A        32.7650   -2.4820  -64.5170 C.ar  1     604     0.0000
     18 C7         34.2580    7.1740  -56.6870 C.ar  1     604     0.0000
     19 C8         33.8240   -4.2540  -65.6940 C.ar  1     604     0.0000
     20 C9         34.7710    7.8040  -57.7890 C.ar  1     604     0.0000
     21 C10        33.8570    5.9180  -58.4620 C.ar  1     604     0.0000
     22 C11        32.8240   -1.2630  -63.7010 C.2   1     604     0.0000
     23 C12        34.2960    7.6700  -55.2570 C.2   1     604     0.0000
     24 C18        35.4850    9.0730  -57.9450 C.3   1     604     0.0000
     25 N21        34.6110    4.5690  -60.7660 N.pl3 1     604     0.0000
     26 O22        34.7110    8.8530  -55.0920 O.co2 1     604     0.0000
     27 O23        31.8220   -0.8920  -63.1150 O.2   1     604     0.0000
     28 O24        33.8950    6.8060  -54.4280 O.co2 1     604     0.0000
     29 O25        33.1760    3.5180  -58.7810 O.2   1     604     0.0000
     30 O26        32.1930    5.3290  -60.1640 O.2   1     604     0.0000
     31 O27        34.5270    7.0310  -58.8860 O.2   1     604     0.0000
     32 S32        33.3610    4.7070  -59.5870 S.o2  1     604     0.0000
     33 BR         35.4060   -5.1490  -66.2810 Br    1     604     0.0000
@<TRIPOS>BOND
     1     1     3    1 
     2     1    15    1 
     3     1     4    1 
     4     2     5    ar
     5     2     8    ar
     6     4     6    1 
     7     4     7    1 
     8     5    17    ar
     9     6    22    am
    10     7     9    1 
    11     7    10    1 
    12     8    19    ar
    13    10    12    1 
    14    10    13    1 
    15    11    17    ar
    16    11    19    ar
    17    13    15    1 
    18    13    16    1 
    19    14    18    ar
    20    14    21    ar
    21    16    25    1 
    22    17    22    1 
    23    18    20    ar
    24    18    23    1 
    25    19    33    1 
    26    20    24    1 
    27    20    31    ar
    28    21    31    ar
    29    21    32    1 
    30    22    27    2 
    31    23    26    2 
    32    23    28    2 
    33    25    32    1 
    34    29    32    2 
    35    30    32    2 
@<TRIPOS>MOLECULE
Molecule Ligandos_final.mol2
     9     0
SMALL
NO_CHARGES
@<TRIPOS>ATOM
      1 ACC        34.6550    1.6550  -60.8130 HB    0     HB      0.0000
      2 ACC        34.7110    8.8530  -55.0920 HB    1     HB      0.0000
      3 ACC        33.8950    6.8060  -54.4280 HB    2     HB      0.0000
      4 ACC        31.8220   -0.8920  -63.1150 HB    3     HB      0.0000
      5 ACC        33.1760    3.5180  -58.7810 HB    4     HB      0.0000
      6 ACC        32.1930    5.3290  -60.1640 HB    5     HB      0.0000
      7 ANI        34.2960    7.6700  -55.2570 CHG   6     CHG     0.0000
      8 AR         32.6817   -3.6287  -65.2760 AR    7     AR      0.0000
      9 AR         34.2162    6.7778  -57.7848 AR    8     AR      0.0000
@<TRIPOS>BOND
@<TRIPOS>MOLECULE
3_var_9.mol2
    58    62
SMALL
NO_CHARGES
@<TRIPOS>ATOM
      1 C1         34.6671   -0.3931  -65.4794 C.3   1     UNK     0.0000
      2 N1         33.8961   -0.7258  -64.2797 N.ar  1     UNK     0.0000
      3 C2         33.9133   -0.0885  -63.0816 C.ar  1     UNK     0.0000
      4 C3         34.5978    1.3794  -62.8032 C.ar  1     UNK     0.0000
      5 C4         33.9008    2.1467  -61.8926 C.ar  1     UNK     0.0000
      6 N2         34.5848    3.3001  -61.7679 N.ar  1     UNK     0.0000
      7 C5         34.5454    4.5640  -60.7219 C.3   1     UNK     0.0000
      8 C6         33.1944    5.1347  -61.2491 C.3   1     UNK     0.0000
      9 O1         33.4301    6.3746  -61.8615 O.3   1     UNK     0.0000
     10 O2         32.2632    5.3201  -60.1958 O.3   1     UNK     0.0000
     11 C7         31.9552    4.0742  -59.5966 C.3   1     UNK     0.0000
     12 C8         30.7232    4.2603  -58.6973 C.3   1     UNK     0.0000
     13 O3         30.3454    3.0469  -58.1039 O.3   1     UNK     0.0000
     14 C9         33.1715    3.5318  -58.7933 C.3   1     UNK     0.0000
     15 O4         33.2653    2.1414  -58.9735 O.3   1     UNK     0.0000
     16 C10        34.4973    4.2210  -59.2129 C.3   1     UNK     0.0000
     17 O5         34.6486    5.4142  -58.4835 O.3   1     UNK     0.0000
     18 N3         35.6413    3.2408  -62.5646 N.ar  1     UNK     0.0000
     19 N4         35.6673    2.0877  -63.2168 N.ar  1     UNK     0.0000
     20 N5         33.1436   -0.6986  -62.1555 N.ar  1     UNK     0.0000
     21 C11        32.6344   -1.7750  -62.7864 C.ar  1     UNK     0.0000
     22 C12        31.7419   -2.7502  -62.1216 C.ar  1     UNK     0.0000
     23 C13        30.6852   -3.3648  -62.8180 C.ar  1     UNK     0.0000
     24 C14        29.8517   -4.2814  -62.1698 C.ar  1     UNK     0.0000
     25 C15        30.0578   -4.5849  -60.8211 C.ar  1     UNK     0.0000
     26 F1         29.2486   -5.4740  -60.1944 F     1     UNK     0.0000
     27 C16        31.0939   -3.9661  -60.1161 C.ar  1     UNK     0.0000
     28 C17        31.9285   -3.0476  -60.7601 C.ar  1     UNK     0.0000
     29 C18        33.0990   -1.8010  -64.0933 C.ar  1     UNK     0.0000
     30 C19        32.8839   -2.8806  -65.0775 C.ar  1     UNK     0.0000
     31 C20        31.7707   -2.8542  -65.9295 C.ar  1     UNK     0.0000
     32 C21        31.5714   -3.9036  -66.8299 C.ar  1     UNK     0.0000
     33 N6         32.4486   -4.9433  -66.8714 N.ar  1     UNK     0.0000
     34 C22        33.5316   -4.9963  -66.0503 C.ar  1     UNK     0.0000
     35 C23        33.7667   -3.9683  -65.1346 C.ar  1     UNK     0.0000
     36 H1         35.7090   -0.7585  -65.3667 H     1     UNK     0.0000
     37 H2         34.6618    0.7045  -65.6448 H     1     UNK     0.0000
     38 H3         34.2292   -0.8606  -66.3825 H     1     UNK     0.0000
     39 H4         32.9644    1.9173  -61.4104 H     1     UNK     0.0000
     40 H5         34.9749    5.2697  -61.2045 H     1     UNK     0.0000
     41 H6         32.7597    4.4594  -62.0236 H     1     UNK     0.0000
     42 H7         32.5689    6.6608  -62.2653 H     1     UNK     0.0000
     43 H8         31.6562    3.3378  -60.3794 H     1     UNK     0.0000
     44 H9         30.9493    4.9964  -57.8965 H     1     UNK     0.0000
     45 H10        29.8786    4.6700  -59.2974 H     1     UNK     0.0000
     46 H11        29.9309    2.4971  -58.8200 H     1     UNK     0.0000
     47 H12        33.0139    3.7354  -57.7064 H     1     UNK     0.0000
     48 H13        33.8249    1.7883  -58.2320 H     1     UNK     0.0000
     49 H14        35.3582    3.5497  -58.9782 H     1     UNK     0.0000
     50 H15        34.9511    5.1611  -57.5710 H     1     UNK     0.0000
     51 H16        30.4876   -3.1229  -63.8538 H     1     UNK     0.0000
     52 H17        29.0410   -4.7504  -62.7131 H     1     UNK     0.0000
     53 H18        31.2523   -4.1981  -59.0703 H     1     UNK     0.0000
     54 H19        32.7300   -2.5807  -60.1999 H     1     UNK     0.0000
     55 H20        31.0593   -2.0375  -65.8871 H     1     UNK     0.0000
     56 H21        30.7156   -3.8945  -67.4918 H     1     UNK     0.0000
     57 H22        34.2088   -5.8384  -66.1060 H     1     UNK     0.0000
     58 H23        34.6271   -4.0191  -64.4775 H     1     UNK     0.0000
@<TRIPOS>BOND
     1     1     2    1 
     2     2     3    ar
     3     3     4    1 
     4     4     5    ar
     5     5     6    ar
     6     6     7    1 
     7     7     8    1 
     8     8     9    1 
     9     8    10    1 
    10    10    11    1 
    11    11    12    1 
    12    12    13    1 
    13    11    14    1 
    14    14    15    1 
    15    14    16    1 
    16    16    17    1 
    17     6    18    ar
    18    18    19    ar
    19     3    20    ar
    20    20    21    ar
    21    21    22    1 
    22    22    23    ar
    23    23    24    ar
    24    24    25    ar
    25    25    26    1 
    26    25    27    ar
    27    27    28    ar
    28    21    29    ar
    29    29    30    1 
    30    30    31    ar
    31    31    32    ar
    32    32    33    ar
    33    33    34    ar
    34    34    35    ar
    35    29     2    ar
    36    35    30    ar
    37    19     4    ar
    38    28    22    ar
    39    16     7    1 
    40     1    36    1 
    41     1    37    1 
    42     1    38    1 
    43     5    39    1 
    44     7    40    1 
    45     8    41    1 
    46     9    42    1 
    47    11    43    1 
    48    12    44    1 
    49    12    45    1 
    50    13    46    1 
    51    14    47    1 
    52    15    48    1 
    53    16    49    1 
    54    17    50    1 
    55    23    51    1 
    56    24    52    1 
    57    27    53    1 
    58    28    54    1 
    59    31    55    1 
    60    32    56    1 
    61    34    57    1 
    62    35    58    1 
@<TRIPOS>MOLECULE
Molecule 3_var_9.mol2
    20     0
SMALL
NO_CHARGES
@<TRIPOS>ATOM
      1 DON        33.4301    6.3746  -61.8615 HB    0     HB      0.0000
      2 DON        30.3454    3.0469  -58.1039 HB    1     HB      0.0000
      3 DON        33.2653    2.1414  -58.9735 HB    2     HB      0.0000
      4 DON        34.6486    5.4142  -58.4835 HB    3     HB      0.0000
      5 ACC        33.4301    6.3746  -61.8615 HB    4     HB      0.0000
      6 ACC        32.2632    5.3201  -60.1958 HB    5     HB      0.0000
      7 ACC        30.3454    3.0469  -58.1039 HB    6     HB      0.0000
      8 ACC        33.2653    2.1414  -58.9735 HB    7     HB      0.0000
      9 ACC        34.6486    5.4142  -58.4835 HB    8     HB      0.0000
     10 ACC        35.6413    3.2408  -62.5646 HB    9     HB      0.0000
     11 ACC        35.6673    2.0877  -63.2168 HB    10    HB      0.0000
     12 ACC        33.1436   -0.6986  -62.1555 HB    11    HB      0.0000
     13 ACC        32.4486   -4.9433  -66.8714 HB    12    HB      0.0000
     14 CAT        33.8961   -0.7258  -64.2797 CHG   13    CHG     0.0000
     15 CAT        34.5848    3.3001  -61.7679 CHG   14    CHG     0.0000
     16 AR         33.3373   -1.0178  -63.2793 AR    15    AR      0.0000
     17 AR         34.8784    2.4309  -62.4490 AR    16    AR      0.0000
     18 AR         30.8932   -3.6658  -61.4678 AR    17    AR      0.0000
     19 AR         32.6622   -3.9244  -65.9822 AR    18    AR      0.0000
     20 HYD        34.6671   -0.3931  -65.4794 HYD   19    HYD     0.0000
@<TRIPOS>BOND
