@<TRIPOS>MOLECULE
Molecule Ligandos_final.mol2
     3     0
SMALL
NO_CHARGES
@<TRIPOS>ATOM
      5 ACC        33.1760    3.5180  -58.7810 HB    4     HB      0.0000
      6 ACC        32.1930    5.3290  -60.1640 HB    5     HB      0.0000
      8 AR         32.6817   -3.6287  -65.2760 AR    7     AR      0.0000
@<TRIPOS>BOND
@<TRIPOS>MOLECULE
Ligandos_final.mol2
    33    35
SMALL
NO_CHARGES
@<TRIPOS>ATOM
      1 C1         34.4600    0.4030  -61.4630 C.3   1     604     0.0000
      2 C1A        31.4480   -4.1500  -65.6180 C.ar  1     604     0.0000
      3 O1         35.5110   -0.4990  -61.1620 O.3   1     604     0.0000
      4 C2         34.2620    0.5920  -62.9480 C.3   1     604     0.0000
      5 C2A        31.5420   -3.0050  -64.8510 C.ar  1     604     0.0000
      6 N2         34.0600   -0.6570  -63.6450 N.am  1     604     0.0000
      7 C3         35.4470    1.3580  -63.4970 C.3   1     604     0.0000
      8 C3A        32.5930   -4.7780  -66.0400 C.ar  1     604     0.0000
      9 O3         35.3190    1.5200  -64.9050 O.3   1     604     0.0000
     10 C4         35.4990    2.6980  -62.7960 C.3   1     604     0.0000
     11 C4A        33.9180   -3.1030  -64.9360 C.ar  1     604     0.0000
     12 O4         36.6120    3.4100  -63.2990 O.3   1     604     0.0000
     13 C5         35.7180    2.4380  -61.3250 C.3   1     604     0.0000
     14 C5A        33.6680    5.9620  -57.1000 C.ar  1     604     0.0000
     15 O5         34.6550    1.6550  -60.8130 O.3   1     604     0.0000
     16 C6         35.7770    3.7080  -60.4950 C.3   1     604     0.0000
     17 C6A        32.7650   -2.4820  -64.5170 C.ar  1     604     0.0000
     18 C7         34.2580    7.1740  -56.6870 C.ar  1     604     0.0000
     19 C8         33.8240   -4.2540  -65.6940 C.ar  1     604     0.0000
     20 C9         34.7710    7.8040  -57.7890 C.ar  1     604     0.0000
     21 C10        33.8570    5.9180  -58.4620 C.ar  1     604     0.0000
     22 C11        32.8240   -1.2630  -63.7010 C.2   1     604     0.0000
     23 C12        34.2960    7.6700  -55.2570 C.2   1     604     0.0000
     24 C18        35.4850    9.0730  -57.9450 C.3   1     604     0.0000
     25 N21        34.6110    4.5690  -60.7660 N.pl3 1     604     0.0000
     26 O22        34.7110    8.8530  -55.0920 O.co2 1     604     0.0000
     27 O23        31.8220   -0.8920  -63.1150 O.2   1     604     0.0000
     28 O24        33.8950    6.8060  -54.4280 O.co2 1     604     0.0000
     29 O25        33.1760    3.5180  -58.7810 O.2   1     604     0.0000
     30 O26        32.1930    5.3290  -60.1640 O.2   1     604     0.0000
     31 O27        34.5270    7.0310  -58.8860 O.2   1     604     0.0000
     32 S32        33.3610    4.7070  -59.5870 S.o2  1     604     0.0000
     33 BR         35.4060   -5.1490  -66.2810 Br    1     604     0.0000
@<TRIPOS>BOND
     1     1     3    1 
     2     1    15    1 
     3     1     4    1 
     4     2     5    ar
     5     2     8    ar
     6     4     6    1 
     7     4     7    1 
     8     5    17    ar
     9     6    22    am
    10     7     9    1 
    11     7    10    1 
    12     8    19    ar
    13    10    12    1 
    14    10    13    1 
    15    11    17    ar
    16    11    19    ar
    17    13    15    1 
    18    13    16    1 
    19    14    18    ar
    20    14    21    ar
    21    16    25    1 
    22    17    22    1 
    23    18    20    ar
    24    18    23    1 
    25    19    33    1 
    26    20    24    1 
    27    20    31    ar
    28    21    31    ar
    29    21    32    1 
    30    22    27    2 
    31    23    26    2 
    32    23    28    2 
    33    25    32    1 
    34    29    32    2 
    35    30    32    2 
@<TRIPOS>MOLECULE
Molecule Ligandos_final.mol2
     9     0
SMALL
NO_CHARGES
@<TRIPOS>ATOM
      1 ACC        34.6550    1.6550  -60.8130 HB    0     HB      0.0000
      2 ACC        34.7110    8.8530  -55.0920 HB    1     HB      0.0000
      3 ACC        33.8950    6.8060  -54.4280 HB    2     HB      0.0000
      4 ACC        31.8220   -0.8920  -63.1150 HB    3     HB      0.0000
      5 ACC        33.1760    3.5180  -58.7810 HB    4     HB      0.0000
      6 ACC        32.1930    5.3290  -60.1640 HB    5     HB      0.0000
      7 ANI        34.2960    7.6700  -55.2570 CHG   6     CHG     0.0000
      8 AR         32.6817   -3.6287  -65.2760 AR    7     AR      0.0000
      9 AR         34.2162    6.7778  -57.7848 AR    8     AR      0.0000
@<TRIPOS>BOND
@<TRIPOS>MOLECULE
3_var_17.mol2
    58    62
SMALL
NO_CHARGES
@<TRIPOS>ATOM
      1 C1         37.6633    0.7031  -64.8418 C.3   1     UNK     0.0000
      2 N1         36.3897    0.0913  -64.4547 N.ar  1     UNK     0.0000
      3 C2         35.5525    0.4957  -63.4678 C.ar  1     UNK     0.0000
      4 C3         35.9967    1.8134  -62.9085 C.ar  1     UNK     0.0000
      5 C4         35.6558    1.9805  -61.5833 C.ar  1     UNK     0.0000
      6 N2         35.9641    3.2522  -61.2760 N.ar  1     UNK     0.0000
      7 C5         35.6150    3.9686  -59.8671 C.3   1     UNK     0.0000
      8 C6         36.4876    5.2136  -59.5590 C.3   1     UNK     0.0000
      9 O1         37.7915    5.0425  -60.0502 O.3   1     UNK     0.0000
     10 O2         35.9229    6.3642  -60.1586 O.3   1     UNK     0.0000
     11 C7         34.7062    6.7615  -59.5276 C.3   1     UNK     0.0000
     12 C8         34.9958    7.8056  -58.4386 C.3   1     UNK     0.0000
     13 O3         34.3627    7.4428  -57.2422 O.3   1     UNK     0.0000
     14 C9         33.8433    5.5776  -58.9931 C.3   1     UNK     0.0000
     15 O4         32.4829    5.9256  -59.0481 O.3   1     UNK     0.0000
     16 C10        34.1054    4.3261  -59.8528 C.3   1     UNK     0.0000
     17 O5         33.3377    3.2322  -59.4145 O.3   1     UNK     0.0000
     18 N3         36.4591    3.8368  -62.3563 N.ar  1     UNK     0.0000
     19 N4         36.4895    2.9820  -63.3685 N.ar  1     UNK     0.0000
     20 N5         34.4978   -0.3318  -63.3084 N.ar  1     UNK     0.0000
     21 C11        34.6666   -1.2885  -64.2428 C.ar  1     UNK     0.0000
     22 C12        33.7068   -2.3976  -64.4361 C.ar  1     UNK     0.0000
     23 C13        33.8775   -3.2845  -65.5126 C.ar  1     UNK     0.0000
     24 C14        32.9829   -4.3418  -65.7070 C.ar  1     UNK     0.0000
     25 C15        31.9189   -4.5311  -64.8213 C.ar  1     UNK     0.0000
     26 F1         31.0524   -5.5566  -65.0116 F     1     UNK     0.0000
     27 C16        31.7536   -3.6681  -63.7349 C.ar  1     UNK     0.0000
     28 C17        32.6455   -2.6091  -63.5375 C.ar  1     UNK     0.0000
     29 C18        35.8291   -1.0313  -64.9565 C.ar  1     UNK     0.0000
     30 C19        36.4171   -1.8736  -66.0200 C.ar  1     UNK     0.0000
     31 C20        36.7221   -1.3240  -67.2725 C.ar  1     UNK     0.0000
     32 C21        37.2606   -2.1413  -68.2692 C.ar  1     UNK     0.0000
     33 N6         37.4811   -3.4599  -68.0251 N.ar  1     UNK     0.0000
     34 C22        37.1894   -4.0194  -66.8211 C.ar  1     UNK     0.0000
     35 C23        36.6512   -3.2375  -65.7964 C.ar  1     UNK     0.0000
     36 H1         37.4727    1.6575  -65.3753 H     1     UNK     0.0000
     37 H2         38.2808    0.8935  -63.9395 H     1     UNK     0.0000
     38 H3         38.2521    0.0325  -65.4997 H     1     UNK     0.0000
     39 H4         35.2173    1.2547  -60.9106 H     1     UNK     0.0000
     40 H5         35.4681    3.1479  -59.2292 H     1     UNK     0.0000
     41 H6         36.5530    5.3559  -58.4528 H     1     UNK     0.0000
     42 H7         38.2191    4.3420  -59.4904 H     1     UNK     0.0000
     43 H8         34.1110    7.2747  -60.3154 H     1     UNK     0.0000
     44 H9         35.5379    7.3348  -57.5885 H     1     UNK     0.0000
     45 H10        35.6413    8.6051  -58.8670 H     1     UNK     0.0000
     46 H11        34.5961    8.1466  -56.5827 H     1     UNK     0.0000
     47 H12        34.1347    5.3558  -57.9379 H     1     UNK     0.0000
     48 H13        32.0068    5.3383  -58.4046 H     1     UNK     0.0000
     49 H14        33.7769    4.5692  -60.8882 H     1     UNK     0.0000
     50 H15        33.5678    3.0648  -58.4629 H     1     UNK     0.0000
     51 H16        34.6943   -3.1500  -66.2114 H     1     UNK     0.0000
     52 H17        33.1153   -5.0137  -66.5454 H     1     UNK     0.0000
     53 H18        30.9382   -3.8221  -63.0403 H     1     UNK     0.0000
     54 H19        32.5156   -1.9719  -62.6727 H     1     UNK     0.0000
     55 H20        36.5366   -0.2769  -67.4774 H     1     UNK     0.0000
     56 H21        37.5000   -1.7270  -69.2391 H     1     UNK     0.0000
     57 H22        37.3747   -5.0724  -66.6591 H     1     UNK     0.0000
     58 H23        36.4220   -3.6887  -64.8392 H     1     UNK     0.0000
@<TRIPOS>BOND
     1     1     2    1 
     2     2     3    ar
     3     3     4    1 
     4     4     5    ar
     5     5     6    ar
     6     6     7    1 
     7     7     8    1 
     8     8     9    1 
     9     8    10    1 
    10    10    11    1 
    11    11    12    1 
    12    12    13    1 
    13    11    14    1 
    14    14    15    1 
    15    14    16    1 
    16    16    17    1 
    17     6    18    ar
    18    18    19    ar
    19     3    20    ar
    20    20    21    ar
    21    21    22    1 
    22    22    23    ar
    23    23    24    ar
    24    24    25    ar
    25    25    26    1 
    26    25    27    ar
    27    27    28    ar
    28    21    29    ar
    29    29    30    1 
    30    30    31    ar
    31    31    32    ar
    32    32    33    ar
    33    33    34    ar
    34    34    35    ar
    35    29     2    ar
    36    35    30    ar
    37    19     4    ar
    38    28    22    ar
    39    16     7    1 
    40     1    36    1 
    41     1    37    1 
    42     1    38    1 
    43     5    39    1 
    44     7    40    1 
    45     8    41    1 
    46     9    42    1 
    47    11    43    1 
    48    12    44    1 
    49    12    45    1 
    50    13    46    1 
    51    14    47    1 
    52    15    48    1 
    53    16    49    1 
    54    17    50    1 
    55    23    51    1 
    56    24    52    1 
    57    27    53    1 
    58    28    54    1 
    59    31    55    1 
    60    32    56    1 
    61    34    57    1 
    62    35    58    1 
@<TRIPOS>MOLECULE
Molecule 3_var_17.mol2
    20     0
SMALL
NO_CHARGES
@<TRIPOS>ATOM
      1 DON        37.7915    5.0425  -60.0502 HB    0     HB      0.0000
      2 DON        34.3627    7.4428  -57.2422 HB    1     HB      0.0000
      3 DON        32.4829    5.9256  -59.0481 HB    2     HB      0.0000
      4 DON        33.3377    3.2322  -59.4145 HB    3     HB      0.0000
      5 ACC        37.7915    5.0425  -60.0502 HB    4     HB      0.0000
      6 ACC        35.9229    6.3642  -60.1586 HB    5     HB      0.0000
      7 ACC        34.3627    7.4428  -57.2422 HB    6     HB      0.0000
      8 ACC        32.4829    5.9256  -59.0481 HB    7     HB      0.0000
      9 ACC        33.3377    3.2322  -59.4145 HB    8     HB      0.0000
     10 ACC        36.4591    3.8368  -62.3563 HB    9     HB      0.0000
     11 ACC        36.4895    2.9820  -63.3685 HB    10    HB      0.0000
     12 ACC        34.4978   -0.3318  -63.3084 HB    11    HB      0.0000
     13 ACC        37.4811   -3.4599  -68.0251 HB    12    HB      0.0000
     14 CAT        36.3897    0.0913  -64.4547 CHG   13    CHG     0.0000
     15 CAT        35.9641    3.2522  -61.2760 CHG   14    CHG     0.0000
     16 AR         35.3872   -0.4129  -64.0860 AR    15    AR      0.0000
     17 AR         36.1130    2.7730  -62.2985 AR    16    AR      0.0000
     18 AR         32.8142   -3.4720  -64.6249 AR    17    AR      0.0000
     19 AR         36.9536   -2.6759  -67.0340 AR    18    AR      0.0000
     20 HYD        37.6633    0.7031  -64.8418 HYD   19    HYD     0.0000
@<TRIPOS>BOND
