@<TRIPOS>MOLECULE
Molecule Ligandos_final.mol2
     3     0
SMALL
NO_CHARGES
@<TRIPOS>ATOM
      5 ACC        33.1760    3.5180  -58.7810 HB    4     HB      0.0000
      6 ACC        32.1930    5.3290  -60.1640 HB    5     HB      0.0000
      8 AR         32.6817   -3.6287  -65.2760 AR    7     AR      0.0000
@<TRIPOS>BOND
@<TRIPOS>MOLECULE
Ligandos_final.mol2
    33    35
SMALL
NO_CHARGES
@<TRIPOS>ATOM
      1 C1         34.4600    0.4030  -61.4630 C.3   1     604     0.0000
      2 C1A        31.4480   -4.1500  -65.6180 C.ar  1     604     0.0000
      3 O1         35.5110   -0.4990  -61.1620 O.3   1     604     0.0000
      4 C2         34.2620    0.5920  -62.9480 C.3   1     604     0.0000
      5 C2A        31.5420   -3.0050  -64.8510 C.ar  1     604     0.0000
      6 N2         34.0600   -0.6570  -63.6450 N.am  1     604     0.0000
      7 C3         35.4470    1.3580  -63.4970 C.3   1     604     0.0000
      8 C3A        32.5930   -4.7780  -66.0400 C.ar  1     604     0.0000
      9 O3         35.3190    1.5200  -64.9050 O.3   1     604     0.0000
     10 C4         35.4990    2.6980  -62.7960 C.3   1     604     0.0000
     11 C4A        33.9180   -3.1030  -64.9360 C.ar  1     604     0.0000
     12 O4         36.6120    3.4100  -63.2990 O.3   1     604     0.0000
     13 C5         35.7180    2.4380  -61.3250 C.3   1     604     0.0000
     14 C5A        33.6680    5.9620  -57.1000 C.ar  1     604     0.0000
     15 O5         34.6550    1.6550  -60.8130 O.3   1     604     0.0000
     16 C6         35.7770    3.7080  -60.4950 C.3   1     604     0.0000
     17 C6A        32.7650   -2.4820  -64.5170 C.ar  1     604     0.0000
     18 C7         34.2580    7.1740  -56.6870 C.ar  1     604     0.0000
     19 C8         33.8240   -4.2540  -65.6940 C.ar  1     604     0.0000
     20 C9         34.7710    7.8040  -57.7890 C.ar  1     604     0.0000
     21 C10        33.8570    5.9180  -58.4620 C.ar  1     604     0.0000
     22 C11        32.8240   -1.2630  -63.7010 C.2   1     604     0.0000
     23 C12        34.2960    7.6700  -55.2570 C.2   1     604     0.0000
     24 C18        35.4850    9.0730  -57.9450 C.3   1     604     0.0000
     25 N21        34.6110    4.5690  -60.7660 N.pl3 1     604     0.0000
     26 O22        34.7110    8.8530  -55.0920 O.co2 1     604     0.0000
     27 O23        31.8220   -0.8920  -63.1150 O.2   1     604     0.0000
     28 O24        33.8950    6.8060  -54.4280 O.co2 1     604     0.0000
     29 O25        33.1760    3.5180  -58.7810 O.2   1     604     0.0000
     30 O26        32.1930    5.3290  -60.1640 O.2   1     604     0.0000
     31 O27        34.5270    7.0310  -58.8860 O.2   1     604     0.0000
     32 S32        33.3610    4.7070  -59.5870 S.o2  1     604     0.0000
     33 BR         35.4060   -5.1490  -66.2810 Br    1     604     0.0000
@<TRIPOS>BOND
     1     1     3    1 
     2     1    15    1 
     3     1     4    1 
     4     2     5    ar
     5     2     8    ar
     6     4     6    1 
     7     4     7    1 
     8     5    17    ar
     9     6    22    am
    10     7     9    1 
    11     7    10    1 
    12     8    19    ar
    13    10    12    1 
    14    10    13    1 
    15    11    17    ar
    16    11    19    ar
    17    13    15    1 
    18    13    16    1 
    19    14    18    ar
    20    14    21    ar
    21    16    25    1 
    22    17    22    1 
    23    18    20    ar
    24    18    23    1 
    25    19    33    1 
    26    20    24    1 
    27    20    31    ar
    28    21    31    ar
    29    21    32    1 
    30    22    27    2 
    31    23    26    2 
    32    23    28    2 
    33    25    32    1 
    34    29    32    2 
    35    30    32    2 
@<TRIPOS>MOLECULE
Molecule Ligandos_final.mol2
     9     0
SMALL
NO_CHARGES
@<TRIPOS>ATOM
      1 ACC        34.6550    1.6550  -60.8130 HB    0     HB      0.0000
      2 ACC        34.7110    8.8530  -55.0920 HB    1     HB      0.0000
      3 ACC        33.8950    6.8060  -54.4280 HB    2     HB      0.0000
      4 ACC        31.8220   -0.8920  -63.1150 HB    3     HB      0.0000
      5 ACC        33.1760    3.5180  -58.7810 HB    4     HB      0.0000
      6 ACC        32.1930    5.3290  -60.1640 HB    5     HB      0.0000
      7 ANI        34.2960    7.6700  -55.2570 CHG   6     CHG     0.0000
      8 AR         32.6817   -3.6287  -65.2760 AR    7     AR      0.0000
      9 AR         34.2162    6.7778  -57.7848 AR    8     AR      0.0000
@<TRIPOS>BOND
@<TRIPOS>MOLECULE
3_var_8.mol2
    58    62
SMALL
NO_CHARGES
@<TRIPOS>ATOM
      1 C1         36.0539   -0.8116  -64.2742 C.3   1     UNK     0.0000
      2 N1         34.7383   -0.4874  -63.7172 N.ar  1     UNK     0.0000
      3 C2         34.4331    0.5298  -62.8745 C.ar  1     UNK     0.0000
      4 C3         35.1972    1.4756  -62.4067 C.ar  1     UNK     0.0000
      5 C4         34.5720    2.2691  -61.4696 C.ar  1     UNK     0.0000
      6 N2         35.4639    3.2165  -61.1257 N.ar  1     UNK     0.0000
      7 C5         35.3437    4.3352  -60.1771 C.3   1     UNK     0.0000
      8 C6         35.9022    5.6038  -60.8757 C.3   1     UNK     0.0000
      9 O1         36.2215    6.5882  -59.9245 O.3   1     UNK     0.0000
     10 O2         35.0017    6.1110  -61.8503 O.3   1     UNK     0.0000
     11 C7         33.7541    6.5550  -61.3156 C.3   1     UNK     0.0000
     12 C8         33.7729    8.0814  -61.1209 C.3   1     UNK     0.0000
     13 O3         32.4711    8.5752  -60.9486 O.3   1     UNK     0.0000
     14 C9         33.2931    5.7989  -60.0332 C.3   1     UNK     0.0000
     15 O4         31.8929    5.8386  -59.8954 O.3   1     UNK     0.0000
     16 C10        33.8000    4.3522  -60.0775 C.3   1     UNK     0.0000
     17 O5         33.3809    3.6718  -58.9228 O.3   1     UNK     0.0000
     18 N3         36.5765    3.0109  -61.8126 N.ar  1     UNK     0.0000
     19 N4         36.4406    1.9583  -62.6064 N.ar  1     UNK     0.0000
     20 N5         33.1432    0.5069  -62.4767 N.ar  1     UNK     0.0000
     21 C11        32.6075   -0.5581  -63.1057 C.ar  1     UNK     0.0000
     22 C12        31.1836   -0.9364  -62.9678 C.ar  1     UNK     0.0000
     23 C13        30.5330   -0.7528  -61.7358 C.ar  1     UNK     0.0000
     24 C14        29.1852   -1.0953  -61.5899 C.ar  1     UNK     0.0000
     25 C15        28.4718   -1.6116  -62.6749 C.ar  1     UNK     0.0000
     26 F1         27.1647   -1.9420  -62.5320 F     1     UNK     0.0000
     27 C16        29.1040   -1.7782  -63.9098 C.ar  1     UNK     0.0000
     28 C17        30.4515   -1.4366  -64.0600 C.ar  1     UNK     0.0000
     29 C18        33.5848   -1.1739  -63.8759 C.ar  1     UNK     0.0000
     30 C19        33.4370   -2.4180  -64.6609 C.ar  1     UNK     0.0000
     31 C20        32.4300   -3.3407  -64.3439 C.ar  1     UNK     0.0000
     32 C21        32.2943   -4.5002  -65.1108 C.ar  1     UNK     0.0000
     33 N6         33.1326   -4.7283  -66.1567 N.ar  1     UNK     0.0000
     34 C22        34.1155   -3.8488  -66.4870 C.ar  1     UNK     0.0000
     35 C23        34.2848   -2.6764  -65.7468 C.ar  1     UNK     0.0000
     36 H1         36.0664   -1.8269  -64.7188 H     1     UNK     0.0000
     37 H2         36.8184   -0.8022  -63.4698 H     1     UNK     0.0000
     38 H3         36.3217   -0.0706  -65.0561 H     1     UNK     0.0000
     39 H4         33.5704    2.1676  -61.0719 H     1     UNK     0.0000
     40 H5         36.1741    4.9617  -60.2021 H     1     UNK     0.0000
     41 H6         36.8446    5.3219  -61.3997 H     1     UNK     0.0000
     42 H7         36.7233    7.2950  -60.4085 H     1     UNK     0.0000
     43 H8         33.0038    6.3484  -62.1104 H     1     UNK     0.0000
     44 H9         34.2019    8.5530  -62.0303 H     1     UNK     0.0000
     45 H10        34.4204    8.3713  -60.2630 H     1     UNK     0.0000
     46 H11        32.2756    8.5388  -59.9761 H     1     UNK     0.0000
     47 H12        33.7304    6.2891  -59.1350 H     1     UNK     0.0000
     48 H13        31.4966    5.3463  -60.6611 H     1     UNK     0.0000
     49 H14        33.3539    3.8650  -60.9772 H     1     UNK     0.0000
     50 H15        33.5066    2.7034  -59.1022 H     1     UNK     0.0000
     51 H16        31.0715   -0.3569  -60.8835 H     1     UNK     0.0000
     52 H17        28.6944   -0.9596  -60.6347 H     1     UNK     0.0000
     53 H18        28.5485   -2.1646  -64.7545 H     1     UNK     0.0000
     54 H19        30.9104   -1.5433  -65.0337 H     1     UNK     0.0000
     55 H20        31.7595   -3.1651  -63.5116 H     1     UNK     0.0000
     56 H21        31.5214   -5.2193  -64.8745 H     1     UNK     0.0000
     57 H22        34.7640   -4.0581  -67.3271 H     1     UNK     0.0000
     58 H23        35.0614   -1.9735  -66.0225 H     1     UNK     0.0000
@<TRIPOS>BOND
     1     1     2    1 
     2     2     3    ar
     3     3     4    1 
     4     4     5    ar
     5     5     6    ar
     6     6     7    1 
     7     7     8    1 
     8     8     9    1 
     9     8    10    1 
    10    10    11    1 
    11    11    12    1 
    12    12    13    1 
    13    11    14    1 
    14    14    15    1 
    15    14    16    1 
    16    16    17    1 
    17     6    18    ar
    18    18    19    ar
    19     3    20    ar
    20    20    21    ar
    21    21    22    1 
    22    22    23    ar
    23    23    24    ar
    24    24    25    ar
    25    25    26    1 
    26    25    27    ar
    27    27    28    ar
    28    21    29    ar
    29    29    30    1 
    30    30    31    ar
    31    31    32    ar
    32    32    33    ar
    33    33    34    ar
    34    34    35    ar
    35    29     2    ar
    36    35    30    ar
    37    19     4    ar
    38    28    22    ar
    39    16     7    1 
    40     1    36    1 
    41     1    37    1 
    42     1    38    1 
    43     5    39    1 
    44     7    40    1 
    45     8    41    1 
    46     9    42    1 
    47    11    43    1 
    48    12    44    1 
    49    12    45    1 
    50    13    46    1 
    51    14    47    1 
    52    15    48    1 
    53    16    49    1 
    54    17    50    1 
    55    23    51    1 
    56    24    52    1 
    57    27    53    1 
    58    28    54    1 
    59    31    55    1 
    60    32    56    1 
    61    34    57    1 
    62    35    58    1 
@<TRIPOS>MOLECULE
Molecule 3_var_8.mol2
    20     0
SMALL
NO_CHARGES
@<TRIPOS>ATOM
      1 DON        36.2215    6.5882  -59.9245 HB    0     HB      0.0000
      2 DON        32.4711    8.5752  -60.9486 HB    1     HB      0.0000
      3 DON        31.8929    5.8386  -59.8954 HB    2     HB      0.0000
      4 DON        33.3809    3.6718  -58.9228 HB    3     HB      0.0000
      5 ACC        36.2215    6.5882  -59.9245 HB    4     HB      0.0000
      6 ACC        35.0017    6.1110  -61.8503 HB    5     HB      0.0000
      7 ACC        32.4711    8.5752  -60.9486 HB    6     HB      0.0000
      8 ACC        31.8929    5.8386  -59.8954 HB    7     HB      0.0000
      9 ACC        33.3809    3.6718  -58.9228 HB    8     HB      0.0000
     10 ACC        36.5765    3.0109  -61.8126 HB    9     HB      0.0000
     11 ACC        36.4406    1.9583  -62.6064 HB    10    HB      0.0000
     12 ACC        33.1432    0.5069  -62.4767 HB    11    HB      0.0000
     13 ACC        33.1326   -4.7283  -66.1567 HB    12    HB      0.0000
     14 CAT        34.7383   -0.4874  -63.7172 CHG   13    CHG     0.0000
     15 CAT        35.4639    3.2165  -61.1257 CHG   14    CHG     0.0000
     16 AR         33.7014   -0.2365  -63.2100 AR    15    AR      0.0000
     17 AR         35.6500    2.3861  -61.8842 AR    16    AR      0.0000
     18 AR         29.8215   -1.2685  -62.8230 AR    17    AR      0.0000
     19 AR         33.2824   -3.5854  -65.4177 AR    18    AR      0.0000
     20 HYD        36.0539   -0.8116  -64.2742 HYD   19    HYD     0.0000
@<TRIPOS>BOND
