@<TRIPOS>MOLECULE
Molecule Ligandos_final.mol2
     3     0
SMALL
NO_CHARGES
@<TRIPOS>ATOM
      5 ACC        33.1760    3.5180  -58.7810 HB    4     HB      0.0000
      6 ACC        32.1930    5.3290  -60.1640 HB    5     HB      0.0000
      8 AR         32.6817   -3.6287  -65.2760 AR    7     AR      0.0000
@<TRIPOS>BOND
@<TRIPOS>MOLECULE
Ligandos_final.mol2
    33    35
SMALL
NO_CHARGES
@<TRIPOS>ATOM
      1 C1         34.4600    0.4030  -61.4630 C.3   1     604     0.0000
      2 C1A        31.4480   -4.1500  -65.6180 C.ar  1     604     0.0000
      3 O1         35.5110   -0.4990  -61.1620 O.3   1     604     0.0000
      4 C2         34.2620    0.5920  -62.9480 C.3   1     604     0.0000
      5 C2A        31.5420   -3.0050  -64.8510 C.ar  1     604     0.0000
      6 N2         34.0600   -0.6570  -63.6450 N.am  1     604     0.0000
      7 C3         35.4470    1.3580  -63.4970 C.3   1     604     0.0000
      8 C3A        32.5930   -4.7780  -66.0400 C.ar  1     604     0.0000
      9 O3         35.3190    1.5200  -64.9050 O.3   1     604     0.0000
     10 C4         35.4990    2.6980  -62.7960 C.3   1     604     0.0000
     11 C4A        33.9180   -3.1030  -64.9360 C.ar  1     604     0.0000
     12 O4         36.6120    3.4100  -63.2990 O.3   1     604     0.0000
     13 C5         35.7180    2.4380  -61.3250 C.3   1     604     0.0000
     14 C5A        33.6680    5.9620  -57.1000 C.ar  1     604     0.0000
     15 O5         34.6550    1.6550  -60.8130 O.3   1     604     0.0000
     16 C6         35.7770    3.7080  -60.4950 C.3   1     604     0.0000
     17 C6A        32.7650   -2.4820  -64.5170 C.ar  1     604     0.0000
     18 C7         34.2580    7.1740  -56.6870 C.ar  1     604     0.0000
     19 C8         33.8240   -4.2540  -65.6940 C.ar  1     604     0.0000
     20 C9         34.7710    7.8040  -57.7890 C.ar  1     604     0.0000
     21 C10        33.8570    5.9180  -58.4620 C.ar  1     604     0.0000
     22 C11        32.8240   -1.2630  -63.7010 C.2   1     604     0.0000
     23 C12        34.2960    7.6700  -55.2570 C.2   1     604     0.0000
     24 C18        35.4850    9.0730  -57.9450 C.3   1     604     0.0000
     25 N21        34.6110    4.5690  -60.7660 N.pl3 1     604     0.0000
     26 O22        34.7110    8.8530  -55.0920 O.co2 1     604     0.0000
     27 O23        31.8220   -0.8920  -63.1150 O.2   1     604     0.0000
     28 O24        33.8950    6.8060  -54.4280 O.co2 1     604     0.0000
     29 O25        33.1760    3.5180  -58.7810 O.2   1     604     0.0000
     30 O26        32.1930    5.3290  -60.1640 O.2   1     604     0.0000
     31 O27        34.5270    7.0310  -58.8860 O.2   1     604     0.0000
     32 S32        33.3610    4.7070  -59.5870 S.o2  1     604     0.0000
     33 BR         35.4060   -5.1490  -66.2810 Br    1     604     0.0000
@<TRIPOS>BOND
     1     1     3    1 
     2     1    15    1 
     3     1     4    1 
     4     2     5    ar
     5     2     8    ar
     6     4     6    1 
     7     4     7    1 
     8     5    17    ar
     9     6    22    am
    10     7     9    1 
    11     7    10    1 
    12     8    19    ar
    13    10    12    1 
    14    10    13    1 
    15    11    17    ar
    16    11    19    ar
    17    13    15    1 
    18    13    16    1 
    19    14    18    ar
    20    14    21    ar
    21    16    25    1 
    22    17    22    1 
    23    18    20    ar
    24    18    23    1 
    25    19    33    1 
    26    20    24    1 
    27    20    31    ar
    28    21    31    ar
    29    21    32    1 
    30    22    27    2 
    31    23    26    2 
    32    23    28    2 
    33    25    32    1 
    34    29    32    2 
    35    30    32    2 
@<TRIPOS>MOLECULE
Molecule Ligandos_final.mol2
     9     0
SMALL
NO_CHARGES
@<TRIPOS>ATOM
      1 ACC        34.6550    1.6550  -60.8130 HB    0     HB      0.0000
      2 ACC        34.7110    8.8530  -55.0920 HB    1     HB      0.0000
      3 ACC        33.8950    6.8060  -54.4280 HB    2     HB      0.0000
      4 ACC        31.8220   -0.8920  -63.1150 HB    3     HB      0.0000
      5 ACC        33.1760    3.5180  -58.7810 HB    4     HB      0.0000
      6 ACC        32.1930    5.3290  -60.1640 HB    5     HB      0.0000
      7 ANI        34.2960    7.6700  -55.2570 CHG   6     CHG     0.0000
      8 AR         32.6817   -3.6287  -65.2760 AR    7     AR      0.0000
      9 AR         34.2162    6.7778  -57.7848 AR    8     AR      0.0000
@<TRIPOS>BOND
@<TRIPOS>MOLECULE
3_var_240.mol2
    48    50
SMALL
NO_CHARGES
@<TRIPOS>ATOM
      1 H1         31.0641   -1.0745  -63.9036 H     1     UNK     0.0000
      2 O1         31.1130   -0.4958  -63.0738 O.3   1     UNK     0.0000
      3 C1         31.9477    0.6169  -63.0065 C.2   1     UNK     0.0000
      4 N1         31.9566    1.3159  -61.9071 N.2   1     UNK     0.0000
      5 C2         32.7638    2.5073  -61.6216 C.3   1     UNK     0.0000
      6 H2         33.1608    2.9581  -62.5572 H     1     UNK     0.0000
      7 C3         31.8745    3.5517  -60.9275 C.3   1     UNK     0.0000
      8 H3         31.4183    3.0878  -60.0255 H     1     UNK     0.0000
      9 O2         30.8223    3.9557  -61.7700 O.3   1     UNK     0.0000
     10 H4         31.2222    4.3501  -62.5890 H     1     UNK     0.0000
     11 C4         32.7179    4.7610  -60.4922 C.3   1     UNK     0.0000
     12 H5         33.0670    5.2856  -61.4136 H     1     UNK     0.0000
     13 O3         31.9266    5.6377  -59.7325 O.3   1     UNK     0.0000
     14 H6         32.4092    6.5049  -59.7030 H     1     UNK     0.0000
     15 C5         33.9736    4.3087  -59.7012 C.3   1     UNK     0.0000
     16 H7         33.4183    3.5849  -60.3381 H     1     UNK     0.0000
     17 C6         33.6979    3.8857  -58.2402 C.3   1     UNK     0.0000
     18 H8         32.6727    4.2149  -57.9581 H     1     UNK     0.0000
     19 H9         34.4216    4.3591  -57.5426 H     1     UNK     0.0000
     20 O4         33.7788    2.4919  -58.1182 O.3   1     UNK     0.0000
     21 H10        33.5860    2.2858  -57.1667 H     1     UNK     0.0000
     22 O5         34.7138    3.3235  -60.4127 O.3   1     UNK     0.0000
     23 C7         33.9538    2.1582  -60.6971 C.3   1     UNK     0.0000
     24 H11        33.2646    1.5126  -60.0675 H     1     UNK     0.0000
     25 O6         35.0100    1.1617  -61.1375 O.3   1     UNK     0.0000
     26 C8         34.1286    0.1485  -62.2202 C.ar  1     UNK     0.0000
     27 C9         32.7550    0.2698  -62.4539 C.ar  1     UNK     0.0000
     28 H12        32.1896    1.0385  -61.9422 H     1     UNK     0.0000
     29 C10        32.0961   -0.5960  -63.3298 C.ar  1     UNK     0.0000
     30 H13        31.0318   -0.4662  -63.4733 H     1     UNK     0.0000
     31 C11        32.8094   -1.6082  -63.9984 C.ar  1     UNK     0.0000
     32 C12        32.1946   -2.5163  -64.8904 C.2   1     UNK     0.0000
     33 C13        30.7192   -2.4652  -65.1923 C.3   1     UNK     0.0000
     34 H14        30.4200   -3.2551  -65.9136 H     1     UNK     0.0000
     35 H15        30.1390   -2.6167  -64.2579 H     1     UNK     0.0000
     36 H16        30.4600   -1.4807  -65.6351 H     1     UNK     0.0000
     37 C14        32.9882   -3.4922  -65.5083 C.2   1     UNK     0.0000
     38 H17        32.5532   -4.2063  -66.1980 H     1     UNK     0.0000
     39 C15        34.3557   -3.5427  -65.2300 C.2   1     UNK     0.0000
     40 O7         35.0767   -4.4158  -65.7801 O.2   1     UNK     0.0000
     41 O8         34.9036   -2.6754  -64.3875 O.3   1     UNK     0.0000
     42 C16        34.2010   -1.7291  -63.7724 C.ar  1     UNK     0.0000
     43 C17        34.8514   -0.8542  -62.8958 C.ar  1     UNK     0.0000
     44 H18        35.9123   -0.9843  -62.7443 H     1     UNK     0.0000
     45 C18        32.7912    0.9792  -64.1985 C.3   1     UNK     0.0000
     46 H19        32.4352    1.9369  -64.6320 H     1     UNK     0.0000
     47 H20        33.8569    1.0745  -63.9066 H     1     UNK     0.0000
     48 H21        32.7204    0.1939  -64.9793 H     1     UNK     0.0000
@<TRIPOS>BOND
     1     1     2    1 
     2     2     3    1 
     3     3     4    2 
     4     4     5    1 
     5     5     6    1 
     6     5     7    1 
     7     7     8    1 
     8     7     9    1 
     9     9    10    1 
    10     7    11    1 
    11    11    12    1 
    12    11    13    1 
    13    13    14    1 
    14    11    15    1 
    15    15    16    1 
    16    15    17    1 
    17    17    18    1 
    18    17    19    1 
    19    17    20    1 
    20    20    21    1 
    21    15    22    1 
    22    22    23    1 
    23    23    24    1 
    24    23    25    1 
    25    25    26    1 
    26    26    27    ar
    27    27    28    1 
    28    27    29    ar
    29    29    30    1 
    30    29    31    ar
    31    31    32    1 
    32    32    33    1 
    33    33    34    1 
    34    33    35    1 
    35    33    36    1 
    36    32    37    2 
    37    37    38    1 
    38    37    39    2 
    39    39    40    2 
    40    39    41    1 
    41    41    42    1 
    42    42    43    ar
    43    43    44    1 
    44     3    45    1 
    45    45    46    1 
    46    45    47    1 
    47    45    48    1 
    48    23     5    1 
    49    43    26    ar
    50    42    31    ar
@<TRIPOS>MOLECULE
Molecule 3_var_240.mol2
    18     0
SMALL
NO_CHARGES
@<TRIPOS>ATOM
      1 DON        31.1130   -0.4958  -63.0738 HB    0     HB      0.0000
      2 DON        30.8223    3.9557  -61.7700 HB    1     HB      0.0000
      3 DON        31.9266    5.6377  -59.7325 HB    2     HB      0.0000
      4 DON        33.7788    2.4919  -58.1182 HB    3     HB      0.0000
      5 ACC        31.1130   -0.4958  -63.0738 HB    4     HB      0.0000
      6 ACC        31.9566    1.3159  -61.9071 HB    5     HB      0.0000
      7 ACC        30.8223    3.9557  -61.7700 HB    6     HB      0.0000
      8 ACC        31.9266    5.6377  -59.7325 HB    7     HB      0.0000
      9 ACC        33.7788    2.4919  -58.1182 HB    8     HB      0.0000
     10 ACC        34.7138    3.3235  -60.4127 HB    9     HB      0.0000
     11 ACC        34.7169    1.0448  -61.3094 HB    10    HB      0.0000
     12 ACC        35.0767   -4.4158  -65.7801 HB    11    HB      0.0000
     13 ACC        34.9036   -2.6754  -64.3875 HB    12    HB      0.0000
     14 AR         33.4736   -0.7282  -63.1117 AR    13    AR      0.0000
     15 AR         33.5754   -2.5940  -64.6312 AR    14    AR      0.0000
     16 HYD        31.4569   -2.4908  -65.0413 HYD   15    HYD     0.0000
     17 HYD        30.7192   -2.4652  -65.1923 HYD   16    HYD     0.0000
     18 HYD        32.7912    0.9792  -64.1985 HYD   17    HYD     0.0000
@<TRIPOS>BOND
