@<TRIPOS>MOLECULE
Molecule Ligandos_final.mol2
     3     0
SMALL
NO_CHARGES
@<TRIPOS>ATOM
      5 ACC        33.1760    3.5180  -58.7810 HB    4     HB      0.0000
      6 ACC        32.1930    5.3290  -60.1640 HB    5     HB      0.0000
      8 AR         32.6817   -3.6287  -65.2760 AR    7     AR      0.0000
@<TRIPOS>BOND
@<TRIPOS>MOLECULE
Ligandos_final.mol2
    33    35
SMALL
NO_CHARGES
@<TRIPOS>ATOM
      1 C1         34.4600    0.4030  -61.4630 C.3   1     604     0.0000
      2 C1A        31.4480   -4.1500  -65.6180 C.ar  1     604     0.0000
      3 O1         35.5110   -0.4990  -61.1620 O.3   1     604     0.0000
      4 C2         34.2620    0.5920  -62.9480 C.3   1     604     0.0000
      5 C2A        31.5420   -3.0050  -64.8510 C.ar  1     604     0.0000
      6 N2         34.0600   -0.6570  -63.6450 N.am  1     604     0.0000
      7 C3         35.4470    1.3580  -63.4970 C.3   1     604     0.0000
      8 C3A        32.5930   -4.7780  -66.0400 C.ar  1     604     0.0000
      9 O3         35.3190    1.5200  -64.9050 O.3   1     604     0.0000
     10 C4         35.4990    2.6980  -62.7960 C.3   1     604     0.0000
     11 C4A        33.9180   -3.1030  -64.9360 C.ar  1     604     0.0000
     12 O4         36.6120    3.4100  -63.2990 O.3   1     604     0.0000
     13 C5         35.7180    2.4380  -61.3250 C.3   1     604     0.0000
     14 C5A        33.6680    5.9620  -57.1000 C.ar  1     604     0.0000
     15 O5         34.6550    1.6550  -60.8130 O.3   1     604     0.0000
     16 C6         35.7770    3.7080  -60.4950 C.3   1     604     0.0000
     17 C6A        32.7650   -2.4820  -64.5170 C.ar  1     604     0.0000
     18 C7         34.2580    7.1740  -56.6870 C.ar  1     604     0.0000
     19 C8         33.8240   -4.2540  -65.6940 C.ar  1     604     0.0000
     20 C9         34.7710    7.8040  -57.7890 C.ar  1     604     0.0000
     21 C10        33.8570    5.9180  -58.4620 C.ar  1     604     0.0000
     22 C11        32.8240   -1.2630  -63.7010 C.2   1     604     0.0000
     23 C12        34.2960    7.6700  -55.2570 C.2   1     604     0.0000
     24 C18        35.4850    9.0730  -57.9450 C.3   1     604     0.0000
     25 N21        34.6110    4.5690  -60.7660 N.pl3 1     604     0.0000
     26 O22        34.7110    8.8530  -55.0920 O.co2 1     604     0.0000
     27 O23        31.8220   -0.8920  -63.1150 O.2   1     604     0.0000
     28 O24        33.8950    6.8060  -54.4280 O.co2 1     604     0.0000
     29 O25        33.1760    3.5180  -58.7810 O.2   1     604     0.0000
     30 O26        32.1930    5.3290  -60.1640 O.2   1     604     0.0000
     31 O27        34.5270    7.0310  -58.8860 O.2   1     604     0.0000
     32 S32        33.3610    4.7070  -59.5870 S.o2  1     604     0.0000
     33 BR         35.4060   -5.1490  -66.2810 Br    1     604     0.0000
@<TRIPOS>BOND
     1     1     3    1 
     2     1    15    1 
     3     1     4    1 
     4     2     5    ar
     5     2     8    ar
     6     4     6    1 
     7     4     7    1 
     8     5    17    ar
     9     6    22    am
    10     7     9    1 
    11     7    10    1 
    12     8    19    ar
    13    10    12    1 
    14    10    13    1 
    15    11    17    ar
    16    11    19    ar
    17    13    15    1 
    18    13    16    1 
    19    14    18    ar
    20    14    21    ar
    21    16    25    1 
    22    17    22    1 
    23    18    20    ar
    24    18    23    1 
    25    19    33    1 
    26    20    24    1 
    27    20    31    ar
    28    21    31    ar
    29    21    32    1 
    30    22    27    2 
    31    23    26    2 
    32    23    28    2 
    33    25    32    1 
    34    29    32    2 
    35    30    32    2 
@<TRIPOS>MOLECULE
Molecule Ligandos_final.mol2
     9     0
SMALL
NO_CHARGES
@<TRIPOS>ATOM
      1 ACC        34.6550    1.6550  -60.8130 HB    0     HB      0.0000
      2 ACC        34.7110    8.8530  -55.0920 HB    1     HB      0.0000
      3 ACC        33.8950    6.8060  -54.4280 HB    2     HB      0.0000
      4 ACC        31.8220   -0.8920  -63.1150 HB    3     HB      0.0000
      5 ACC        33.1760    3.5180  -58.7810 HB    4     HB      0.0000
      6 ACC        32.1930    5.3290  -60.1640 HB    5     HB      0.0000
      7 ANI        34.2960    7.6700  -55.2570 CHG   6     CHG     0.0000
      8 AR         32.6817   -3.6287  -65.2760 AR    7     AR      0.0000
      9 AR         34.2162    6.7778  -57.7848 AR    8     AR      0.0000
@<TRIPOS>BOND
@<TRIPOS>MOLECULE
3_var_75.mol2
    50    52
SMALL
NO_CHARGES
@<TRIPOS>ATOM
      1 H1         30.5221    2.9186  -59.7252 H     1     UNK     0.0000
      2 O1         31.5314    3.0028  -59.7120 O.3   1     UNK     0.0000
      3 C1         32.2793    2.5414  -58.6291 C.2   1     UNK     0.0000
      4 N1         33.5731    2.6679  -58.6122 N.2   1     UNK     0.0000
      5 C2         34.3660    3.2973  -59.6722 C.3   1     UNK     0.0000
      6 H2         35.4301    3.3614  -59.3518 H     1     UNK     0.0000
      7 C3         34.2759    2.4765  -60.9779 C.3   1     UNK     0.0000
      8 H3         33.4787    2.3184  -61.2829 H     1     UNK     0.0000
      9 O2         34.9599    0.9799  -60.7491 O.3   1     UNK     0.0000
     10 C4         34.6026   -0.1287  -61.7521 C.ar  1     UNK     0.0000
     11 C5         35.5452   -1.1150  -61.4415 C.ar  1     UNK     0.0000
     12 H4         36.3026   -0.9184  -60.6935 H     1     UNK     0.0000
     13 C6         35.5215   -2.3537  -62.0869 C.ar  1     UNK     0.0000
     14 H5         36.2646   -3.0984  -61.8267 H     1     UNK     0.0000
     15 C7         34.5472   -2.6250  -63.0580 C.ar  1     UNK     0.0000
     16 C8         34.5162   -3.8663  -63.7132 C.ar  1     UNK     0.0000
     17 H6         35.2536   -4.6176  -63.4613 H     1     UNK     0.0000
     18 C9         33.5358   -4.1309  -64.6893 C.ar  1     UNK     0.0000
     19 O3         33.4654   -5.3545  -65.3722 O.3   1     UNK     0.0000
     20 C10        34.3525   -6.4477  -65.1589 C.3   1     UNK     0.0000
     21 H7         34.2801   -6.7984  -64.1077 H     1     UNK     0.0000
     22 H8         34.0676   -7.2821  -65.8319 H     1     UNK     0.0000
     23 H9         35.3952   -6.1445  -65.3906 H     1     UNK     0.0000
     24 C11        32.5916   -3.1451  -64.9983 C.ar  1     UNK     0.0000
     25 H10        31.8341   -3.3409  -65.7467 H     1     UNK     0.0000
     26 C12        32.6135   -1.9076  -64.3508 C.ar  1     UNK     0.0000
     27 H11        31.8701   -1.1629  -64.6098 H     1     UNK     0.0000
     28 C13        33.5876   -1.6369  -63.3793 C.ar  1     UNK     0.0000
     29 C14        33.6184   -0.3959  -62.7244 C.ar  1     UNK     0.0000
     30 H12        32.8782    0.3524  -62.9762 H     1     UNK     0.0000
     31 O4         35.0133    3.1126  -62.0085 O.3   1     UNK     0.0000
     32 C15        34.4104    4.3459  -62.3586 C.3   1     UNK     0.0000
     33 H13        33.3377    4.1932  -62.6259 H     1     UNK     0.0000
     34 C16        35.1008    4.9045  -63.6104 C.3   1     UNK     0.0000
     35 H14        36.1845    5.0470  -63.4131 H     1     UNK     0.0000
     36 H15        34.6696    5.8961  -63.8792 H     1     UNK     0.0000
     37 O5         34.9631    4.0120  -64.6832 O.3   1     UNK     0.0000
     38 H16        34.0311    4.1048  -65.0130 H     1     UNK     0.0000
     39 C17        34.4926    5.3452  -61.1762 C.3   1     UNK     0.0000
     40 H17        33.9192    6.2577  -61.4509 H     1     UNK     0.0000
     41 O6         35.8164    5.7499  -60.9159 O.3   1     UNK     0.0000
     42 H18        36.3702    4.9373  -60.7868 H     1     UNK     0.0000
     43 C18        33.8490    4.7307  -59.9129 C.3   1     UNK     0.0000
     44 H19        34.1187    5.3514  -59.0257 H     1     UNK     0.0000
     45 O7         32.4498    4.7089  -60.0573 O.3   1     UNK     0.0000
     46 H20        32.1284    5.6335  -59.8915 H     1     UNK     0.0000
     47 C19        31.5857    1.9059  -57.4678 C.3   1     UNK     0.0000
     48 H21        31.0290    2.6818  -56.9026 H     1     UNK     0.0000
     49 H22        30.8716    1.1390  -57.8340 H     1     UNK     0.0000
     50 H23        32.3166    1.4171  -56.7884 H     1     UNK     0.0000
@<TRIPOS>BOND
     1     1     2    1 
     2     2     3    1 
     3     3     4    2 
     4     4     5    1 
     5     5     6    1 
     6     5     7    1 
     7     7     8    1 
     8     7     9    1 
     9     9    10    1 
    10    10    11    ar
    11    11    12    1 
    12    11    13    ar
    13    13    14    1 
    14    13    15    ar
    15    15    16    ar
    16    16    17    1 
    17    16    18    ar
    18    18    19    1 
    19    19    20    1 
    20    20    21    1 
    21    20    22    1 
    22    20    23    1 
    23    18    24    ar
    24    24    25    1 
    25    24    26    ar
    26    26    27    1 
    27    26    28    ar
    28    28    29    ar
    29    29    30    1 
    30     7    31    1 
    31    31    32    1 
    32    32    33    1 
    33    32    34    1 
    34    34    35    1 
    35    34    36    1 
    36    34    37    1 
    37    37    38    1 
    38    32    39    1 
    39    39    40    1 
    40    39    41    1 
    41    41    42    1 
    42    39    43    1 
    43    43    44    1 
    44    43    45    1 
    45    45    46    1 
    46     3    47    1 
    47    47    48    1 
    48    47    49    1 
    49    47    50    1 
    50    43     5    1 
    51    29    10    ar
    52    28    15    ar
@<TRIPOS>MOLECULE
Molecule 3_var_75.mol2
    16     0
SMALL
NO_CHARGES
@<TRIPOS>ATOM
      1 DON        31.5314    3.0028  -59.7120 HB    0     HB      0.0000
      2 DON        34.9631    4.0120  -64.6832 HB    1     HB      0.0000
      3 DON        35.8164    5.7499  -60.9159 HB    2     HB      0.0000
      4 DON        32.4498    4.7089  -60.0573 HB    3     HB      0.0000
      5 ACC        31.5314    3.0028  -59.7120 HB    4     HB      0.0000
      6 ACC        33.5731    2.6679  -58.6122 HB    5     HB      0.0000
      7 ACC        34.6793    1.0964  -61.0721 HB    6     HB      0.0000
      8 ACC        33.4654   -5.3545  -65.3722 HB    7     HB      0.0000
      9 ACC        35.0133    3.1126  -62.0085 HB    8     HB      0.0000
     10 ACC        34.9631    4.0120  -64.6832 HB    9     HB      0.0000
     11 ACC        35.8164    5.7499  -60.9159 HB    10    HB      0.0000
     12 ACC        32.4498    4.7089  -60.0573 HB    11    HB      0.0000
     13 AR         34.5704   -1.3759  -62.4070 AR    12    AR      0.0000
     14 AR         33.5653   -2.8853  -64.0315 AR    13    AR      0.0000
     15 HYD        34.3525   -6.4477  -65.1589 HYD   14    HYD     0.0000
     16 HYD        31.5857    1.9059  -57.4678 HYD   15    HYD     0.0000
@<TRIPOS>BOND
