@<TRIPOS>MOLECULE
Molecule Ligandos_final.mol2
     3     0
SMALL
NO_CHARGES
@<TRIPOS>ATOM
      5 ACC        33.1760    3.5180  -58.7810 HB    4     HB      0.0000
      6 ACC        32.1930    5.3290  -60.1640 HB    5     HB      0.0000
      8 AR         32.6817   -3.6287  -65.2760 AR    7     AR      0.0000
@<TRIPOS>BOND
@<TRIPOS>MOLECULE
Ligandos_final.mol2
    33    35
SMALL
NO_CHARGES
@<TRIPOS>ATOM
      1 C1         34.4600    0.4030  -61.4630 C.3   1     604     0.0000
      2 C1A        31.4480   -4.1500  -65.6180 C.ar  1     604     0.0000
      3 O1         35.5110   -0.4990  -61.1620 O.3   1     604     0.0000
      4 C2         34.2620    0.5920  -62.9480 C.3   1     604     0.0000
      5 C2A        31.5420   -3.0050  -64.8510 C.ar  1     604     0.0000
      6 N2         34.0600   -0.6570  -63.6450 N.am  1     604     0.0000
      7 C3         35.4470    1.3580  -63.4970 C.3   1     604     0.0000
      8 C3A        32.5930   -4.7780  -66.0400 C.ar  1     604     0.0000
      9 O3         35.3190    1.5200  -64.9050 O.3   1     604     0.0000
     10 C4         35.4990    2.6980  -62.7960 C.3   1     604     0.0000
     11 C4A        33.9180   -3.1030  -64.9360 C.ar  1     604     0.0000
     12 O4         36.6120    3.4100  -63.2990 O.3   1     604     0.0000
     13 C5         35.7180    2.4380  -61.3250 C.3   1     604     0.0000
     14 C5A        33.6680    5.9620  -57.1000 C.ar  1     604     0.0000
     15 O5         34.6550    1.6550  -60.8130 O.3   1     604     0.0000
     16 C6         35.7770    3.7080  -60.4950 C.3   1     604     0.0000
     17 C6A        32.7650   -2.4820  -64.5170 C.ar  1     604     0.0000
     18 C7         34.2580    7.1740  -56.6870 C.ar  1     604     0.0000
     19 C8         33.8240   -4.2540  -65.6940 C.ar  1     604     0.0000
     20 C9         34.7710    7.8040  -57.7890 C.ar  1     604     0.0000
     21 C10        33.8570    5.9180  -58.4620 C.ar  1     604     0.0000
     22 C11        32.8240   -1.2630  -63.7010 C.2   1     604     0.0000
     23 C12        34.2960    7.6700  -55.2570 C.2   1     604     0.0000
     24 C18        35.4850    9.0730  -57.9450 C.3   1     604     0.0000
     25 N21        34.6110    4.5690  -60.7660 N.pl3 1     604     0.0000
     26 O22        34.7110    8.8530  -55.0920 O.co2 1     604     0.0000
     27 O23        31.8220   -0.8920  -63.1150 O.2   1     604     0.0000
     28 O24        33.8950    6.8060  -54.4280 O.co2 1     604     0.0000
     29 O25        33.1760    3.5180  -58.7810 O.2   1     604     0.0000
     30 O26        32.1930    5.3290  -60.1640 O.2   1     604     0.0000
     31 O27        34.5270    7.0310  -58.8860 O.2   1     604     0.0000
     32 S32        33.3610    4.7070  -59.5870 S.o2  1     604     0.0000
     33 BR         35.4060   -5.1490  -66.2810 Br    1     604     0.0000
@<TRIPOS>BOND
     1     1     3    1 
     2     1    15    1 
     3     1     4    1 
     4     2     5    ar
     5     2     8    ar
     6     4     6    1 
     7     4     7    1 
     8     5    17    ar
     9     6    22    am
    10     7     9    1 
    11     7    10    1 
    12     8    19    ar
    13    10    12    1 
    14    10    13    1 
    15    11    17    ar
    16    11    19    ar
    17    13    15    1 
    18    13    16    1 
    19    14    18    ar
    20    14    21    ar
    21    16    25    1 
    22    17    22    1 
    23    18    20    ar
    24    18    23    1 
    25    19    33    1 
    26    20    24    1 
    27    20    31    ar
    28    21    31    ar
    29    21    32    1 
    30    22    27    2 
    31    23    26    2 
    32    23    28    2 
    33    25    32    1 
    34    29    32    2 
    35    30    32    2 
@<TRIPOS>MOLECULE
Molecule Ligandos_final.mol2
     9     0
SMALL
NO_CHARGES
@<TRIPOS>ATOM
      1 ACC        34.6550    1.6550  -60.8130 HB    0     HB      0.0000
      2 ACC        34.7110    8.8530  -55.0920 HB    1     HB      0.0000
      3 ACC        33.8950    6.8060  -54.4280 HB    2     HB      0.0000
      4 ACC        31.8220   -0.8920  -63.1150 HB    3     HB      0.0000
      5 ACC        33.1760    3.5180  -58.7810 HB    4     HB      0.0000
      6 ACC        32.1930    5.3290  -60.1640 HB    5     HB      0.0000
      7 ANI        34.2960    7.6700  -55.2570 CHG   6     CHG     0.0000
      8 AR         32.6817   -3.6287  -65.2760 AR    7     AR      0.0000
      9 AR         34.2162    6.7778  -57.7848 AR    8     AR      0.0000
@<TRIPOS>BOND
@<TRIPOS>MOLECULE
3_var_156.mol2
    48    50
SMALL
NO_CHARGES
@<TRIPOS>ATOM
      1 C1         35.6362    1.7870  -64.8304 C.3   1     UNK     0.0000
      2 C2         35.2139    2.0529  -63.4221 C.2   1     UNK     0.0000
      3 O1         36.0936    2.2368  -62.5381 O.2   1     UNK     0.0000
      4 N1         33.8194    2.1596  -63.0985 N.am  1     UNK     0.0000
      5 C3         33.3322    2.5122  -61.7610 C.3   1     UNK     0.0000
      6 C4         34.4749    2.4408  -60.7205 C.3   1     UNK     0.0000
      7 O2         34.7725    0.8915  -60.7754 O.3   1     UNK     0.0000
      8 C5         34.5118   -0.1193  -61.8672 C.ar  1     UNK     0.0000
      9 C6         35.5334   -1.0392  -61.6105 C.ar  1     UNK     0.0000
     10 C7         35.6887   -2.1790  -62.4029 C.ar  1     UNK     0.0000
     11 C8         34.8193   -2.4165  -63.4838 C.ar  1     UNK     0.0000
     12 C9         34.9226   -3.5565  -64.3129 C.2   1     UNK     0.0000
     13 C10        35.9780   -4.6096  -64.0960 C.3   1     UNK     0.0000
     14 C11        34.0104   -3.7057  -65.3665 C.2   1     UNK     0.0000
     15 C12        33.0305   -2.7318  -65.5698 C.2   1     UNK     0.0000
     16 O3         32.2073   -2.8567  -66.5139 O.2   1     UNK     0.0000
     17 O4         32.9591   -1.6721  -64.7732 O.3   1     UNK     0.0000
     18 C13        33.7957   -1.4787  -63.7582 C.ar  1     UNK     0.0000
     19 C14        33.6511   -0.3394  -62.9597 C.ar  1     UNK     0.0000
     20 O5         33.9800    2.8136  -59.4460 O.3   1     UNK     0.0000
     21 C15        33.5931    4.1787  -59.4287 C.3   1     UNK     0.0000
     22 C16        33.2494    4.5664  -57.9828 C.3   1     UNK     0.0000
     23 O6         34.1322    5.5514  -57.5169 O.3   1     UNK     0.0000
     24 C17        32.3806    4.3995  -60.3631 C.3   1     UNK     0.0000
     25 O7         32.0360    5.7618  -60.4029 O.3   1     UNK     0.0000
     26 C18        32.7436    3.9368  -61.7852 C.3   1     UNK     0.0000
     27 O8         31.6251    4.0051  -62.6350 O.3   1     UNK     0.0000
     28 H1         35.6961    2.7458  -65.3854 H     1     UNK     0.0000
     29 H2         36.6319    1.2952  -64.8465 H     1     UNK     0.0000
     30 H3         34.9031    1.1201  -65.3304 H     1     UNK     0.0000
     31 H4         34.4884    2.8096  -63.5708 H     1     UNK     0.0000
     32 H5         32.5325    1.8073  -61.4411 H     1     UNK     0.0000
     33 H6         34.7914    2.6769  -61.8578 H     1     UNK     0.0000
     34 H7         36.2060   -0.8758  -60.7778 H     1     UNK     0.0000
     35 H8         36.4873   -2.8666  -62.1591 H     1     UNK     0.0000
     36 H9         35.8625   -5.0549  -63.0854 H     1     UNK     0.0000
     37 H10        36.9868   -4.1555  -64.1886 H     1     UNK     0.0000
     38 H11        35.9007   -5.4287  -64.8424 H     1     UNK     0.0000
     39 H12        34.0575   -4.5662  -66.0236 H     1     UNK     0.0000
     40 H13        32.8614    0.3546  -63.2035 H     1     UNK     0.0000
     41 H14        33.4493    5.0887  -60.0582 H     1     UNK     0.0000
     42 H15        33.3400    3.6746  -57.3259 H     1     UNK     0.0000
     43 H16        32.2014    4.9363  -57.9139 H     1     UNK     0.0000
     44 H17        33.8593    6.4038  -57.9466 H     1     UNK     0.0000
     45 H18        31.5222    3.7844  -59.9974 H     1     UNK     0.0000
     46 H19        31.3171    5.9020  -59.7330 H     1     UNK     0.0000
     47 H20        33.5167    4.6300  -62.1871 H     1     UNK     0.0000
     48 H21        30.9386    3.3801  -62.2825 H     1     UNK     0.0000
@<TRIPOS>BOND
     1     1     2    1 
     2     2     3    2 
     3     2     4    am
     4     4     5    1 
     5     5     6    1 
     6     6     7    1 
     7     7     8    1 
     8     8     9    ar
     9     9    10    ar
    10    10    11    ar
    11    11    12    1 
    12    12    13    1 
    13    12    14    2 
    14    14    15    2 
    15    15    16    2 
    16    15    17    1 
    17    17    18    1 
    18    18    19    ar
    19     6    20    1 
    20    20    21    1 
    21    21    22    1 
    22    22    23    1 
    23    21    24    1 
    24    24    25    1 
    25    24    26    1 
    26    26    27    1 
    27    26     5    1 
    28    19     8    ar
    29    18    11    ar
    30     1    28    1 
    31     1    29    1 
    32     1    30    1 
    33     4    31    1 
    34     5    32    1 
    35     6    33    1 
    36     9    34    1 
    37    10    35    1 
    38    13    36    1 
    39    13    37    1 
    40    13    38    1 
    41    14    39    1 
    42    19    40    1 
    43    21    41    1 
    44    22    42    1 
    45    22    43    1 
    46    23    44    1 
    47    24    45    1 
    48    25    46    1 
    49    26    47    1 
    50    27    48    1 
@<TRIPOS>MOLECULE
Molecule 3_var_156.mol2
    17     0
SMALL
NO_CHARGES
@<TRIPOS>ATOM
      1 DON        33.8194    2.1596  -63.0985 HB    0     HB      0.0000
      2 DON        34.1322    5.5514  -57.5169 HB    1     HB      0.0000
      3 DON        32.0360    5.7618  -60.4029 HB    2     HB      0.0000
      4 DON        31.6251    4.0051  -62.6350 HB    3     HB      0.0000
      5 ACC        36.0936    2.2368  -62.5381 HB    4     HB      0.0000
      6 ACC        34.4007    0.9908  -61.0117 HB    5     HB      0.0000
      7 ACC        32.2073   -2.8567  -66.5139 HB    6     HB      0.0000
      8 ACC        32.9591   -1.6721  -64.7732 HB    7     HB      0.0000
      9 ACC        33.9800    2.8136  -59.4460 HB    8     HB      0.0000
     10 ACC        34.1322    5.5514  -57.5169 HB    9     HB      0.0000
     11 ACC        32.0360    5.7618  -60.4029 HB    10    HB      0.0000
     12 ACC        31.6251    4.0051  -62.6350 HB    11    HB      0.0000
     13 AR         34.6667   -1.2620  -62.6804 AR    12    AR      0.0000
     14 AR         33.9229   -2.5935  -64.5441 AR    13    AR      0.0000
     15 HYD        35.4503   -4.0830  -64.2045 HYD   14    HYD     0.0000
     16 HYD        35.6362    1.7870  -64.8304 HYD   15    HYD     0.0000
     17 HYD        35.9780   -4.6096  -64.0960 HYD   16    HYD     0.0000
@<TRIPOS>BOND
