@<TRIPOS>MOLECULE
Molecule Ligandos_final.mol2
     3     0
SMALL
NO_CHARGES
@<TRIPOS>ATOM
      5 ACC        33.1760    3.5180  -58.7810 HB    4     HB      0.0000
      6 ACC        32.1930    5.3290  -60.1640 HB    5     HB      0.0000
      8 AR         32.6817   -3.6287  -65.2760 AR    7     AR      0.0000
@<TRIPOS>BOND
@<TRIPOS>MOLECULE
Ligandos_final.mol2
    33    35
SMALL
NO_CHARGES
@<TRIPOS>ATOM
      1 C1         34.4600    0.4030  -61.4630 C.3   1     604     0.0000
      2 C1A        31.4480   -4.1500  -65.6180 C.ar  1     604     0.0000
      3 O1         35.5110   -0.4990  -61.1620 O.3   1     604     0.0000
      4 C2         34.2620    0.5920  -62.9480 C.3   1     604     0.0000
      5 C2A        31.5420   -3.0050  -64.8510 C.ar  1     604     0.0000
      6 N2         34.0600   -0.6570  -63.6450 N.am  1     604     0.0000
      7 C3         35.4470    1.3580  -63.4970 C.3   1     604     0.0000
      8 C3A        32.5930   -4.7780  -66.0400 C.ar  1     604     0.0000
      9 O3         35.3190    1.5200  -64.9050 O.3   1     604     0.0000
     10 C4         35.4990    2.6980  -62.7960 C.3   1     604     0.0000
     11 C4A        33.9180   -3.1030  -64.9360 C.ar  1     604     0.0000
     12 O4         36.6120    3.4100  -63.2990 O.3   1     604     0.0000
     13 C5         35.7180    2.4380  -61.3250 C.3   1     604     0.0000
     14 C5A        33.6680    5.9620  -57.1000 C.ar  1     604     0.0000
     15 O5         34.6550    1.6550  -60.8130 O.3   1     604     0.0000
     16 C6         35.7770    3.7080  -60.4950 C.3   1     604     0.0000
     17 C6A        32.7650   -2.4820  -64.5170 C.ar  1     604     0.0000
     18 C7         34.2580    7.1740  -56.6870 C.ar  1     604     0.0000
     19 C8         33.8240   -4.2540  -65.6940 C.ar  1     604     0.0000
     20 C9         34.7710    7.8040  -57.7890 C.ar  1     604     0.0000
     21 C10        33.8570    5.9180  -58.4620 C.ar  1     604     0.0000
     22 C11        32.8240   -1.2630  -63.7010 C.2   1     604     0.0000
     23 C12        34.2960    7.6700  -55.2570 C.2   1     604     0.0000
     24 C18        35.4850    9.0730  -57.9450 C.3   1     604     0.0000
     25 N21        34.6110    4.5690  -60.7660 N.pl3 1     604     0.0000
     26 O22        34.7110    8.8530  -55.0920 O.co2 1     604     0.0000
     27 O23        31.8220   -0.8920  -63.1150 O.2   1     604     0.0000
     28 O24        33.8950    6.8060  -54.4280 O.co2 1     604     0.0000
     29 O25        33.1760    3.5180  -58.7810 O.2   1     604     0.0000
     30 O26        32.1930    5.3290  -60.1640 O.2   1     604     0.0000
     31 O27        34.5270    7.0310  -58.8860 O.2   1     604     0.0000
     32 S32        33.3610    4.7070  -59.5870 S.o2  1     604     0.0000
     33 BR         35.4060   -5.1490  -66.2810 Br    1     604     0.0000
@<TRIPOS>BOND
     1     1     3    1 
     2     1    15    1 
     3     1     4    1 
     4     2     5    ar
     5     2     8    ar
     6     4     6    1 
     7     4     7    1 
     8     5    17    ar
     9     6    22    am
    10     7     9    1 
    11     7    10    1 
    12     8    19    ar
    13    10    12    1 
    14    10    13    1 
    15    11    17    ar
    16    11    19    ar
    17    13    15    1 
    18    13    16    1 
    19    14    18    ar
    20    14    21    ar
    21    16    25    1 
    22    17    22    1 
    23    18    20    ar
    24    18    23    1 
    25    19    33    1 
    26    20    24    1 
    27    20    31    ar
    28    21    31    ar
    29    21    32    1 
    30    22    27    2 
    31    23    26    2 
    32    23    28    2 
    33    25    32    1 
    34    29    32    2 
    35    30    32    2 
@<TRIPOS>MOLECULE
Molecule Ligandos_final.mol2
     9     0
SMALL
NO_CHARGES
@<TRIPOS>ATOM
      1 ACC        34.6550    1.6550  -60.8130 HB    0     HB      0.0000
      2 ACC        34.7110    8.8530  -55.0920 HB    1     HB      0.0000
      3 ACC        33.8950    6.8060  -54.4280 HB    2     HB      0.0000
      4 ACC        31.8220   -0.8920  -63.1150 HB    3     HB      0.0000
      5 ACC        33.1760    3.5180  -58.7810 HB    4     HB      0.0000
      6 ACC        32.1930    5.3290  -60.1640 HB    5     HB      0.0000
      7 ANI        34.2960    7.6700  -55.2570 CHG   6     CHG     0.0000
      8 AR         32.6817   -3.6287  -65.2760 AR    7     AR      0.0000
      9 AR         34.2162    6.7778  -57.7848 AR    8     AR      0.0000
@<TRIPOS>BOND
@<TRIPOS>MOLECULE
3_var_409.mol2
    42    44
SMALL
NO_CHARGES
@<TRIPOS>ATOM
      1 H1         32.7184    2.5666  -59.4589 H     1     UNK     0.0000
      2 O1         33.5317    3.0260  -59.1229 O.3   1     UNK     0.0000
      3 C1         34.2247    3.5065  -60.2491 C.3   1     UNK     0.0000
      4 H2         33.5000    3.9040  -60.9988 H     1     UNK     0.0000
      5 C2         35.0479    2.3840  -60.8944 C.3   1     UNK     0.0000
      6 H3         35.4766    2.7911  -61.8419 H     1     UNK     0.0000
      7 O2         34.2436    1.2609  -61.1864 O.3   1     UNK     0.0000
      8 C3         35.0090    0.1928  -61.7519 C.3   1     UNK     0.0000
      9 H4         34.8541   -0.7126  -61.1222 H     1     UNK     0.0000
     10 C4         34.2437   -0.0896  -63.2322 C.3   1     UNK     0.0000
     11 H5         33.3966   -0.4450  -63.0574 H     1     UNK     0.0000
     12 H6         35.0148   -1.0066  -63.5622 H     1     UNK     0.0000
     13 C5         34.0483   -1.2953  -64.0245 C.ar  1     UNK     0.0000
     14 C6         35.1918   -1.8887  -64.5864 C.ar  1     UNK     0.0000
     15 H7         36.1553   -1.3997  -64.5135 H     1     UNK     0.0000
     16 C7         35.0982   -3.1238  -65.2347 C.ar  1     UNK     0.0000
     17 H8         35.9822   -3.5770  -65.6644 H     1     UNK     0.0000
     18 C8         33.8659   -3.7768  -65.3234 C.ar  1     UNK     0.0000
     19 H9         33.7955   -4.7337  -65.8240 H     1     UNK     0.0000
     20 C9         32.7253   -3.1966  -64.7616 C.ar  1     UNK     0.0000
     21 H10        31.7725   -3.7061  -64.8260 H     1     UNK     0.0000
     22 C10        32.8147   -1.9622  -64.1108 C.ar  1     UNK     0.0000
     23 H11        31.9254   -1.5296  -63.6694 H     1     UNK     0.0000
     24 O3         36.4073    0.4571  -61.8484 O.3   1     UNK     0.0000
     25 C11        36.9319    0.7898  -60.5769 C.3   1     UNK     0.0000
     26 H12        36.8939   -0.0986  -59.9064 H     1     UNK     0.0000
     27 H13        38.0054    1.0462  -60.7021 H     1     UNK     0.0000
     28 C12        36.1796    1.9751  -59.9457 C.3   1     UNK     0.0000
     29 H14        35.7573    1.6175  -58.9762 H     1     UNK     0.0000
     30 O4         37.0469    3.0746  -59.7364 O.3   1     UNK     0.0000
     31 C13        36.3746    4.1022  -59.0160 C.3   1     UNK     0.0000
     32 H15        35.9760    3.7099  -58.0460 H     1     UNK     0.0000
     33 O5         37.2831    5.1624  -58.7854 O.3   1     UNK     0.0000
     34 C14        38.1703    4.8249  -57.7414 C.3   1     UNK     0.0000
     35 H16        38.9172    5.6381  -57.6362 H     1     UNK     0.0000
     36 H17        38.7251    3.8859  -57.9618 H     1     UNK     0.0000
     37 H18        37.6297    4.7387  -56.7731 H     1     UNK     0.0000
     38 C15        35.1739    4.6504  -59.8358 C.3   1     UNK     0.0000
     39 H19        34.7395    3.6436  -59.6380 H     1     UNK     0.0000
     40 N1         34.4251    5.6457  -59.0705 N.pl3 1     UNK     0.0000
     41 N2         33.1969    5.7128  -59.1316 N.1   1     UNK     0.0000
     42 N3         31.9702    5.7803  -59.1921 N.1   1     UNK     0.0000
@<TRIPOS>BOND
     1     1     2    1 
     2     2     3    1 
     3     3     4    1 
     4     3     5    1 
     5     5     6    1 
     6     5     7    1 
     7     7     8    1 
     8     8     9    1 
     9     8    10    1 
    10    10    11    1 
    11    10    12    1 
    12    10    13    1 
    13    13    14    ar
    14    14    15    1 
    15    14    16    ar
    16    16    17    1 
    17    16    18    ar
    18    18    19    1 
    19    18    20    ar
    20    20    21    1 
    21    20    22    ar
    22    22    23    1 
    23     8    24    1 
    24    24    25    1 
    25    25    26    1 
    26    25    27    1 
    27    25    28    1 
    28    28    29    1 
    29    28    30    1 
    30    30    31    1 
    31    31    32    1 
    32    31    33    1 
    33    33    34    1 
    34    34    35    1 
    35    34    36    1 
    36    34    37    1 
    37    31    38    1 
    38    38    39    1 
    39    38    40    1 
    40    40    41    2 
    41    41    42    3 
    42    38     3    1 
    43    28     5    1 
    44    22    13    ar
@<TRIPOS>MOLECULE
Molecule 3_var_409.mol2
    10     0
SMALL
NO_CHARGES
@<TRIPOS>ATOM
      1 DON        33.5317    3.0260  -59.1229 HB    0     HB      0.0000
      2 ACC        33.5317    3.0260  -59.1229 HB    1     HB      0.0000
      3 ACC        34.2436    1.2609  -61.1864 HB    2     HB      0.0000
      4 ACC        36.4073    0.4571  -61.8484 HB    3     HB      0.0000
      5 ACC        37.0469    3.0746  -59.7364 HB    4     HB      0.0000
      6 ACC        37.2831    5.1624  -58.7854 HB    5     HB      0.0000
      7 ACC        31.9702    5.7803  -59.1921 HB    6     HB      0.0000
      8 AR         33.9574   -2.5406  -64.6736 AR    7     AR      0.0000
      9 HYD        34.2243   -0.7822  -63.5300 HYD   8     HYD     0.0000
     10 HYD        38.1703    4.8249  -57.7414 HYD   9     HYD     0.0000
@<TRIPOS>BOND
