@<TRIPOS>MOLECULE
Molecule Ligandos_final.mol2
     3     0
SMALL
NO_CHARGES
@<TRIPOS>ATOM
      5 ACC        33.1760    3.5180  -58.7810 HB    4     HB      0.0000
      6 ACC        32.1930    5.3290  -60.1640 HB    5     HB      0.0000
      8 AR         32.6817   -3.6287  -65.2760 AR    7     AR      0.0000
@<TRIPOS>BOND
@<TRIPOS>MOLECULE
Ligandos_final.mol2
    33    35
SMALL
NO_CHARGES
@<TRIPOS>ATOM
      1 C1         34.4600    0.4030  -61.4630 C.3   1     604     0.0000
      2 C1A        31.4480   -4.1500  -65.6180 C.ar  1     604     0.0000
      3 O1         35.5110   -0.4990  -61.1620 O.3   1     604     0.0000
      4 C2         34.2620    0.5920  -62.9480 C.3   1     604     0.0000
      5 C2A        31.5420   -3.0050  -64.8510 C.ar  1     604     0.0000
      6 N2         34.0600   -0.6570  -63.6450 N.am  1     604     0.0000
      7 C3         35.4470    1.3580  -63.4970 C.3   1     604     0.0000
      8 C3A        32.5930   -4.7780  -66.0400 C.ar  1     604     0.0000
      9 O3         35.3190    1.5200  -64.9050 O.3   1     604     0.0000
     10 C4         35.4990    2.6980  -62.7960 C.3   1     604     0.0000
     11 C4A        33.9180   -3.1030  -64.9360 C.ar  1     604     0.0000
     12 O4         36.6120    3.4100  -63.2990 O.3   1     604     0.0000
     13 C5         35.7180    2.4380  -61.3250 C.3   1     604     0.0000
     14 C5A        33.6680    5.9620  -57.1000 C.ar  1     604     0.0000
     15 O5         34.6550    1.6550  -60.8130 O.3   1     604     0.0000
     16 C6         35.7770    3.7080  -60.4950 C.3   1     604     0.0000
     17 C6A        32.7650   -2.4820  -64.5170 C.ar  1     604     0.0000
     18 C7         34.2580    7.1740  -56.6870 C.ar  1     604     0.0000
     19 C8         33.8240   -4.2540  -65.6940 C.ar  1     604     0.0000
     20 C9         34.7710    7.8040  -57.7890 C.ar  1     604     0.0000
     21 C10        33.8570    5.9180  -58.4620 C.ar  1     604     0.0000
     22 C11        32.8240   -1.2630  -63.7010 C.2   1     604     0.0000
     23 C12        34.2960    7.6700  -55.2570 C.2   1     604     0.0000
     24 C18        35.4850    9.0730  -57.9450 C.3   1     604     0.0000
     25 N21        34.6110    4.5690  -60.7660 N.pl3 1     604     0.0000
     26 O22        34.7110    8.8530  -55.0920 O.co2 1     604     0.0000
     27 O23        31.8220   -0.8920  -63.1150 O.2   1     604     0.0000
     28 O24        33.8950    6.8060  -54.4280 O.co2 1     604     0.0000
     29 O25        33.1760    3.5180  -58.7810 O.2   1     604     0.0000
     30 O26        32.1930    5.3290  -60.1640 O.2   1     604     0.0000
     31 O27        34.5270    7.0310  -58.8860 O.2   1     604     0.0000
     32 S32        33.3610    4.7070  -59.5870 S.o2  1     604     0.0000
     33 BR         35.4060   -5.1490  -66.2810 Br    1     604     0.0000
@<TRIPOS>BOND
     1     1     3    1 
     2     1    15    1 
     3     1     4    1 
     4     2     5    ar
     5     2     8    ar
     6     4     6    1 
     7     4     7    1 
     8     5    17    ar
     9     6    22    am
    10     7     9    1 
    11     7    10    1 
    12     8    19    ar
    13    10    12    1 
    14    10    13    1 
    15    11    17    ar
    16    11    19    ar
    17    13    15    1 
    18    13    16    1 
    19    14    18    ar
    20    14    21    ar
    21    16    25    1 
    22    17    22    1 
    23    18    20    ar
    24    18    23    1 
    25    19    33    1 
    26    20    24    1 
    27    20    31    ar
    28    21    31    ar
    29    21    32    1 
    30    22    27    2 
    31    23    26    2 
    32    23    28    2 
    33    25    32    1 
    34    29    32    2 
    35    30    32    2 
@<TRIPOS>MOLECULE
Molecule Ligandos_final.mol2
     9     0
SMALL
NO_CHARGES
@<TRIPOS>ATOM
      1 ACC        34.6550    1.6550  -60.8130 HB    0     HB      0.0000
      2 ACC        34.7110    8.8530  -55.0920 HB    1     HB      0.0000
      3 ACC        33.8950    6.8060  -54.4280 HB    2     HB      0.0000
      4 ACC        31.8220   -0.8920  -63.1150 HB    3     HB      0.0000
      5 ACC        33.1760    3.5180  -58.7810 HB    4     HB      0.0000
      6 ACC        32.1930    5.3290  -60.1640 HB    5     HB      0.0000
      7 ANI        34.2960    7.6700  -55.2570 CHG   6     CHG     0.0000
      8 AR         32.6817   -3.6287  -65.2760 AR    7     AR      0.0000
      9 AR         34.2162    6.7778  -57.7848 AR    8     AR      0.0000
@<TRIPOS>BOND
@<TRIPOS>MOLECULE
3_var_340.mol2
    41    43
SMALL
NO_CHARGES
@<TRIPOS>ATOM
      1 H1         32.9969    4.2095  -57.2487 H     1     UNK     0.0000
      2 O1         33.0283    4.1762  -58.2606 O.3   1     UNK     0.0000
      3 C1         32.0832    4.8487  -59.0349 C.2   1     UNK     0.0000
      4 N1         32.1204    4.7815  -60.3321 N.2   1     UNK     0.0000
      5 C2         33.1365    4.0512  -61.0934 C.3   1     UNK     0.0000
      6 H2         33.5001    4.6973  -61.9252 H     1     UNK     0.0000
      7 C3         34.3530    3.7505  -60.1849 C.3   1     UNK     0.0000
      8 H3         34.8171    4.7299  -59.9288 H     1     UNK     0.0000
      9 O2         33.9470    3.1298  -58.9899 O.3   1     UNK     0.0000
     10 H4         34.7549    3.0726  -58.4160 H     1     UNK     0.0000
     11 O3         35.3377    2.9722  -60.8571 O.3   1     UNK     0.0000
     12 C4         34.7975    1.7307  -61.2755 C.3   1     UNK     0.0000
     13 H5         34.4027    1.1536  -60.4068 H     1     UNK     0.0000
     14 C5         35.8767    0.8715  -61.9287 C.3   1     UNK     0.0000
     15 H6         36.3976    1.4308  -62.7395 H     1     UNK     0.0000
     16 H7         36.6394    0.6082  -61.1656 H     1     UNK     0.0000
     17 O4         35.3084   -0.3233  -62.4298 O.3   1     UNK     0.0000
     18 C6         34.3021   -0.0218  -63.3868 C.3   1     UNK     0.0000
     19 H8         33.1469    0.2896  -62.8880 H     1     UNK     0.0000
     20 C7         34.0513   -1.3207  -63.9702 C.ar  1     UNK     0.0000
     21 C8         35.1969   -1.9184  -64.5251 C.ar  1     UNK     0.0000
     22 H9         36.1618   -1.4331  -64.4423 H     1     UNK     0.0000
     23 C9         35.1022   -3.1453  -65.1890 C.ar  1     UNK     0.0000
     24 H10        35.9879   -3.6000  -65.6135 H     1     UNK     0.0000
     25 C10        33.8656   -3.7852  -65.3050 C.ar  1     UNK     0.0000
     26 H11        33.7940   -4.7350  -65.8192 H     1     UNK     0.0000
     27 C11        32.7213   -3.1992  -64.7576 C.ar  1     UNK     0.0000
     28 H12        31.7640   -3.6961  -64.8485 H     1     UNK     0.0000
     29 C12        32.8107   -1.9722  -64.0926 C.ar  1     UNK     0.0000
     30 H13        31.9130   -1.5336  -63.6751 H     1     UNK     0.0000
     31 O5         33.2282    0.6945  -62.7918 O.3   1     UNK     0.0000
     32 C13        33.6971    1.9434  -62.3236 C.3   1     UNK     0.0000
     33 H14        34.0993    2.5423  -63.1766 H     1     UNK     0.0000
     34 C14        32.5545    2.7508  -61.6990 C.3   1     UNK     0.0000
     35 H15        31.8338    3.0074  -62.5106 H     1     UNK     0.0000
     36 O6         31.9100    1.9824  -60.7124 O.3   1     UNK     0.0000
     37 H16        30.9899    2.3435  -60.6191 H     1     UNK     0.0000
     38 C15        30.9922    5.6237  -58.3694 C.3   1     UNK     0.0000
     39 H17        30.1945    4.9269  -58.0383 H     1     UNK     0.0000
     40 H18        31.3969    6.1610  -57.4863 H     1     UNK     0.0000
     41 H19        30.5577    6.3694  -59.0691 H     1     UNK     0.0000
@<TRIPOS>BOND
     1     1     2    1 
     2     2     3    1 
     3     3     4    2 
     4     4     5    1 
     5     5     6    1 
     6     5     7    1 
     7     7     8    1 
     8     7     9    1 
     9     9    10    1 
    10     7    11    1 
    11    11    12    1 
    12    12    13    1 
    13    12    14    1 
    14    14    15    1 
    15    14    16    1 
    16    14    17    1 
    17    17    18    1 
    18    18    19    1 
    19    18    20    1 
    20    20    21    ar
    21    21    22    1 
    22    21    23    ar
    23    23    24    1 
    24    23    25    ar
    25    25    26    1 
    26    25    27    ar
    27    27    28    1 
    28    27    29    ar
    29    29    30    1 
    30    18    31    1 
    31    31    32    1 
    32    32    33    1 
    33    32    34    1 
    34    34    35    1 
    35    34    36    1 
    36    36    37    1 
    37     3    38    1 
    38    38    39    1 
    39    38    40    1 
    40    38    41    1 
    41    34     5    1 
    42    32    12    1 
    43    29    20    ar
@<TRIPOS>MOLECULE
Molecule 3_var_340.mol2
    12     0
SMALL
NO_CHARGES
@<TRIPOS>ATOM
      1 DON        33.0283    4.1762  -58.2606 HB    0     HB      0.0000
      2 DON        33.9470    3.1298  -58.9899 HB    1     HB      0.0000
      3 DON        31.9100    1.9824  -60.7124 HB    2     HB      0.0000
      4 ACC        33.0283    4.1762  -58.2606 HB    3     HB      0.0000
      5 ACC        32.1204    4.7815  -60.3321 HB    4     HB      0.0000
      6 ACC        33.9470    3.1298  -58.9899 HB    5     HB      0.0000
      7 ACC        35.3377    2.9722  -60.8571 HB    6     HB      0.0000
      8 ACC        35.3084   -0.3233  -62.4298 HB    7     HB      0.0000
      9 ACC        33.2282    0.6945  -62.7918 HB    8     HB      0.0000
     10 ACC        31.9100    1.9824  -60.7124 HB    9     HB      0.0000
     11 AR         33.9580   -2.5568  -64.6399 AR    10    AR      0.0000
     12 HYD        30.9922    5.6237  -58.3694 HYD   11    HYD     0.0000
@<TRIPOS>BOND
