@<TRIPOS>MOLECULE
Molecule Ligandos_final.mol2
     2     0
SMALL
NO_CHARGES
@<TRIPOS>ATOM
      5 ACC        33.1760    3.5180  -58.7810 HB    4     HB      0.0000
      8 AR         32.6817   -3.6287  -65.2760 AR    7     AR      0.0000
@<TRIPOS>BOND
@<TRIPOS>MOLECULE
Ligandos_final.mol2
    33    35
SMALL
NO_CHARGES
@<TRIPOS>ATOM
      1 C1         34.4600    0.4030  -61.4630 C.3   1     604     0.0000
      2 C1A        31.4480   -4.1500  -65.6180 C.ar  1     604     0.0000
      3 O1         35.5110   -0.4990  -61.1620 O.3   1     604     0.0000
      4 C2         34.2620    0.5920  -62.9480 C.3   1     604     0.0000
      5 C2A        31.5420   -3.0050  -64.8510 C.ar  1     604     0.0000
      6 N2         34.0600   -0.6570  -63.6450 N.am  1     604     0.0000
      7 C3         35.4470    1.3580  -63.4970 C.3   1     604     0.0000
      8 C3A        32.5930   -4.7780  -66.0400 C.ar  1     604     0.0000
      9 O3         35.3190    1.5200  -64.9050 O.3   1     604     0.0000
     10 C4         35.4990    2.6980  -62.7960 C.3   1     604     0.0000
     11 C4A        33.9180   -3.1030  -64.9360 C.ar  1     604     0.0000
     12 O4         36.6120    3.4100  -63.2990 O.3   1     604     0.0000
     13 C5         35.7180    2.4380  -61.3250 C.3   1     604     0.0000
     14 C5A        33.6680    5.9620  -57.1000 C.ar  1     604     0.0000
     15 O5         34.6550    1.6550  -60.8130 O.3   1     604     0.0000
     16 C6         35.7770    3.7080  -60.4950 C.3   1     604     0.0000
     17 C6A        32.7650   -2.4820  -64.5170 C.ar  1     604     0.0000
     18 C7         34.2580    7.1740  -56.6870 C.ar  1     604     0.0000
     19 C8         33.8240   -4.2540  -65.6940 C.ar  1     604     0.0000
     20 C9         34.7710    7.8040  -57.7890 C.ar  1     604     0.0000
     21 C10        33.8570    5.9180  -58.4620 C.ar  1     604     0.0000
     22 C11        32.8240   -1.2630  -63.7010 C.2   1     604     0.0000
     23 C12        34.2960    7.6700  -55.2570 C.2   1     604     0.0000
     24 C18        35.4850    9.0730  -57.9450 C.3   1     604     0.0000
     25 N21        34.6110    4.5690  -60.7660 N.pl3 1     604     0.0000
     26 O22        34.7110    8.8530  -55.0920 O.co2 1     604     0.0000
     27 O23        31.8220   -0.8920  -63.1150 O.2   1     604     0.0000
     28 O24        33.8950    6.8060  -54.4280 O.co2 1     604     0.0000
     29 O25        33.1760    3.5180  -58.7810 O.2   1     604     0.0000
     30 O26        32.1930    5.3290  -60.1640 O.2   1     604     0.0000
     31 O27        34.5270    7.0310  -58.8860 O.2   1     604     0.0000
     32 S32        33.3610    4.7070  -59.5870 S.o2  1     604     0.0000
     33 BR         35.4060   -5.1490  -66.2810 Br    1     604     0.0000
@<TRIPOS>BOND
     1     1     3    1 
     2     1    15    1 
     3     1     4    1 
     4     2     5    ar
     5     2     8    ar
     6     4     6    1 
     7     4     7    1 
     8     5    17    ar
     9     6    22    am
    10     7     9    1 
    11     7    10    1 
    12     8    19    ar
    13    10    12    1 
    14    10    13    1 
    15    11    17    ar
    16    11    19    ar
    17    13    15    1 
    18    13    16    1 
    19    14    18    ar
    20    14    21    ar
    21    16    25    1 
    22    17    22    1 
    23    18    20    ar
    24    18    23    1 
    25    19    33    1 
    26    20    24    1 
    27    20    31    ar
    28    21    31    ar
    29    21    32    1 
    30    22    27    2 
    31    23    26    2 
    32    23    28    2 
    33    25    32    1 
    34    29    32    2 
    35    30    32    2 
@<TRIPOS>MOLECULE
Molecule Ligandos_final.mol2
     9     0
SMALL
NO_CHARGES
@<TRIPOS>ATOM
      1 ACC        34.6550    1.6550  -60.8130 HB    0     HB      0.0000
      2 ACC        34.7110    8.8530  -55.0920 HB    1     HB      0.0000
      3 ACC        33.8950    6.8060  -54.4280 HB    2     HB      0.0000
      4 ACC        31.8220   -0.8920  -63.1150 HB    3     HB      0.0000
      5 ACC        33.1760    3.5180  -58.7810 HB    4     HB      0.0000
      6 ACC        32.1930    5.3290  -60.1640 HB    5     HB      0.0000
      7 ANI        34.2960    7.6700  -55.2570 CHG   6     CHG     0.0000
      8 AR         32.6817   -3.6287  -65.2760 AR    7     AR      0.0000
      9 AR         34.2162    6.7778  -57.7848 AR    8     AR      0.0000
@<TRIPOS>BOND
@<TRIPOS>MOLECULE
3_var_436.mol2
    44    46
SMALL
NO_CHARGES
@<TRIPOS>ATOM
      1 H1         35.3274    5.4353  -60.1306 H     1     UNK     0.0000
      2 O1         35.3219    4.4438  -60.3384 O.3   1     UNK     0.0000
      3 C1         36.5113    3.7283  -60.4733 C.2   1     UNK     0.0000
      4 N1         36.4935    2.4609  -60.7588 N.2   1     UNK     0.0000
      5 C2         35.2729    1.6695  -60.9319 C.3   1     UNK     0.0000
      6 H2         35.1142    1.0331  -60.0309 H     1     UNK     0.0000
      7 C3         35.3844    0.7620  -62.1771 C.3   1     UNK     0.0000
      8 H3         36.1405   -0.0320  -61.9736 H     1     UNK     0.0000
      9 O2         35.7812    1.5256  -63.2903 O.3   1     UNK     0.0000
     10 H4         36.1877    0.8970  -63.9425 H     1     UNK     0.0000
     11 C4         34.0261    0.0933  -62.4409 C.3   1     UNK     0.0000
     12 H5         33.8248   -0.6042  -61.5939 H     1     UNK     0.0000
     13 O3         34.0671   -0.6529  -63.6443 O.3   1     UNK     0.0000
     14 C5         32.7684   -1.0360  -64.0969 C.3   1     UNK     0.0000
     15 H6         33.9181   -1.0059  -63.4553 H     1     UNK     0.0000
     16 C6         32.7677   -2.4796  -64.5035 C.ar  1     UNK     0.0000
     17 C7         33.9357   -3.1259  -64.9459 C.ar  1     UNK     0.0000
     18 H7         34.9130   -2.7337  -64.6934 H     1     UNK     0.0000
     19 C8         33.8482   -4.2869  -65.7206 C.ar  1     UNK     0.0000
     20 H8         34.7503   -4.7806  -66.0581 H     1     UNK     0.0000
     21 C9         32.5980   -4.8100  -66.0614 C.ar  1     UNK     0.0000
     22 H9         32.5327   -5.7087  -66.6610 H     1     UNK     0.0000
     23 C10        31.4322   -4.1726  -65.6290 C.ar  1     UNK     0.0000
     24 H10        30.4644   -4.5777  -65.8946 H     1     UNK     0.0000
     25 C11        31.5143   -3.0111  -64.8549 C.ar  1     UNK     0.0000
     26 H11        30.6029   -2.5256  -64.5283 H     1     UNK     0.0000
     27 O4         31.7608   -0.9015  -63.1026 O.3   1     UNK     0.0000
     28 C12        31.5840    0.4638  -62.7698 C.3   1     UNK     0.0000
     29 H12        30.9376    0.5116  -61.8676 H     1     UNK     0.0000
     30 H13        31.0346    0.9849  -63.5857 H     1     UNK     0.0000
     31 C13        32.9247    1.1667  -62.4889 C.3   1     UNK     0.0000
     32 H14        33.1179    1.8689  -63.3346 H     1     UNK     0.0000
     33 O5         32.8677    1.8674  -61.2587 O.3   1     UNK     0.0000
     34 C14        34.0596    2.6170  -61.0627 C.3   1     UNK     0.0000
     35 H15        34.2458    3.3031  -61.9278 H     1     UNK     0.0000
     36 O6         33.9461    3.3581  -59.8623 O.3   1     UNK     0.0000
     37 C15        33.0999    4.4707  -60.0565 C.3   1     UNK     0.0000
     38 H16        33.5540    5.1966  -60.7664 H     1     UNK     0.0000
     39 H17        32.9703    4.9894  -59.0848 H     1     UNK     0.0000
     40 H18        32.0907    4.1620  -60.4091 H     1     UNK     0.0000
     41 C16        37.8219    4.4316  -60.3251 C.3   1     UNK     0.0000
     42 H19        37.7802    5.1232  -59.4578 H     1     UNK     0.0000
     43 H20        38.6433    3.7022  -60.1583 H     1     UNK     0.0000
     44 H21        38.0334    5.0138  -61.2457 H     1     UNK     0.0000
@<TRIPOS>BOND
     1     1     2    1 
     2     2     3    1 
     3     3     4    2 
     4     4     5    1 
     5     5     6    1 
     6     5     7    1 
     7     7     8    1 
     8     7     9    1 
     9     9    10    1 
    10     7    11    1 
    11    11    12    1 
    12    11    13    1 
    13    13    14    1 
    14    14    15    1 
    15    14    16    1 
    16    16    17    ar
    17    17    18    1 
    18    17    19    ar
    19    19    20    1 
    20    19    21    ar
    21    21    22    1 
    22    21    23    ar
    23    23    24    1 
    24    23    25    ar
    25    25    26    1 
    26    14    27    1 
    27    27    28    1 
    28    28    29    1 
    29    28    30    1 
    30    28    31    1 
    31    31    32    1 
    32    31    33    1 
    33    33    34    1 
    34    34    35    1 
    35    34    36    1 
    36    36    37    1 
    37    37    38    1 
    38    37    39    1 
    39    37    40    1 
    40     3    41    1 
    41    41    42    1 
    42    41    43    1 
    43    41    44    1 
    44    34     5    1 
    45    31    11    1 
    46    25    16    ar
@<TRIPOS>MOLECULE
Molecule 3_var_436.mol2
    12     0
SMALL
NO_CHARGES
@<TRIPOS>ATOM
      1 DON        35.3219    4.4438  -60.3384 HB    0     HB      0.0000
      2 DON        35.7812    1.5256  -63.2903 HB    1     HB      0.0000
      3 ACC        35.3219    4.4438  -60.3384 HB    2     HB      0.0000
      4 ACC        36.4935    2.4609  -60.7588 HB    3     HB      0.0000
      5 ACC        35.7812    1.5256  -63.2903 HB    4     HB      0.0000
      6 ACC        34.0671   -0.6529  -63.6443 HB    5     HB      0.0000
      7 ACC        31.7608   -0.9015  -63.1026 HB    6     HB      0.0000
      8 ACC        32.8677    1.8674  -61.2587 HB    7     HB      0.0000
      9 ACC        33.9461    3.3581  -59.8623 HB    8     HB      0.0000
     10 AR         32.6827   -3.6477  -65.2859 AR    9     AR      0.0000
     11 HYD        33.0999    4.4707  -60.0565 HYD   10    HYD     0.0000
     12 HYD        37.8219    4.4316  -60.3251 HYD   11    HYD     0.0000
@<TRIPOS>BOND
