@<TRIPOS>MOLECULE
Molecule Ligandos_final.mol2
     3     0
SMALL
NO_CHARGES
@<TRIPOS>ATOM
      5 ACC        33.1760    3.5180  -58.7810 HB    4     HB      0.0000
      6 ACC        32.1930    5.3290  -60.1640 HB    5     HB      0.0000
      8 AR         32.6817   -3.6287  -65.2760 AR    7     AR      0.0000
@<TRIPOS>BOND
@<TRIPOS>MOLECULE
Ligandos_final.mol2
    33    35
SMALL
NO_CHARGES
@<TRIPOS>ATOM
      1 C1         34.4600    0.4030  -61.4630 C.3   1     604     0.0000
      2 C1A        31.4480   -4.1500  -65.6180 C.ar  1     604     0.0000
      3 O1         35.5110   -0.4990  -61.1620 O.3   1     604     0.0000
      4 C2         34.2620    0.5920  -62.9480 C.3   1     604     0.0000
      5 C2A        31.5420   -3.0050  -64.8510 C.ar  1     604     0.0000
      6 N2         34.0600   -0.6570  -63.6450 N.am  1     604     0.0000
      7 C3         35.4470    1.3580  -63.4970 C.3   1     604     0.0000
      8 C3A        32.5930   -4.7780  -66.0400 C.ar  1     604     0.0000
      9 O3         35.3190    1.5200  -64.9050 O.3   1     604     0.0000
     10 C4         35.4990    2.6980  -62.7960 C.3   1     604     0.0000
     11 C4A        33.9180   -3.1030  -64.9360 C.ar  1     604     0.0000
     12 O4         36.6120    3.4100  -63.2990 O.3   1     604     0.0000
     13 C5         35.7180    2.4380  -61.3250 C.3   1     604     0.0000
     14 C5A        33.6680    5.9620  -57.1000 C.ar  1     604     0.0000
     15 O5         34.6550    1.6550  -60.8130 O.3   1     604     0.0000
     16 C6         35.7770    3.7080  -60.4950 C.3   1     604     0.0000
     17 C6A        32.7650   -2.4820  -64.5170 C.ar  1     604     0.0000
     18 C7         34.2580    7.1740  -56.6870 C.ar  1     604     0.0000
     19 C8         33.8240   -4.2540  -65.6940 C.ar  1     604     0.0000
     20 C9         34.7710    7.8040  -57.7890 C.ar  1     604     0.0000
     21 C10        33.8570    5.9180  -58.4620 C.ar  1     604     0.0000
     22 C11        32.8240   -1.2630  -63.7010 C.2   1     604     0.0000
     23 C12        34.2960    7.6700  -55.2570 C.2   1     604     0.0000
     24 C18        35.4850    9.0730  -57.9450 C.3   1     604     0.0000
     25 N21        34.6110    4.5690  -60.7660 N.pl3 1     604     0.0000
     26 O22        34.7110    8.8530  -55.0920 O.co2 1     604     0.0000
     27 O23        31.8220   -0.8920  -63.1150 O.2   1     604     0.0000
     28 O24        33.8950    6.8060  -54.4280 O.co2 1     604     0.0000
     29 O25        33.1760    3.5180  -58.7810 O.2   1     604     0.0000
     30 O26        32.1930    5.3290  -60.1640 O.2   1     604     0.0000
     31 O27        34.5270    7.0310  -58.8860 O.2   1     604     0.0000
     32 S32        33.3610    4.7070  -59.5870 S.o2  1     604     0.0000
     33 BR         35.4060   -5.1490  -66.2810 Br    1     604     0.0000
@<TRIPOS>BOND
     1     1     3    1 
     2     1    15    1 
     3     1     4    1 
     4     2     5    ar
     5     2     8    ar
     6     4     6    1 
     7     4     7    1 
     8     5    17    ar
     9     6    22    am
    10     7     9    1 
    11     7    10    1 
    12     8    19    ar
    13    10    12    1 
    14    10    13    1 
    15    11    17    ar
    16    11    19    ar
    17    13    15    1 
    18    13    16    1 
    19    14    18    ar
    20    14    21    ar
    21    16    25    1 
    22    17    22    1 
    23    18    20    ar
    24    18    23    1 
    25    19    33    1 
    26    20    24    1 
    27    20    31    ar
    28    21    31    ar
    29    21    32    1 
    30    22    27    2 
    31    23    26    2 
    32    23    28    2 
    33    25    32    1 
    34    29    32    2 
    35    30    32    2 
@<TRIPOS>MOLECULE
Molecule Ligandos_final.mol2
     9     0
SMALL
NO_CHARGES
@<TRIPOS>ATOM
      1 ACC        34.6550    1.6550  -60.8130 HB    0     HB      0.0000
      2 ACC        34.7110    8.8530  -55.0920 HB    1     HB      0.0000
      3 ACC        33.8950    6.8060  -54.4280 HB    2     HB      0.0000
      4 ACC        31.8220   -0.8920  -63.1150 HB    3     HB      0.0000
      5 ACC        33.1760    3.5180  -58.7810 HB    4     HB      0.0000
      6 ACC        32.1930    5.3290  -60.1640 HB    5     HB      0.0000
      7 ANI        34.2960    7.6700  -55.2570 CHG   6     CHG     0.0000
      8 AR         32.6817   -3.6287  -65.2760 AR    7     AR      0.0000
      9 AR         34.2162    6.7778  -57.7848 AR    8     AR      0.0000
@<TRIPOS>BOND
@<TRIPOS>MOLECULE
3_var_18.mol2
    58    62
SMALL
NO_CHARGES
@<TRIPOS>ATOM
      1 C1         33.3360   -1.2829  -62.0699 C.3   1     UNK     0.0000
      2 N1         33.8684   -0.6610  -63.2847 N.ar  1     UNK     0.0000
      3 C2         34.3378    0.6037  -63.4197 C.ar  1     UNK     0.0000
      4 C3         34.3547    1.3844  -62.6401 C.ar  1     UNK     0.0000
      5 C4         34.6731    1.5223  -61.3063 C.ar  1     UNK     0.0000
      6 N2         34.3331    2.7776  -60.9669 N.ar  1     UNK     0.0000
      7 C5         34.4674    3.2623  -59.5812 C.3   1     UNK     0.0000
      8 C6         35.3553    4.5285  -59.6081 C.3   1     UNK     0.0000
      9 O1         35.1423    5.2908  -60.7728 O.3   1     UNK     0.0000
     10 O2         35.1466    5.3024  -58.4392 O.3   1     UNK     0.0000
     11 C7         33.8752    5.9412  -58.4463 C.3   1     UNK     0.0000
     12 C8         33.6337    6.5557  -57.0589 C.3   1     UNK     0.0000
     13 O3         34.6801    7.4243  -56.7159 O.3   1     UNK     0.0000
     14 C9         32.6984    4.9874  -58.8431 C.3   1     UNK     0.0000
     15 O4         32.2281    5.3208  -60.1245 O.3   1     UNK     0.0000
     16 C10        33.1227    3.5031  -58.8362 C.3   1     UNK     0.0000
     17 O5         33.1853    3.0204  -57.5148 O.3   1     UNK     0.0000
     18 N3         33.8465    3.3819  -62.0405 N.ar  1     UNK     0.0000
     19 N4         33.8396    2.5524  -63.0740 N.ar  1     UNK     0.0000
     20 N5         34.6776    0.8993  -64.6924 N.ar  1     UNK     0.0000
     21 C11        34.4277   -0.2284  -65.3870 C.ar  1     UNK     0.0000
     22 C12        34.6871   -0.3491  -66.8387 C.ar  1     UNK     0.0000
     23 C13        35.1762   -1.5442  -67.3965 C.ar  1     UNK     0.0000
     24 C14        35.4238   -1.6330  -68.7697 C.ar  1     UNK     0.0000
     25 C15        35.1989   -0.5286  -69.5956 C.ar  1     UNK     0.0000
     26 F1         35.4407   -0.6165  -70.9266 F     1     UNK     0.0000
     27 C16        34.7329    0.6691  -69.0475 C.ar  1     UNK     0.0000
     28 C17        34.4842    0.7621  -67.6746 C.ar  1     UNK     0.0000
     29 C18        33.9319   -1.1966  -64.5242 C.ar  1     UNK     0.0000
     30 C19        33.4550   -2.5467  -64.8923 C.ar  1     UNK     0.0000
     31 C20        32.1458   -2.7344  -65.3566 C.ar  1     UNK     0.0000
     32 C21        31.7105   -4.0209  -65.6839 C.ar  1     UNK     0.0000
     33 N6         32.5514   -5.0807  -65.5483 N.ar  1     UNK     0.0000
     34 C22        33.8244   -4.9270  -65.0963 C.ar  1     UNK     0.0000
     35 C23        34.2999   -3.6576  -64.7590 C.ar  1     UNK     0.0000
     36 H1         32.7991   -2.2252  -62.2984 H     1     UNK     0.0000
     37 H2         34.1666   -1.5008  -61.3664 H     1     UNK     0.0000
     38 H3         32.6031   -0.6035  -61.5869 H     1     UNK     0.0000
     39 H4         35.1180    0.7873  -60.6480 H     1     UNK     0.0000
     40 H5         34.6442    2.6034  -58.9036 H     1     UNK     0.0000
     41 H6         36.4161    4.1883  -59.6073 H     1     UNK     0.0000
     42 H7         35.8394    5.9974  -60.7770 H     1     UNK     0.0000
     43 H8         33.9103    6.7973  -59.1588 H     1     UNK     0.0000
     44 H9         32.6637    7.1042  -57.0427 H     1     UNK     0.0000
     45 H10        33.5808    5.7506  -56.2961 H     1     UNK     0.0000
     46 H11        34.5418    8.2567  -57.2390 H     1     UNK     0.0000
     47 H12        31.8488    5.0883  -58.1258 H     1     UNK     0.0000
     48 H13        31.7015    6.1574  -60.0291 H     1     UNK     0.0000
     49 H14        32.3213    2.9172  -59.3383 H     1     UNK     0.0000
     50 H15        33.9500    3.4611  -57.0619 H     1     UNK     0.0000
     51 H16        35.3886   -2.4019  -66.7724 H     1     UNK     0.0000
     52 H17        35.7979   -2.5572  -69.1915 H     1     UNK     0.0000
     53 H18        34.5645    1.5272  -69.6855 H     1     UNK     0.0000
     54 H19        34.1203    1.6974  -67.2668 H     1     UNK     0.0000
     55 H20        31.4676   -1.8959  -65.4554 H     1     UNK     0.0000
     56 H21        30.7022   -4.1771  -66.0432 H     1     UNK     0.0000
     57 H22        34.4682   -5.7907  -64.9986 H     1     UNK     0.0000
     58 H23        35.3153   -3.5416  -64.4004 H     1     UNK     0.0000
@<TRIPOS>BOND
     1     1     2    1 
     2     2     3    ar
     3     3     4    1 
     4     4     5    ar
     5     5     6    ar
     6     6     7    1 
     7     7     8    1 
     8     8     9    1 
     9     8    10    1 
    10    10    11    1 
    11    11    12    1 
    12    12    13    1 
    13    11    14    1 
    14    14    15    1 
    15    14    16    1 
    16    16    17    1 
    17     6    18    ar
    18    18    19    ar
    19     3    20    ar
    20    20    21    ar
    21    21    22    1 
    22    22    23    ar
    23    23    24    ar
    24    24    25    ar
    25    25    26    1 
    26    25    27    ar
    27    27    28    ar
    28    21    29    ar
    29    29    30    1 
    30    30    31    ar
    31    31    32    ar
    32    32    33    ar
    33    33    34    ar
    34    34    35    ar
    35    29     2    ar
    36    35    30    ar
    37    19     4    ar
    38    28    22    ar
    39    16     7    1 
    40     1    36    1 
    41     1    37    1 
    42     1    38    1 
    43     5    39    1 
    44     7    40    1 
    45     8    41    1 
    46     9    42    1 
    47    11    43    1 
    48    12    44    1 
    49    12    45    1 
    50    13    46    1 
    51    14    47    1 
    52    15    48    1 
    53    16    49    1 
    54    17    50    1 
    55    23    51    1 
    56    24    52    1 
    57    27    53    1 
    58    28    54    1 
    59    31    55    1 
    60    32    56    1 
    61    34    57    1 
    62    35    58    1 
@<TRIPOS>MOLECULE
Molecule 3_var_18.mol2
    20     0
SMALL
NO_CHARGES
@<TRIPOS>ATOM
      1 DON        35.1423    5.2908  -60.7728 HB    0     HB      0.0000
      2 DON        34.6801    7.4243  -56.7159 HB    1     HB      0.0000
      3 DON        32.2281    5.3208  -60.1245 HB    2     HB      0.0000
      4 DON        33.1853    3.0204  -57.5148 HB    3     HB      0.0000
      5 ACC        35.1423    5.2908  -60.7728 HB    4     HB      0.0000
      6 ACC        35.1466    5.3024  -58.4392 HB    5     HB      0.0000
      7 ACC        34.6801    7.4243  -56.7159 HB    6     HB      0.0000
      8 ACC        32.2281    5.3208  -60.1245 HB    7     HB      0.0000
      9 ACC        33.1853    3.0204  -57.5148 HB    8     HB      0.0000
     10 ACC        33.8465    3.3819  -62.0405 HB    9     HB      0.0000
     11 ACC        33.8396    2.5524  -63.0740 HB    10    HB      0.0000
     12 ACC        34.6776    0.8993  -64.6924 HB    11    HB      0.0000
     13 ACC        32.5514   -5.0807  -65.5483 HB    12    HB      0.0000
     14 CAT        33.8684   -0.6610  -63.2847 CHG   13    CHG     0.0000
     15 CAT        34.3331    2.7776  -60.9669 CHG   14    CHG     0.0000
     16 AR         34.2487   -0.1166  -64.2616 AR    15    AR      0.0000
     17 AR         34.2094    2.3237  -62.0056 AR    16    AR      0.0000
     18 AR         34.9505   -0.4373  -68.2204 AR    17    AR      0.0000
     19 AR         32.9978   -3.8279  -65.2227 AR    18    AR      0.0000
     20 HYD        33.3360   -1.2829  -62.0699 HYD   19    HYD     0.0000
@<TRIPOS>BOND
