@<TRIPOS>MOLECULE
Molecule Ligandos_final.mol2
     2     0
SMALL
NO_CHARGES
@<TRIPOS>ATOM
      5 ACC        33.1760    3.5180  -58.7810 HB    4     HB      0.0000
      8 AR         32.6817   -3.6287  -65.2760 AR    7     AR      0.0000
@<TRIPOS>BOND
@<TRIPOS>MOLECULE
Ligandos_final.mol2
    33    35
SMALL
NO_CHARGES
@<TRIPOS>ATOM
      1 C1         34.4600    0.4030  -61.4630 C.3   1     604     0.0000
      2 C1A        31.4480   -4.1500  -65.6180 C.ar  1     604     0.0000
      3 O1         35.5110   -0.4990  -61.1620 O.3   1     604     0.0000
      4 C2         34.2620    0.5920  -62.9480 C.3   1     604     0.0000
      5 C2A        31.5420   -3.0050  -64.8510 C.ar  1     604     0.0000
      6 N2         34.0600   -0.6570  -63.6450 N.am  1     604     0.0000
      7 C3         35.4470    1.3580  -63.4970 C.3   1     604     0.0000
      8 C3A        32.5930   -4.7780  -66.0400 C.ar  1     604     0.0000
      9 O3         35.3190    1.5200  -64.9050 O.3   1     604     0.0000
     10 C4         35.4990    2.6980  -62.7960 C.3   1     604     0.0000
     11 C4A        33.9180   -3.1030  -64.9360 C.ar  1     604     0.0000
     12 O4         36.6120    3.4100  -63.2990 O.3   1     604     0.0000
     13 C5         35.7180    2.4380  -61.3250 C.3   1     604     0.0000
     14 C5A        33.6680    5.9620  -57.1000 C.ar  1     604     0.0000
     15 O5         34.6550    1.6550  -60.8130 O.3   1     604     0.0000
     16 C6         35.7770    3.7080  -60.4950 C.3   1     604     0.0000
     17 C6A        32.7650   -2.4820  -64.5170 C.ar  1     604     0.0000
     18 C7         34.2580    7.1740  -56.6870 C.ar  1     604     0.0000
     19 C8         33.8240   -4.2540  -65.6940 C.ar  1     604     0.0000
     20 C9         34.7710    7.8040  -57.7890 C.ar  1     604     0.0000
     21 C10        33.8570    5.9180  -58.4620 C.ar  1     604     0.0000
     22 C11        32.8240   -1.2630  -63.7010 C.2   1     604     0.0000
     23 C12        34.2960    7.6700  -55.2570 C.2   1     604     0.0000
     24 C18        35.4850    9.0730  -57.9450 C.3   1     604     0.0000
     25 N21        34.6110    4.5690  -60.7660 N.pl3 1     604     0.0000
     26 O22        34.7110    8.8530  -55.0920 O.co2 1     604     0.0000
     27 O23        31.8220   -0.8920  -63.1150 O.2   1     604     0.0000
     28 O24        33.8950    6.8060  -54.4280 O.co2 1     604     0.0000
     29 O25        33.1760    3.5180  -58.7810 O.2   1     604     0.0000
     30 O26        32.1930    5.3290  -60.1640 O.2   1     604     0.0000
     31 O27        34.5270    7.0310  -58.8860 O.2   1     604     0.0000
     32 S32        33.3610    4.7070  -59.5870 S.o2  1     604     0.0000
     33 BR         35.4060   -5.1490  -66.2810 Br    1     604     0.0000
@<TRIPOS>BOND
     1     1     3    1 
     2     1    15    1 
     3     1     4    1 
     4     2     5    ar
     5     2     8    ar
     6     4     6    1 
     7     4     7    1 
     8     5    17    ar
     9     6    22    am
    10     7     9    1 
    11     7    10    1 
    12     8    19    ar
    13    10    12    1 
    14    10    13    1 
    15    11    17    ar
    16    11    19    ar
    17    13    15    1 
    18    13    16    1 
    19    14    18    ar
    20    14    21    ar
    21    16    25    1 
    22    17    22    1 
    23    18    20    ar
    24    18    23    1 
    25    19    33    1 
    26    20    24    1 
    27    20    31    ar
    28    21    31    ar
    29    21    32    1 
    30    22    27    2 
    31    23    26    2 
    32    23    28    2 
    33    25    32    1 
    34    29    32    2 
    35    30    32    2 
@<TRIPOS>MOLECULE
Molecule Ligandos_final.mol2
     9     0
SMALL
NO_CHARGES
@<TRIPOS>ATOM
      1 ACC        34.6550    1.6550  -60.8130 HB    0     HB      0.0000
      2 ACC        34.7110    8.8530  -55.0920 HB    1     HB      0.0000
      3 ACC        33.8950    6.8060  -54.4280 HB    2     HB      0.0000
      4 ACC        31.8220   -0.8920  -63.1150 HB    3     HB      0.0000
      5 ACC        33.1760    3.5180  -58.7810 HB    4     HB      0.0000
      6 ACC        32.1930    5.3290  -60.1640 HB    5     HB      0.0000
      7 ANI        34.2960    7.6700  -55.2570 CHG   6     CHG     0.0000
      8 AR         32.6817   -3.6287  -65.2760 AR    7     AR      0.0000
      9 AR         34.2162    6.7778  -57.7848 AR    8     AR      0.0000
@<TRIPOS>BOND
@<TRIPOS>MOLECULE
3_var_406.mol2
    41    43
SMALL
NO_CHARGES
@<TRIPOS>ATOM
      1 H1         38.5724    3.9453  -60.4066 H     1     UNK     0.0000
      2 O1         37.6814    4.4058  -60.2625 O.3   1     UNK     0.0000
      3 C1         36.4842    3.7168  -60.4224 C.2   1     UNK     0.0000
      4 H2         35.5491    4.2391  -60.2603 H     1     UNK     0.0000
      5 N1         36.4936    2.4650  -60.7621 N.2   1     UNK     0.0000
      6 C2         35.2714    1.6806  -60.9435 C.3   1     UNK     0.0000
      7 H3         35.1090    1.0460  -60.0417 H     1     UNK     0.0000
      8 C3         35.3822    0.7635  -62.1846 C.3   1     UNK     0.0000
      9 H4         36.1286   -0.0414  -61.9845 H     1     UNK     0.0000
     10 O2         35.7666    1.5051  -63.3169 O.3   1     UNK     0.0000
     11 H5         36.7573    1.5646  -63.3027 H     1     UNK     0.0000
     12 C4         34.0251    0.0963  -62.4427 C.3   1     UNK     0.0000
     13 H6         33.8233   -0.5984  -61.5935 H     1     UNK     0.0000
     14 O3         34.0672   -0.6528  -63.6443 O.3   1     UNK     0.0000
     15 C5         32.7684   -1.0361  -64.0971 C.3   1     UNK     0.0000
     16 H7         33.9177   -1.0083  -63.4516 H     1     UNK     0.0000
     17 C6         32.7675   -2.4796  -64.5032 C.ar  1     UNK     0.0000
     18 C7         33.9356   -3.1256  -64.9460 C.ar  1     UNK     0.0000
     19 H8         34.9128   -2.7334  -64.6936 H     1     UNK     0.0000
     20 C8         33.8481   -4.2867  -65.7207 C.ar  1     UNK     0.0000
     21 H9         34.7504   -4.7807  -66.0576 H     1     UNK     0.0000
     22 C9         32.5980   -4.8100  -66.0614 C.ar  1     UNK     0.0000
     23 H10        32.5328   -5.7086  -66.6612 H     1     UNK     0.0000
     24 C10        31.4322   -4.1723  -65.6293 C.ar  1     UNK     0.0000
     25 H11        30.4643   -4.5773  -65.8955 H     1     UNK     0.0000
     26 C11        31.5143   -3.0111  -64.8549 C.ar  1     UNK     0.0000
     27 H12        30.6028   -2.5255  -64.5286 H     1     UNK     0.0000
     28 O4         31.7607   -0.9014  -63.1026 O.3   1     UNK     0.0000
     29 C12        31.5831    0.4641  -62.7703 C.3   1     UNK     0.0000
     30 H13        31.0290    0.9832  -63.5841 H     1     UNK     0.0000
     31 H14        30.9409    0.5114  -61.8649 H     1     UNK     0.0000
     32 C13        32.9235    1.1699  -62.4961 C.3   1     UNK     0.0000
     33 H15        33.1148    1.8660  -63.3474 H     1     UNK     0.0000
     34 O5         32.8679    1.8805  -61.2715 O.3   1     UNK     0.0000
     35 C14        34.0611    2.6301  -61.0819 C.3   1     UNK     0.0000
     36 H16        34.2492    3.3082  -61.9527 H     1     UNK     0.0000
     37 O6         33.9491    3.3813  -59.8877 O.3   1     UNK     0.0000
     38 C15        33.1036    4.4929  -60.0910 C.3   1     UNK     0.0000
     39 H17        33.5565    5.2113  -60.8094 H     1     UNK     0.0000
     40 H18        32.9776    5.0219  -59.1240 H     1     UNK     0.0000
     41 H19        32.0932    4.1818  -60.4373 H     1     UNK     0.0000
@<TRIPOS>BOND
     1     1     2    1 
     2     2     3    1 
     3     3     4    1 
     4     3     5    2 
     5     5     6    1 
     6     6     7    1 
     7     6     8    1 
     8     8     9    1 
     9     8    10    1 
    10    10    11    1 
    11     8    12    1 
    12    12    13    1 
    13    12    14    1 
    14    14    15    1 
    15    15    16    1 
    16    15    17    1 
    17    17    18    ar
    18    18    19    1 
    19    18    20    ar
    20    20    21    1 
    21    20    22    ar
    22    22    23    1 
    23    22    24    ar
    24    24    25    1 
    25    24    26    ar
    26    26    27    1 
    27    15    28    1 
    28    28    29    1 
    29    29    30    1 
    30    29    31    1 
    31    29    32    1 
    32    32    33    1 
    33    32    34    1 
    34    34    35    1 
    35    35    36    1 
    36    35    37    1 
    37    37    38    1 
    38    38    39    1 
    39    38    40    1 
    40    38    41    1 
    41    35     6    1 
    42    32    12    1 
    43    26    17    ar
@<TRIPOS>MOLECULE
Molecule 3_var_406.mol2
    11     0
SMALL
NO_CHARGES
@<TRIPOS>ATOM
      1 DON        37.6814    4.4058  -60.2625 HB    0     HB      0.0000
      2 DON        35.7666    1.5051  -63.3169 HB    1     HB      0.0000
      3 ACC        37.6814    4.4058  -60.2625 HB    2     HB      0.0000
      4 ACC        36.4936    2.4650  -60.7621 HB    3     HB      0.0000
      5 ACC        35.7666    1.5051  -63.3169 HB    4     HB      0.0000
      6 ACC        34.0672   -0.6528  -63.6443 HB    5     HB      0.0000
      7 ACC        31.7607   -0.9014  -63.1026 HB    6     HB      0.0000
      8 ACC        32.8679    1.8805  -61.2715 HB    7     HB      0.0000
      9 ACC        33.9491    3.3813  -59.8877 HB    8     HB      0.0000
     10 AR         32.6826   -3.6476  -65.2859 AR    9     AR      0.0000
     11 HYD        33.1036    4.4929  -60.0910 HYD   10    HYD     0.0000
@<TRIPOS>BOND
