@<TRIPOS>MOLECULE
Molecule Ligandos_final.mol2
     3     0
SMALL
NO_CHARGES
@<TRIPOS>ATOM
      5 ACC        33.1760    3.5180  -58.7810 HB    4     HB      0.0000
      6 ACC        32.1930    5.3290  -60.1640 HB    5     HB      0.0000
      8 AR         32.6817   -3.6287  -65.2760 AR    7     AR      0.0000
@<TRIPOS>BOND
@<TRIPOS>MOLECULE
Ligandos_final.mol2
    33    35
SMALL
NO_CHARGES
@<TRIPOS>ATOM
      1 C1         34.4600    0.4030  -61.4630 C.3   1     604     0.0000
      2 C1A        31.4480   -4.1500  -65.6180 C.ar  1     604     0.0000
      3 O1         35.5110   -0.4990  -61.1620 O.3   1     604     0.0000
      4 C2         34.2620    0.5920  -62.9480 C.3   1     604     0.0000
      5 C2A        31.5420   -3.0050  -64.8510 C.ar  1     604     0.0000
      6 N2         34.0600   -0.6570  -63.6450 N.am  1     604     0.0000
      7 C3         35.4470    1.3580  -63.4970 C.3   1     604     0.0000
      8 C3A        32.5930   -4.7780  -66.0400 C.ar  1     604     0.0000
      9 O3         35.3190    1.5200  -64.9050 O.3   1     604     0.0000
     10 C4         35.4990    2.6980  -62.7960 C.3   1     604     0.0000
     11 C4A        33.9180   -3.1030  -64.9360 C.ar  1     604     0.0000
     12 O4         36.6120    3.4100  -63.2990 O.3   1     604     0.0000
     13 C5         35.7180    2.4380  -61.3250 C.3   1     604     0.0000
     14 C5A        33.6680    5.9620  -57.1000 C.ar  1     604     0.0000
     15 O5         34.6550    1.6550  -60.8130 O.3   1     604     0.0000
     16 C6         35.7770    3.7080  -60.4950 C.3   1     604     0.0000
     17 C6A        32.7650   -2.4820  -64.5170 C.ar  1     604     0.0000
     18 C7         34.2580    7.1740  -56.6870 C.ar  1     604     0.0000
     19 C8         33.8240   -4.2540  -65.6940 C.ar  1     604     0.0000
     20 C9         34.7710    7.8040  -57.7890 C.ar  1     604     0.0000
     21 C10        33.8570    5.9180  -58.4620 C.ar  1     604     0.0000
     22 C11        32.8240   -1.2630  -63.7010 C.2   1     604     0.0000
     23 C12        34.2960    7.6700  -55.2570 C.2   1     604     0.0000
     24 C18        35.4850    9.0730  -57.9450 C.3   1     604     0.0000
     25 N21        34.6110    4.5690  -60.7660 N.pl3 1     604     0.0000
     26 O22        34.7110    8.8530  -55.0920 O.co2 1     604     0.0000
     27 O23        31.8220   -0.8920  -63.1150 O.2   1     604     0.0000
     28 O24        33.8950    6.8060  -54.4280 O.co2 1     604     0.0000
     29 O25        33.1760    3.5180  -58.7810 O.2   1     604     0.0000
     30 O26        32.1930    5.3290  -60.1640 O.2   1     604     0.0000
     31 O27        34.5270    7.0310  -58.8860 O.2   1     604     0.0000
     32 S32        33.3610    4.7070  -59.5870 S.o2  1     604     0.0000
     33 BR         35.4060   -5.1490  -66.2810 Br    1     604     0.0000
@<TRIPOS>BOND
     1     1     3    1 
     2     1    15    1 
     3     1     4    1 
     4     2     5    ar
     5     2     8    ar
     6     4     6    1 
     7     4     7    1 
     8     5    17    ar
     9     6    22    am
    10     7     9    1 
    11     7    10    1 
    12     8    19    ar
    13    10    12    1 
    14    10    13    1 
    15    11    17    ar
    16    11    19    ar
    17    13    15    1 
    18    13    16    1 
    19    14    18    ar
    20    14    21    ar
    21    16    25    1 
    22    17    22    1 
    23    18    20    ar
    24    18    23    1 
    25    19    33    1 
    26    20    24    1 
    27    20    31    ar
    28    21    31    ar
    29    21    32    1 
    30    22    27    2 
    31    23    26    2 
    32    23    28    2 
    33    25    32    1 
    34    29    32    2 
    35    30    32    2 
@<TRIPOS>MOLECULE
Molecule Ligandos_final.mol2
     9     0
SMALL
NO_CHARGES
@<TRIPOS>ATOM
      1 ACC        34.6550    1.6550  -60.8130 HB    0     HB      0.0000
      2 ACC        34.7110    8.8530  -55.0920 HB    1     HB      0.0000
      3 ACC        33.8950    6.8060  -54.4280 HB    2     HB      0.0000
      4 ACC        31.8220   -0.8920  -63.1150 HB    3     HB      0.0000
      5 ACC        33.1760    3.5180  -58.7810 HB    4     HB      0.0000
      6 ACC        32.1930    5.3290  -60.1640 HB    5     HB      0.0000
      7 ANI        34.2960    7.6700  -55.2570 CHG   6     CHG     0.0000
      8 AR         32.6817   -3.6287  -65.2760 AR    7     AR      0.0000
      9 AR         34.2162    6.7778  -57.7848 AR    8     AR      0.0000
@<TRIPOS>BOND
@<TRIPOS>MOLECULE
3_var_155.mol2
    48    50
SMALL
NO_CHARGES
@<TRIPOS>ATOM
      1 C1         35.6164    1.8727  -64.8316 C.3   1     UNK     0.0000
      2 C2         35.1979    2.1828  -63.4317 C.2   1     UNK     0.0000
      3 O1         36.0585    2.5795  -62.6002 O.2   1     UNK     0.0000
      4 N1         33.8175    2.0725  -63.0566 N.am  1     UNK     0.0000
      5 C3         33.3207    2.4714  -61.7357 C.3   1     UNK     0.0000
      6 C4         34.4657    2.4348  -60.7083 C.3   1     UNK     0.0000
      7 O2         34.9042    1.0818  -60.6035 O.3   1     UNK     0.0000
      8 C5         34.6478   -0.0978  -61.8326 C.ar  1     UNK     0.0000
      9 C6         35.8707   -0.7569  -61.9916 C.ar  1     UNK     0.0000
     10 C7         35.9947   -1.8309  -62.8766 C.ar  1     UNK     0.0000
     11 C8         34.8846   -2.2675  -63.6249 C.ar  1     UNK     0.0000
     12 C9         34.9517   -3.3470  -64.5347 C.2   1     UNK     0.0000
     13 C10        36.2265   -4.1145  -64.7720 C.3   1     UNK     0.0000
     14 C11        33.7923   -3.7090  -65.2343 C.2   1     UNK     0.0000
     15 C12        32.6090   -3.0002  -65.0167 C.2   1     UNK     0.0000
     16 O3         31.5627   -3.3181  -65.6403 O.2   1     UNK     0.0000
     17 O4         32.5778   -1.9904  -64.1551 O.3   1     UNK     0.0000
     18 C13        33.6453   -1.6024  -63.4643 C.ar  1     UNK     0.0000
     19 C14        33.5326   -0.5286  -62.5748 C.ar  1     UNK     0.0000
     20 O5         33.9856    2.8244  -59.4326 O.3   1     UNK     0.0000
     21 C15        33.6042    4.1902  -59.4348 C.3   1     UNK     0.0000
     22 C16        33.2668    4.5876  -57.9885 C.3   1     UNK     0.0000
     23 O6         33.0533    5.9691  -57.8763 O.3   1     UNK     0.0000
     24 C17        32.3900    4.3995  -60.3798 C.3   1     UNK     0.0000
     25 O7         31.9919    5.7477  -60.4229 O.3   1     UNK     0.0000
     26 C18        32.7341    3.8958  -61.7983 C.3   1     UNK     0.0000
     27 O8         31.6047    3.9396  -62.6352 O.3   1     UNK     0.0000
     28 H1         35.3397    2.7183  -65.4948 H     1     UNK     0.0000
     29 H2         35.1068    0.9507  -65.1822 H     1     UNK     0.0000
     30 H3         36.7146    1.7141  -64.8827 H     1     UNK     0.0000
     31 H4         34.4093    2.7481  -63.5923 H     1     UNK     0.0000
     32 H5         32.5208    1.7742  -61.3983 H     1     UNK     0.0000
     33 H6         33.3784    2.3578  -61.1768 H     1     UNK     0.0000
     34 H7         36.7335   -0.4327  -61.4233 H     1     UNK     0.0000
     35 H8         36.9602   -2.3103  -62.9671 H     1     UNK     0.0000
     36 H9         37.0130   -3.4289  -65.1518 H     1     UNK     0.0000
     37 H10        36.0859   -4.9230  -65.5206 H     1     UNK     0.0000
     38 H11        36.5666   -4.5807  -63.8235 H     1     UNK     0.0000
     39 H12        33.8042   -4.5312  -65.9403 H     1     UNK     0.0000
     40 H13        32.5732   -0.0398  -62.4711 H     1     UNK     0.0000
     41 H14        34.4595    4.8258  -59.7657 H     1     UNK     0.0000
     42 H15        32.3518    4.0536  -57.6535 H     1     UNK     0.0000
     43 H16        34.0966    4.2785  -57.3121 H     1     UNK     0.0000
     44 H17        33.9468    6.3997  -57.9200 H     1     UNK     0.0000
     45 H18        31.5370    3.8012  -59.9891 H     1     UNK     0.0000
     46 H19        32.7678    6.2807  -60.7392 H     1     UNK     0.0000
     47 H20        33.5039    4.5728  -62.2322 H     1     UNK     0.0000
     48 H21        30.9201    3.3312  -62.2515 H     1     UNK     0.0000
@<TRIPOS>BOND
     1     1     2    1 
     2     2     3    2 
     3     2     4    am
     4     4     5    1 
     5     5     6    1 
     6     6     7    1 
     7     7     8    1 
     8     8     9    ar
     9     9    10    ar
    10    10    11    ar
    11    11    12    1 
    12    12    13    1 
    13    12    14    2 
    14    14    15    2 
    15    15    16    2 
    16    15    17    1 
    17    17    18    1 
    18    18    19    ar
    19     6    20    1 
    20    20    21    1 
    21    21    22    1 
    22    22    23    1 
    23    21    24    1 
    24    24    25    1 
    25    24    26    1 
    26    26    27    1 
    27    26     5    1 
    28    19     8    ar
    29    18    11    ar
    30     1    28    1 
    31     1    29    1 
    32     1    30    1 
    33     4    31    1 
    34     5    32    1 
    35     6    33    1 
    36     9    34    1 
    37    10    35    1 
    38    13    36    1 
    39    13    37    1 
    40    13    38    1 
    41    14    39    1 
    42    19    40    1 
    43    21    41    1 
    44    22    42    1 
    45    22    43    1 
    46    23    44    1 
    47    24    45    1 
    48    25    46    1 
    49    26    47    1 
    50    27    48    1 
@<TRIPOS>MOLECULE
Molecule 3_var_155.mol2
    17     0
SMALL
NO_CHARGES
@<TRIPOS>ATOM
      1 DON        33.8175    2.0725  -63.0566 HB    0     HB      0.0000
      2 DON        33.0533    5.9691  -57.8763 HB    1     HB      0.0000
      3 DON        31.9919    5.7477  -60.4229 HB    2     HB      0.0000
      4 DON        31.6047    3.9396  -62.6352 HB    3     HB      0.0000
      5 ACC        36.0585    2.5795  -62.6002 HB    4     HB      0.0000
      6 ACC        34.5857    0.9738  -60.9287 HB    5     HB      0.0000
      7 ACC        31.5627   -3.3181  -65.6403 HB    6     HB      0.0000
      8 ACC        32.5778   -1.9904  -64.1551 HB    7     HB      0.0000
      9 ACC        33.9856    2.8244  -59.4326 HB    8     HB      0.0000
     10 ACC        33.0533    5.9691  -57.8763 HB    9     HB      0.0000
     11 ACC        31.9919    5.7477  -60.4229 HB    10    HB      0.0000
     12 ACC        31.6047    3.9396  -62.6352 HB    11    HB      0.0000
     13 AR         34.7626   -1.1807  -62.7275 AR    12    AR      0.0000
     14 AR         33.7435   -2.6527  -64.3383 AR    13    AR      0.0000
     15 HYD        35.5891   -3.7308  -64.6533 HYD   14    HYD     0.0000
     16 HYD        35.6164    1.8727  -64.8316 HYD   15    HYD     0.0000
     17 HYD        36.2265   -4.1145  -64.7720 HYD   16    HYD     0.0000
@<TRIPOS>BOND
