REMARK  Name = 12917651
REMARK  11 active torsions:
REMARK  status: ('A' for Active; 'I' for Inactive)
REMARK    1  A    between atoms: C_1  and  C_2
REMARK    2  A    between atoms: C_2  and  O_3
REMARK    3  A    between atoms: N_4  and  C_5
REMARK    4  A    between atoms: C_6  and  O_7
REMARK    5  A    between atoms: C_9  and  C_10
REMARK    6  A    between atoms: C_10  and  O_11
REMARK    7  A    between atoms: C_12  and  O_13
REMARK    8  A    between atoms: C_14  and  O_15
REMARK    9  A    between atoms: O_15  and  C_16
REMARK   10  A    between atoms: C_16  and  C_17
REMARK   11  A    between atoms: C_16  and  C_18
REMARK                            x       y       z     vdW  Elec       q    Type
REMARK                         _______ _______ _______ _____ _____    ______ ____
ROOT
ATOM      1  C   UNL     1      -0.670   0.477   0.834  0.00  0.00    +0.000 C 
ATOM      2  C   UNL     1      -0.087   0.570   2.262  0.00  0.00    +0.000 C 
ATOM      3  O   UNL     1       1.312   0.783   2.202  0.00  0.00    +0.000 OA
ATOM      4  C   UNL     1       1.967  -0.340   1.636  0.00  0.00    +0.000 C 
ATOM      5  C   UNL     1       1.545  -0.518   0.160  0.00  0.00    +0.000 C 
ATOM      6  C   UNL     1       0.014  -0.669   0.070  0.00  0.00    +0.000 C 
ENDROOT
BRANCH   1   9
ATOM      7  C   UNL     1      -2.818   2.526   0.440  0.00  0.00    +0.000 C 
ATOM      8  C   UNL     1      -3.076   1.076   0.746  0.00  0.00    +0.000 C 
ATOM      9  N   UNL     1      -2.112   0.213   0.895  0.00  0.00    +0.000 NA
BRANCH   8  10
ATOM     10  O   UNL     1      -4.389   0.623   0.849  0.00  0.00    +0.000 OA
ATOM     11  H   UNL     1      -5.178   1.246   0.728  0.00  0.00    +0.000 HD
ENDBRANCH   8  10
ENDBRANCH   1   9
BRANCH   2  12
ATOM     12  O   UNL     1      -0.661   1.655   2.941  0.00  0.00    +0.000 OA
ATOM     13  H   UNL     1      -1.525   1.341   3.317  0.00  0.00    +0.000 HD
ENDBRANCH   2  12
BRANCH   5  14
ATOM     14  O   UNL     1       2.168  -1.659  -0.373  0.00  0.00    +0.000 OA
ATOM     15  H   UNL     1       2.233  -1.521  -1.354  0.00  0.00    +0.000 HD
ENDBRANCH   5  14
BRANCH   4  16
ATOM     16  C   UNL     1       3.483  -0.123   1.745  0.00  0.00    +0.000 C 
BRANCH  16  17
ATOM     17  O   UNL     1       3.857   0.058   3.085  0.00  0.00    +0.000 OA
ATOM     18  H   UNL     1       3.831  -0.839   3.511  0.00  0.00    +0.000 HD
ENDBRANCH  16  17
ENDBRANCH   4  16
BRANCH   6  19
ATOM     19  O   UNL     1      -0.388  -0.606  -1.292  0.00  0.00    +0.000 OA
BRANCH  19  20
ATOM     20  C   UNL     1      -0.748  -1.879  -1.801  0.00  0.00    +0.000 C 
ATOM     21  C   UNL     1      -0.573  -1.866  -3.317  0.00  0.00    +0.000 C 
BRANCH  20  22
ATOM     22  C   UNL     1      -2.179  -2.183  -1.460  0.00  0.00    +0.000 C 
ATOM     23  O   UNL     1      -2.478  -3.264  -0.888  0.00  0.00    +0.000 OA
ATOM     24  O   UNL     1      -3.183  -1.277  -1.783  0.00  0.00    +0.000 OA
ENDBRANCH  20  22
ENDBRANCH  19  20
ENDBRANCH   6  19
TORSDOF 9
