REMARK  Name = 2733787
REMARK  9 active torsions:
REMARK  status: ('A' for Active; 'I' for Inactive)
REMARK    1  A    between atoms: C_1  and  C_2
REMARK    2  A    between atoms: N_4  and  C_5
REMARK    3  A    between atoms: C_6  and  O_7
REMARK    4  A    between atoms: O_7  and  C_8
REMARK    5  A    between atoms: C_12  and  C_13
REMARK    6  A    between atoms: C_21  and  C_22
REMARK    7  A    between atoms: C_22  and  O_23
REMARK    8  A    between atoms: C_24  and  O_25
REMARK    9  A    between atoms: C_26  and  O_27
REMARK                            x       y       z     vdW  Elec       q    Type
REMARK                         _______ _______ _______ _____ _____    ______ ____
ROOT
ATOM      1  C   UNL     1       0.524  -0.015   2.101  0.00  0.00    +0.000 C 
ATOM      2  C   UNL     1      -0.245   0.022   0.769  0.00  0.00    +0.000 C 
ATOM      3  O   UNL     1      -1.485   0.688   0.943  0.00  0.00    +0.000 OA
ATOM      4  C   UNL     1      -2.344  -0.063   1.785  0.00  0.00    +0.000 C 
ATOM      5  C   UNL     1      -1.748  -0.139   3.217  0.00  0.00    +0.000 C 
ATOM      6  C   UNL     1      -0.327  -0.740   3.164  0.00  0.00    +0.000 C 
ENDROOT
BRANCH   1  10
ATOM      7  C   UNL     1       4.283  -0.779   1.395  0.00  0.00    +0.000 C 
ATOM      8  C   UNL     1       3.036  -0.010   1.687  0.00  0.00    +0.000 C 
ATOM      9  O   UNL     1       3.070   1.250   1.684  0.00  0.00    +0.000 OA
ATOM     10  N   UNL     1       1.805  -0.707   1.923  0.00  0.00    +0.000 N 
ATOM     11  H   UNL     1       1.800  -1.748   1.820  0.00  0.00    +0.000 HD
ENDBRANCH   1  10
BRANCH   5  12
ATOM     12  O   UNL     1      -2.565  -0.892   4.080  0.00  0.00    +0.000 OA
ATOM     13  H   UNL     1      -2.650  -1.803   3.695  0.00  0.00    +0.000 HD
ENDBRANCH   5  12
BRANCH   6  14
ATOM     14  O   UNL     1       0.290  -0.685   4.426  0.00  0.00    +0.000 OA
ATOM     15  H   UNL     1       0.370   0.271   4.682  0.00  0.00    +0.000 HD
ENDBRANCH   6  14
BRANCH   2  16
ATOM     16  O   UNL     1       0.532   0.736  -0.191  0.00  0.00    +0.000 OA
BRANCH  16  17
ATOM     17  C   UNL     1       0.206   0.870  -1.550  0.00  0.00    +0.000 A 
ATOM     18  C   UNL     1       1.067   1.612  -2.365  0.00  0.00    +0.000 A 
ATOM     19  C   UNL     1       0.795   1.781  -3.725  0.00  0.00    +0.000 A 
ATOM     20  C   UNL     1      -0.355   1.204  -4.297  0.00  0.00    +0.000 A 
ATOM     21  C   UNL     1      -0.680   1.342  -5.666  0.00  0.00    +0.000 A 
ATOM     22  C   UNL     1       0.187   2.124  -6.618  0.00  0.00    +0.000 C 
ATOM     23  C   UNL     1      -1.847   0.731  -6.144  0.00  0.00    +0.000 A 
ATOM     24  C   UNL     1      -2.652   0.005  -5.264  0.00  0.00    +0.000 A 
ATOM     25  O   UNL     1      -3.702  -0.548  -5.685  0.00  0.00    +0.000 OA
ATOM     26  O   UNL     1      -2.320  -0.107  -3.984  0.00  0.00    +0.000 OA
ATOM     27  C   UNL     1      -1.226   0.452  -3.474  0.00  0.00    +0.000 A 
ATOM     28  C   UNL     1      -0.944   0.288  -2.114  0.00  0.00    +0.000 A 
ENDBRANCH  16  17
ENDBRANCH   2  16
BRANCH   4  29
ATOM     29  C   UNL     1      -3.720   0.622   1.784  0.00  0.00    +0.000 C 
BRANCH  29  30
ATOM     30  O   UNL     1      -4.678  -0.157   2.450  0.00  0.00    +0.000 OA
ATOM     31  H   UNL     1      -4.909  -0.905   1.840  0.00  0.00    +0.000 HD
ENDBRANCH  29  30
ENDBRANCH   4  29
TORSDOF 7
