REMARK  Name = 5284365
REMARK  10 active torsions:
REMARK  status: ('A' for Active; 'I' for Inactive)
REMARK    1  A    between atoms: O_2  and  C_3
REMARK    2  A    between atoms: N_4  and  C_5
REMARK    3  A    between atoms: C_7  and  O_9
REMARK    4  A    between atoms: C_12  and  C_14
REMARK    5  A    between atoms: C_14  and  O_17
REMARK    6  A    between atoms: C_19  and  O_21
REMARK    7  A    between atoms: C_23  and  O_25
REMARK    8  A    between atoms: N_27  and  N_28
REMARK    9  A    between atoms: N_27  and  C_30
REMARK   10  A    between atoms: C_30  and  C_33
REMARK                            x       y       z     vdW  Elec       q    Type
REMARK                         _______ _______ _______ _____ _____    ______ ____
ROOT
ATOM      1  C   UNL     1      -0.004   0.709  -1.061  0.00  0.00    +0.000 C 
ATOM      2  C   UNL     1       1.510   0.479  -1.253  0.00  0.00    +0.000 C 
ATOM      3  O   UNL     1       2.036   1.339  -2.254  0.00  0.00    +0.000 OA
ATOM      4  C   UNL     1       1.444   1.094  -3.521  0.00  0.00    +0.000 C 
ATOM      5  C   UNL     1      -0.074   1.390  -3.482  0.00  0.00    +0.000 C 
ATOM      6  C   UNL     1      -0.740   0.530  -2.395  0.00  0.00    +0.000 C 
ENDROOT
BRANCH   1   8
ATOM      7  C   UNL     1      -0.388  -0.127   1.210  0.00  0.00    +0.000 C 
ATOM      8  N   UNL     1      -0.548  -0.230  -0.077  0.00  0.00    +0.000 NA
ATOM      9  N   UNL     1      -0.962  -1.132   2.070  0.00  0.00    +0.000 N 
BRANCH   7  11
ATOM     10  H   UNL     1       0.553   1.051   2.713  0.00  0.00    +0.000 HD
ATOM     11  O   UNL     1       0.336   0.951   1.732  0.00  0.00    +0.000 OA
ENDBRANCH   7  11
BRANCH   9  12
ATOM     12  N   UNL     1      -1.416  -2.328   1.482  0.00  0.00    +0.000 NA
ATOM     13  O   UNL     1      -1.877  -3.263   2.168  0.00  0.00    +0.000 OA
ENDBRANCH   9  12
BRANCH   9  14
ATOM     14  C   UNL     1      -1.034  -0.956   3.527  0.00  0.00    +0.000 C 
BRANCH  14  15
ATOM     15  C   UNL     1       0.215  -1.528   4.193  0.00  0.00    +0.000 C 
ATOM     16 CL   UNL     1       0.137  -1.282   5.956  0.00  0.00    +0.000 Cl
ENDBRANCH  14  15
ENDBRANCH   9  14
ENDBRANCH   1   8
BRANCH   2  17
ATOM     17  O   UNL     1       1.781  -0.870  -1.545  0.00  0.00    +0.000 OA
ATOM     18  H   UNL     1       2.770  -0.963  -1.544  0.00  0.00    +0.000 HD
ENDBRANCH   2  17
BRANCH   5  19
ATOM     19  O   UNL     1      -0.659   1.086  -4.724  0.00  0.00    +0.000 OA
ATOM     20  H   UNL     1      -0.707   1.932  -5.241  0.00  0.00    +0.000 HD
ENDBRANCH   5  19
BRANCH   6  21
ATOM     21  O   UNL     1      -2.082   0.913  -2.237  0.00  0.00    +0.000 OA
ATOM     22  H   UNL     1      -2.593   0.485  -2.973  0.00  0.00    +0.000 HD
ENDBRANCH   6  21
BRANCH   4  23
ATOM     23  C   UNL     1       2.146   1.980  -4.558  0.00  0.00    +0.000 C 
BRANCH  23  24
ATOM     24  O   UNL     1       3.520   1.702  -4.561  0.00  0.00    +0.000 OA
ATOM     25  H   UNL     1       3.921   2.309  -5.237  0.00  0.00    +0.000 HD
ENDBRANCH  23  24
ENDBRANCH   4  23
TORSDOF 10
