REMARK  Name = 5317448
REMARK  6 active torsions:
REMARK  status: ('A' for Active; 'I' for Inactive)
REMARK    1  A    between atoms: N_1  and  C_2
REMARK    2  A    between atoms: C_3  and  O_4
REMARK    3  A    between atoms: C_6  and  C_7
REMARK    4  A    between atoms: C_7  and  O_8
REMARK    5  A    between atoms: C_9  and  O_10
REMARK    6  A    between atoms: C_11  and  O_12
REMARK                            x       y       z     vdW  Elec       q    Type
REMARK                         _______ _______ _______ _____ _____    ______ ____
ROOT
ATOM      1  C   UNL     1      -1.685  -0.266  -0.063  0.00  0.00    +0.000 C 
ATOM      2  C   UNL     1      -0.789  -1.379   0.519  0.00  0.00    +0.000 C 
ATOM      3  O   UNL     1       0.401  -1.542  -0.239  0.00  0.00    +0.000 OA
ATOM      4  C   UNL     1       1.224  -0.382  -0.212  0.00  0.00    +0.000 C 
ATOM      5  C   UNL     1       0.486   0.871  -0.758  0.00  0.00    +0.000 C 
ATOM      6  C   UNL     1      -0.905   1.068  -0.118  0.00  0.00    +0.000 C 
ENDROOT
BRANCH   1   7
ATOM      7  N   UNL     1      -2.204  -0.648  -1.381  0.00  0.00    +0.000 NA
ATOM      8  H   UNL     1      -1.419  -0.753  -2.064  0.00  0.00    +0.000 HD
ATOM      9  H   UNL     1      -2.833   0.110  -1.733  0.00  0.00    +0.000 HD
ENDBRANCH   1   7
BRANCH   2  10
ATOM     10  O   UNL     1      -1.494  -2.593   0.561  0.00  0.00    +0.000 OA
ATOM     11  H   UNL     1      -1.505  -2.964  -0.360  0.00  0.00    +0.000 HD
ENDBRANCH   2  10
BRANCH   5  12
ATOM     12  O   UNL     1       1.275   2.021  -0.585  0.00  0.00    +0.000 OA
ATOM     13  H   UNL     1       0.891   2.725  -1.170  0.00  0.00    +0.000 HD
ENDBRANCH   5  12
BRANCH   6  14
ATOM     14  O   UNL     1      -0.764   1.598   1.176  0.00  0.00    +0.000 OA
ATOM     15  H   UNL     1      -1.644   1.984   1.428  0.00  0.00    +0.000 HD
ENDBRANCH   6  14
BRANCH   4  16
ATOM     16  C   UNL     1       1.913  -0.193   1.159  0.00  0.00    +0.000 C 
BRANCH  16  17
ATOM     17  O   UNL     1       3.053   0.610   1.019  0.00  0.00    +0.000 OA
ATOM     18  H   UNL     1       3.451   0.684   1.925  0.00  0.00    +0.000 HD
ENDBRANCH  16  17
ENDBRANCH   4  16
TORSDOF 6
