REMARK  Name = 12917651
REMARK  10 active torsions:
REMARK  status: ('A' for Active; 'I' for Inactive)
REMARK    1  A    between atoms: C_1  and  C_2
REMARK    2  A    between atoms: N_4  and  C_5
REMARK    3  A    between atoms: C_6  and  O_7
REMARK    4  A    between atoms: C_9  and  C_10
REMARK    5  A    between atoms: C_10  and  O_11
REMARK    6  A    between atoms: C_12  and  O_13
REMARK    7  A    between atoms: C_14  and  O_15
REMARK    8  A    between atoms: O_15  and  C_16
REMARK    9  A    between atoms: C_16  and  C_17
REMARK   10  A    between atoms: C_16  and  C_18
REMARK                            x       y       z     vdW  Elec       q    Type
REMARK                         _______ _______ _______ _____ _____    ______ ____
ROOT
ATOM      1  C   UNL     1      -0.882   0.845  -0.923  0.00  0.00    +0.000 C 
ATOM      2  C   UNL     1      -1.460   1.662   0.261  0.00  0.00    +0.000 C 
ATOM      3  O   UNL     1      -0.563   1.613   1.355  0.00  0.00    +0.000 OA
ATOM      4  C   UNL     1      -0.610   0.335   1.976  0.00  0.00    +0.000 C 
ATOM      5  C   UNL     1      -0.492  -0.841   0.947  0.00  0.00    +0.000 C 
ATOM      6  C   UNL     1       0.003  -0.328  -0.421  0.00  0.00    +0.000 C 
ENDROOT
BRANCH   1  10
ATOM      7  C   UNL     1      -2.860  -0.593  -3.963  0.00  0.00    +0.000 C 
ATOM      8  C   UNL     1      -1.727  -0.080  -3.136  0.00  0.00    +0.000 C 
ATOM      9  O   UNL     1      -0.570  -0.018  -3.634  0.00  0.00    +0.000 OA
ATOM     10  N   UNL     1      -1.963   0.349  -1.787  0.00  0.00    +0.000 N 
ATOM     11  H   UNL     1      -2.946   0.325  -1.435  0.00  0.00    +0.000 HD
ENDBRANCH   1  10
BRANCH   2  12
ATOM     12  O   UNL     1      -1.627   2.995  -0.138  0.00  0.00    +0.000 OA
ATOM     13  H   UNL     1      -2.069   3.462   0.620  0.00  0.00    +0.000 HD
ENDBRANCH   2  12
BRANCH   5  14
ATOM     14  O   UNL     1      -1.743  -1.457   0.776  0.00  0.00    +0.000 OA
ATOM     15  H   UNL     1      -1.907  -2.002   1.589  0.00  0.00    +0.000 HD
ENDBRANCH   5  14
BRANCH   4  16
ATOM     16  C   UNL     1       0.514   0.275   3.022  0.00  0.00    +0.000 C 
BRANCH  16  17
ATOM     17  O   UNL     1       0.429  -0.901   3.783  0.00  0.00    +0.000 OA
ATOM     18  H   UNL     1      -0.324  -0.776   4.417  0.00  0.00    +0.000 HD
ENDBRANCH  16  17
ENDBRANCH   4  16
BRANCH   6  19
ATOM     19  O   UNL     1       1.339   0.141  -0.289  0.00  0.00    +0.000 OA
BRANCH  19  20
ATOM     20  C   UNL     1       2.285  -0.838  -0.680  0.00  0.00    +0.000 C 
ATOM     21  C   UNL     1       3.610  -0.543   0.017  0.00  0.00    +0.000 C 
BRANCH  20  22
ATOM     22  C   UNL     1       2.482  -0.796  -2.169  0.00  0.00    +0.000 C 
ATOM     23  O   UNL     1       2.556  -1.867  -2.828  0.00  0.00    +0.000 OA
ATOM     24  O   UNL     1       2.614   0.423  -2.823  0.00  0.00    +0.000 OA
ENDBRANCH  20  22
ENDBRANCH  19  20
ENDBRANCH   6  19
TORSDOF 8
