REMARK  Name = 6323218
REMARK  10 active torsions:
REMARK  status: ('A' for Active; 'I' for Inactive)
REMARK    1  A    between atoms: C_1  and  C_2
REMARK    2  A    between atoms: N_4  and  C_5
REMARK    3  A    between atoms: C_6  and  O_7
REMARK    4  A    between atoms: C_9  and  C_10
REMARK    5  A    between atoms: C_10  and  O_11
REMARK    6  A    between atoms: C_12  and  O_13
REMARK    7  A    between atoms: C_14  and  O_15
REMARK    8  A    between atoms: O_15  and  C_16
REMARK    9  A    between atoms: C_16  and  C_17
REMARK   10  A    between atoms: C_16  and  C_18
REMARK                            x       y       z     vdW  Elec       q    Type
REMARK                         _______ _______ _______ _____ _____    ______ ____
ROOT
ATOM      1  C   UNL     1      -0.120   0.157  -0.550  0.00  0.00    +0.000 C 
ATOM      2  C   UNL     1       0.738   0.551  -1.772  0.00  0.00    +0.000 C 
ATOM      3  O   UNL     1       0.972  -0.569  -2.611  0.00  0.00    +0.000 OA
ATOM      4  C   UNL     1       1.688  -1.592  -1.936  0.00  0.00    +0.000 C 
ATOM      5  C   UNL     1       0.878  -2.138  -0.736  0.00  0.00    +0.000 C 
ATOM      6  C   UNL     1       0.544  -0.988   0.234  0.00  0.00    +0.000 C 
ENDROOT
BRANCH   1  10
ATOM      7  C   UNL     1      -1.540   3.435   1.011  0.00  0.00    +0.000 C 
ATOM      8  C   UNL     1      -1.423   2.230   0.136  0.00  0.00    +0.000 C 
ATOM      9  O   UNL     1      -2.270   2.040  -0.778  0.00  0.00    +0.000 OA
ATOM     10  N   UNL     1      -0.332   1.318   0.320  0.00  0.00    +0.000 N 
ATOM     11  H   UNL     1       0.405   1.567   1.019  0.00  0.00    +0.000 HD
ENDBRANCH   1  10
BRANCH   2  12
ATOM     12  O   UNL     1       1.956   1.140  -1.384  0.00  0.00    +0.000 OA
ATOM     13  H   UNL     1       1.767   2.092  -1.175  0.00  0.00    +0.000 HD
ENDBRANCH   2  12
BRANCH   5  14
ATOM     14  O   UNL     1       1.632  -3.119  -0.069  0.00  0.00    +0.000 OA
ATOM     15  H   UNL     1       0.986  -3.725   0.380  0.00  0.00    +0.000 HD
ENDBRANCH   5  14
BRANCH   4  16
ATOM     16  C   UNL     1       2.016  -2.706  -2.944  0.00  0.00    +0.000 C 
BRANCH  16  17
ATOM     17  O   UNL     1       0.847  -3.290  -3.455  0.00  0.00    +0.000 OA
ATOM     18  H   UNL     1       0.501  -2.675  -4.153  0.00  0.00    +0.000 HD
ENDBRANCH  16  17
ENDBRANCH   4  16
BRANCH   6  19
ATOM     19  O   UNL     1      -0.370  -1.451   1.219  0.00  0.00    +0.000 OA
BRANCH  19  20
ATOM     20  C   UNL     1       0.257  -1.659   2.472  0.00  0.00    +0.000 C 
ATOM     21  C   UNL     1      -0.546  -2.697   3.253  0.00  0.00    +0.000 C 
BRANCH  20  22
ATOM     22  C   UNL     1       0.301  -0.372   3.245  0.00  0.00    +0.000 C 
ATOM     23  O   UNL     1       1.383   0.026   3.751  0.00  0.00    +0.000 OA
ATOM     24  O   UNL     1      -0.855   0.380   3.418  0.00  0.00    +0.000 OA
ENDBRANCH  20  22
ENDBRANCH  19  20
ENDBRANCH   6  19
TORSDOF 8
