REMARK  Name = 9816401
REMARK  9 active torsions:
REMARK  status: ('A' for Active; 'I' for Inactive)
REMARK    1  A    between atoms: C_1  and  C_2
REMARK    2  A    between atoms: C_2  and  O_3
REMARK    3  A    between atoms: C_2  and  C_15
REMARK    4  A    between atoms: O_3  and  C_4
REMARK    5  A    between atoms: C_5  and  O_6
REMARK    6  A    between atoms: C_7  and  C_8
REMARK    7  A    between atoms: C_8  and  O_9
REMARK    8  A    between atoms: C_11  and  O_12
REMARK    9  A    between atoms: C_13  and  N_14
REMARK                            x       y       z     vdW  Elec       q    Type
REMARK                         _______ _______ _______ _____ _____    ______ ____
ROOT
ATOM      1  C   UNL     1       0.222  -0.006   0.222  0.00  0.00    +0.000 C 
ATOM      2  C   UNL     1      -0.476  -1.229  -0.408  0.00  0.00    +0.000 C 
ATOM      3  C   UNL     1      -1.946  -0.879  -0.751  0.00  0.00    +0.000 C 
ATOM      4  O   UNL     1      -2.645  -0.451   0.408  0.00  0.00    +0.000 OA
ATOM      5  C   UNL     1      -2.088   0.738   0.950  0.00  0.00    +0.000 C 
ATOM      6  C   UNL     1      -0.632   0.511   1.398  0.00  0.00    +0.000 C 
ENDROOT
BRANCH   6   7
ATOM      7  N   UNL     1      -0.083   1.744   1.970  0.00  0.00    +0.000 NA
ATOM      8  H   UNL     1       0.819   1.519   2.448  0.00  0.00    +0.000 HD
ATOM      9  H   UNL     1       0.128   2.426   1.206  0.00  0.00    +0.000 HD
ENDBRANCH   6   7
BRANCH   2  10
ATOM     10  O   UNL     1       0.205  -1.611  -1.575  0.00  0.00    +0.000 OA
ATOM     11  H   UNL     1       0.924  -2.238  -1.300  0.00  0.00    +0.000 HD
ENDBRANCH   2  10
BRANCH   5  12
ATOM     12  O   UNL     1      -2.180   1.805   0.038  0.00  0.00    +0.000 OA
ATOM     13  H   UNL     1      -3.148   1.959  -0.115  0.00  0.00    +0.000 HD
ENDBRANCH   5  12
BRANCH   1  14
ATOM     14  O   UNL     1       1.498  -0.389   0.717  0.00  0.00    +0.000 OA
BRANCH  14  16
ATOM     15  C   UNL     1       3.740  -0.910   0.055  0.00  0.00    +0.000 C 
ATOM     16  C   UNL     1       2.548   0.025  -0.141  0.00  0.00    +0.000 C 
BRANCH  16  17
ATOM     17  C   UNL     1       2.949   1.439   0.174  0.00  0.00    +0.000 C 
ATOM     18  O   UNL     1       3.327   1.752   1.335  0.00  0.00    +0.000 OA
ATOM     19  O   UNL     1       2.899   2.412  -0.816  0.00  0.00    +0.000 OA
ENDBRANCH  16  17
ENDBRANCH  14  16
ENDBRANCH   1  14
BRANCH   3  20
ATOM     20  C   UNL     1      -2.692  -2.097  -1.322  0.00  0.00    +0.000 C 
BRANCH  20  21
ATOM     21  O   UNL     1      -2.191  -2.460  -2.581  0.00  0.00    +0.000 OA
ATOM     22  H   UNL     1      -2.532  -1.789  -3.228  0.00  0.00    +0.000 HD
ENDBRANCH  20  21
ENDBRANCH   3  20
TORSDOF 8
