REMARK  Name = 2733787
REMARK  10 active torsions:
REMARK  status: ('A' for Active; 'I' for Inactive)
REMARK    1  A    between atoms: O_2  and  C_3
REMARK    2  A    between atoms: C_3  and  C_45
REMARK    3  A    between atoms: N_4  and  C_5
REMARK    4  A    between atoms: C_7  and  O_9
REMARK    5  A    between atoms: O_9  and  C_10
REMARK    6  A    between atoms: C_16  and  C_17
REMARK    7  A    between atoms: C_30  and  C_32
REMARK    8  A    between atoms: C_32  and  O_35
REMARK    9  A    between atoms: C_37  and  O_39
REMARK   10  A    between atoms: C_41  and  O_43
REMARK                            x       y       z     vdW  Elec       q    Type
REMARK                         _______ _______ _______ _____ _____    ______ ____
ROOT
ATOM      1  C   UNL     1      -1.034  -2.510  -0.846  0.00  0.00    +0.000 C 
ATOM      2  C   UNL     1      -1.074  -1.124  -0.181  0.00  0.00    +0.000 C 
ATOM      3  O   UNL     1      -2.015  -1.120   0.877  0.00  0.00    +0.000 OA
ATOM      4  C   UNL     1      -3.330  -1.275   0.373  0.00  0.00    +0.000 C 
ATOM      5  C   UNL     1      -3.489  -2.676  -0.264  0.00  0.00    +0.000 C 
ATOM      6  C   UNL     1      -2.441  -2.865  -1.373  0.00  0.00    +0.000 C 
ENDROOT
BRANCH   1   8
ATOM      7  C   UNL     1       0.578  -3.521  -2.389  0.00  0.00    +0.000 C 
ATOM      8  N   UNL     1      -0.067  -2.483  -1.946  0.00  0.00    +0.000 NA
ATOM      9  C   UNL     1       1.543  -3.360  -3.518  0.00  0.00    +0.000 C 
BRANCH   7  11
ATOM     10  H   UNL     1       0.919  -5.582  -2.125  0.00  0.00    +0.000 HD
ATOM     11  O   UNL     1       0.407  -4.772  -1.796  0.00  0.00    +0.000 OA
ENDBRANCH   7  11
ENDBRANCH   1   8
BRANCH   5  12
ATOM     12  O   UNL     1      -4.771  -2.815  -0.824  0.00  0.00    +0.000 OA
ATOM     13  H   UNL     1      -5.340  -3.266  -0.147  0.00  0.00    +0.000 HD
ENDBRANCH   5  12
BRANCH   6  14
ATOM     14  O   UNL     1      -2.475  -4.200  -1.809  0.00  0.00    +0.000 OA
ATOM     15  H   UNL     1      -2.226  -4.200  -2.770  0.00  0.00    +0.000 HD
ENDBRANCH   6  14
BRANCH   2  16
ATOM     16  O   UNL     1       0.218  -0.829   0.348  0.00  0.00    +0.000 OA
BRANCH  16  17
ATOM     17  C   UNL     1       0.581   0.388   0.946  0.00  0.00    +0.000 A 
ATOM     18  C   UNL     1       1.880   0.515   1.448  0.00  0.00    +0.000 A 
ATOM     19  C   UNL     1       2.299   1.701   2.057  0.00  0.00    +0.000 A 
ATOM     20  C   UNL     1       1.415   2.791   2.174  0.00  0.00    +0.000 A 
ATOM     21  C   UNL     1       1.782   4.013   2.780  0.00  0.00    +0.000 A 
ATOM     22  C   UNL     1       3.159   4.240   3.351  0.00  0.00    +0.000 C 
ATOM     23  C   UNL     1       0.832   5.041   2.850  0.00  0.00    +0.000 A 
ATOM     24  C   UNL     1      -0.444   4.834   2.323  0.00  0.00    +0.000 A 
ATOM     25  O   UNL     1      -1.304   5.752   2.381  0.00  0.00    +0.000 OA
ATOM     26  O   UNL     1      -0.759   3.675   1.759  0.00  0.00    +0.000 OA
ATOM     27  C   UNL     1       0.100   2.665   1.665  0.00  0.00    +0.000 A 
ATOM     28  C   UNL     1      -0.308   1.473   1.056  0.00  0.00    +0.000 A 
ENDBRANCH  16  17
ENDBRANCH   2  16
BRANCH   4  29
ATOM     29  C   UNL     1      -4.320  -1.079   1.530  0.00  0.00    +0.000 C 
BRANCH  29  30
ATOM     30  O   UNL     1      -4.185   0.207   2.075  0.00  0.00    +0.000 OA
ATOM     31  H   UNL     1      -3.413   0.175   2.699  0.00  0.00    +0.000 HD
ENDBRANCH  29  30
ENDBRANCH   4  29
TORSDOF 8
