REMARK  Name = 441038
REMARK  9 active torsions:
REMARK  status: ('A' for Active; 'I' for Inactive)
REMARK    1  A    between atoms: C_1  and  C_2
REMARK    2  A    between atoms: C_2  and  O_3
REMARK    3  A    between atoms: C_2  and  C_15
REMARK    4  A    between atoms: O_3  and  C_4
REMARK    5  A    between atoms: C_5  and  O_6
REMARK    6  A    between atoms: C_7  and  C_8
REMARK    7  A    between atoms: C_8  and  O_9
REMARK    8  A    between atoms: C_11  and  O_12
REMARK    9  A    between atoms: C_13  and  N_14
REMARK                            x       y       z     vdW  Elec       q    Type
REMARK                         _______ _______ _______ _____ _____    ______ ____
ROOT
ATOM      1  C   UNL     1       0.223   1.351  -0.183  0.00  0.00    +0.000 C 
ATOM      2  C   UNL     1       1.454   0.424  -0.227  0.00  0.00    +0.000 C 
ATOM      3  C   UNL     1       1.371  -0.607  -1.384  0.00  0.00    +0.000 C 
ATOM      4  O   UNL     1       1.032  -0.031  -2.642  0.00  0.00    +0.000 OA
ATOM      5  C   UNL     1      -0.143   0.769  -2.624  0.00  0.00    +0.000 C 
ATOM      6  C   UNL     1      -0.071   1.912  -1.586  0.00  0.00    +0.000 C 
ENDROOT
BRANCH   6   7
ATOM      7  N   UNL     1       0.956   2.883  -1.980  0.00  0.00    +0.000 NA
ATOM      8  H   UNL     1       0.936   3.680  -1.303  0.00  0.00    +0.000 HD
ATOM      9  H   UNL     1       0.687   3.293  -2.904  0.00  0.00    +0.000 HD
ENDBRANCH   6   7
BRANCH   2  10
ATOM     10  O   UNL     1       2.611   1.209  -0.376  0.00  0.00    +0.000 OA
ATOM     11  H   UNL     1       3.377   0.661  -0.061  0.00  0.00    +0.000 HD
ENDBRANCH   2  10
BRANCH   5  12
ATOM     12  O   UNL     1      -1.287  -0.026  -2.440  0.00  0.00    +0.000 OA
ATOM     13  H   UNL     1      -2.070   0.527  -2.698  0.00  0.00    +0.000 HD
ENDBRANCH   5  12
BRANCH   1  14
ATOM     14  O   UNL     1      -0.917   0.637   0.273  0.00  0.00    +0.000 OA
BRANCH  14  16
ATOM     15  C   UNL     1      -1.818  -0.492   2.179  0.00  0.00    +0.000 C 
ATOM     16  C   UNL     1      -1.087   0.749   1.676  0.00  0.00    +0.000 C 
BRANCH  16  17
ATOM     17  C   UNL     1      -1.890   1.976   2.002  0.00  0.00    +0.000 C 
ATOM     18  O   UNL     1      -2.889   2.290   1.301  0.00  0.00    +0.000 OA
ATOM     19  O   UNL     1      -1.555   2.752   3.105  0.00  0.00    +0.000 OA
ENDBRANCH  16  17
ENDBRANCH  14  16
ENDBRANCH   1  14
BRANCH   3  20
ATOM     20  C   UNL     1       0.528  -1.853  -1.039  0.00  0.00    +0.000 C 
BRANCH  20  21
ATOM     21  O   UNL     1       0.561  -2.775  -2.095  0.00  0.00    +0.000 OA
ATOM     22  H   UNL     1      -0.119  -2.479  -2.754  0.00  0.00    +0.000 HD
ENDBRANCH  20  21
ENDBRANCH   3  20
TORSDOF 8
