REMARK  Name = 6323218
REMARK  10 active torsions:
REMARK  status: ('A' for Active; 'I' for Inactive)
REMARK    1  A    between atoms: C_1  and  C_2
REMARK    2  A    between atoms: N_4  and  C_5
REMARK    3  A    between atoms: C_6  and  O_7
REMARK    4  A    between atoms: C_9  and  C_10
REMARK    5  A    between atoms: C_10  and  O_11
REMARK    6  A    between atoms: C_12  and  O_13
REMARK    7  A    between atoms: C_14  and  O_15
REMARK    8  A    between atoms: O_15  and  C_16
REMARK    9  A    between atoms: C_16  and  C_17
REMARK   10  A    between atoms: C_16  and  C_18
REMARK                            x       y       z     vdW  Elec       q    Type
REMARK                         _______ _______ _______ _____ _____    ______ ____
ROOT
ATOM      1  C   UNL     1      -0.443   0.261  -0.571  0.00  0.00    +0.000 C 
ATOM      2  C   UNL     1      -0.637  -0.531  -1.879  0.00  0.00    +0.000 C 
ATOM      3  O   UNL     1       0.595  -0.708  -2.560  0.00  0.00    +0.000 OA
ATOM      4  C   UNL     1       1.530  -1.472  -1.809  0.00  0.00    +0.000 C 
ATOM      5  C   UNL     1       1.830  -0.851  -0.416  0.00  0.00    +0.000 C 
ATOM      6  C   UNL     1       0.541  -0.483   0.352  0.00  0.00    +0.000 C 
ENDROOT
BRANCH   1  10
ATOM      7  C   UNL     1       0.466   4.038  -0.213  0.00  0.00    +0.000 C 
ATOM      8  C   UNL     1      -0.068   2.682   0.114  0.00  0.00    +0.000 C 
ATOM      9  O   UNL     1      -0.630   2.485   1.225  0.00  0.00    +0.000 OA
ATOM     10  N   UNL     1       0.032   1.623  -0.849  0.00  0.00    +0.000 N 
ATOM     11  H   UNL     1       0.439   1.848  -1.786  0.00  0.00    +0.000 HD
ENDBRANCH   1  10
BRANCH   2  12
ATOM     12  O   UNL     1      -1.519   0.175  -2.710  0.00  0.00    +0.000 OA
ATOM     13  H   UNL     1      -1.694  -0.407  -3.495  0.00  0.00    +0.000 HD
ENDBRANCH   2  12
BRANCH   5  14
ATOM     14  O   UNL     1       2.607   0.310  -0.578  0.00  0.00    +0.000 OA
ATOM     15  H   UNL     1       3.539   0.014  -0.753  0.00  0.00    +0.000 HD
ENDBRANCH   5  14
BRANCH   4  16
ATOM     16  C   UNL     1       1.162  -2.973  -1.765  0.00  0.00    +0.000 C 
BRANCH  16  17
ATOM     17  O   UNL     1       2.245  -3.735  -1.302  0.00  0.00    +0.000 OA
ATOM     18  H   UNL     1       2.884  -3.812  -2.058  0.00  0.00    +0.000 HD
ENDBRANCH  16  17
ENDBRANCH   4  16
BRANCH   6  19
ATOM     19  O   UNL     1      -0.094  -1.657   0.839  0.00  0.00    +0.000 OA
BRANCH  19  20
ATOM     20  C   UNL     1       0.307  -1.965   2.163  0.00  0.00    +0.000 C 
ATOM     21  C   UNL     1       0.161  -3.469   2.378  0.00  0.00    +0.000 C 
BRANCH  20  22
ATOM     22  C   UNL     1      -0.552  -1.226   3.149  0.00  0.00    +0.000 C 
ATOM     23  O   UNL     1      -1.794  -1.124   2.962  0.00  0.00    +0.000 OA
ATOM     24  O   UNL     1       0.017  -0.681   4.293  0.00  0.00    +0.000 OA
ENDBRANCH  20  22
ENDBRANCH  19  20
ENDBRANCH   6  19
TORSDOF 8
