REMARK  Name = 4282259
REMARK  8 active torsions:
REMARK  status: ('A' for Active; 'I' for Inactive)
REMARK    1  A    between atoms: C_1  and  C_2
REMARK    2  A    between atoms: N_4  and  C_5
REMARK    3  A    between atoms: C_6  and  O_7
REMARK    4  A    between atoms: O_7  and  C_8
REMARK    5  A    between atoms: C_15  and  C_16
REMARK    6  A    between atoms: C_16  and  O_17
REMARK    7  A    between atoms: C_18  and  O_19
REMARK    8  A    between atoms: C_20  and  O_21
REMARK                            x       y       z     vdW  Elec       q    Type
REMARK                         _______ _______ _______ _____ _____    ______ ____
ROOT
ATOM      1  C   UNL     1       1.602  -1.916   0.181  0.00  0.00    +0.000 C 
ATOM      2  C   UNL     1       0.504  -0.829   0.181  0.00  0.00    +0.000 C 
ATOM      3  O   UNL     1       0.729   0.141  -0.833  0.00  0.00    +0.000 OA
ATOM      4  C   UNL     1       1.950   0.833  -0.629  0.00  0.00    +0.000 C 
ATOM      5  C   UNL     1       3.152  -0.134  -0.755  0.00  0.00    +0.000 C 
ATOM      6  C   UNL     1       3.006  -1.279   0.266  0.00  0.00    +0.000 C 
ENDROOT
BRANCH   1  10
ATOM      7  C   UNL     1       1.979  -4.832  -2.384  0.00  0.00    +0.000 C 
ATOM      8  C   UNL     1       2.090  -4.051  -1.116  0.00  0.00    +0.000 C 
ATOM      9  O   UNL     1       2.724  -4.534  -0.139  0.00  0.00    +0.000 OA
ATOM     10  N   UNL     1       1.489  -2.752  -1.022  0.00  0.00    +0.000 N 
ATOM     11  H   UNL     1       0.931  -2.408  -1.838  0.00  0.00    +0.000 HD
ENDBRANCH   1  10
BRANCH   5  12
ATOM     12  O   UNL     1       3.216  -0.674  -2.052  0.00  0.00    +0.000 OA
ATOM     13  H   UNL     1       3.816  -0.090  -2.586  0.00  0.00    +0.000 HD
ENDBRANCH   5  12
BRANCH   6  14
ATOM     14  O   UNL     1       3.216  -0.794   1.569  0.00  0.00    +0.000 OA
ATOM     15  H   UNL     1       4.194  -0.657   1.672  0.00  0.00    +0.000 HD
ENDBRANCH   6  14
BRANCH   2  16
ATOM     16  O   UNL     1       0.403  -0.222   1.474  0.00  0.00    +0.000 OA
BRANCH  16  17
ATOM     17  C   UNL     1      -0.576   0.711   1.851  0.00  0.00    +0.000 A 
ATOM     18  C   UNL     1      -1.614   1.114   0.987  0.00  0.00    +0.000 A 
ATOM     19  C   UNL     1      -2.561   2.050   1.415  0.00  0.00    +0.000 A 
ATOM     20  C   UNL     1      -2.482   2.590   2.701  0.00  0.00    +0.000 A 
ATOM     21  C   UNL     1      -1.456   2.194   3.562  0.00  0.00    +0.000 A 
ATOM     22  C   UNL     1      -0.508   1.258   3.139  0.00  0.00    +0.000 A 
ENDBRANCH  16  17
ENDBRANCH   2  16
BRANCH   4  23
ATOM     23  C   UNL     1       2.031   1.985  -1.642  0.00  0.00    +0.000 C 
BRANCH  23  24
ATOM     24  O   UNL     1       3.214   2.720  -1.477  0.00  0.00    +0.000 OA
ATOM     25  H   UNL     1       3.092   3.276  -0.664  0.00  0.00    +0.000 HD
ENDBRANCH  23  24
ENDBRANCH   4  23
TORSDOF 7
