REMARK  Name = 440049
REMARK  6 active torsions:
REMARK  status: ('A' for Active; 'I' for Inactive)
REMARK    1  A    between atoms: N_1  and  C_2
REMARK    2  A    between atoms: C_3  and  O_4
REMARK    3  A    between atoms: C_6  and  C_7
REMARK    4  A    between atoms: C_7  and  O_8
REMARK    5  A    between atoms: C_9  and  O_10
REMARK    6  A    between atoms: C_11  and  O_12
REMARK                            x       y       z     vdW  Elec       q    Type
REMARK                         _______ _______ _______ _____ _____    ______ ____
ROOT
ATOM      1  C   UNL     1      -0.778   0.369  -0.259  0.00  0.00    +0.000 C 
ATOM      2  C   UNL     1      -0.261  -1.049   0.085  0.00  0.00    +0.000 C 
ATOM      3  O   UNL     1       1.050  -0.979   0.619  0.00  0.00    +0.000 OA
ATOM      4  C   UNL     1       1.968  -0.529  -0.365  0.00  0.00    +0.000 C 
ATOM      5  C   UNL     1       1.650   0.928  -0.792  0.00  0.00    +0.000 C 
ATOM      6  C   UNL     1       0.193   1.021  -1.275  0.00  0.00    +0.000 C 
ENDROOT
BRANCH   1   7
ATOM      7  N   UNL     1      -0.938   1.188   0.956  0.00  0.00    +0.000 N 
ATOM      8  H   UNL     1      -1.666   0.762   1.575  0.00  0.00    +0.000 HD
ATOM      9  H   UNL     1      -0.043   1.256   1.490  0.00  0.00    +0.000 HD
ATOM     10  H   UNL     1      -1.265   2.148   0.706  0.00  0.00    +0.000 HD
ENDBRANCH   1   7
BRANCH   2  11
ATOM     11  O   UNL     1      -1.096  -1.655   1.036  0.00  0.00    +0.000 OA
ATOM     12  H   UNL     1      -1.944  -1.883   0.571  0.00  0.00    +0.000 HD
ENDBRANCH   2  11
BRANCH   5  13
ATOM     13  O   UNL     1       2.499   1.320  -1.842  0.00  0.00    +0.000 OA
ATOM     14  H   UNL     1       3.281   1.774  -1.433  0.00  0.00    +0.000 HD
ENDBRANCH   5  13
BRANCH   6  15
ATOM     15  O   UNL     1      -0.143   2.365  -1.506  0.00  0.00    +0.000 OA
ATOM     16  H   UNL     1      -0.984   2.362  -2.033  0.00  0.00    +0.000 HD
ENDBRANCH   6  15
BRANCH   4  17
ATOM     17  C   UNL     1       3.387  -0.653   0.205  0.00  0.00    +0.000 C 
BRANCH  17  18
ATOM     18  O   UNL     1       3.524   0.137   1.354  0.00  0.00    +0.000 OA
ATOM     19  H   UNL     1       4.459   0.012   1.664  0.00  0.00    +0.000 HD
ENDBRANCH  17  18
ENDBRANCH   4  17
TORSDOF 6
