REMARK  Name = 91820057
REMARK  9 active torsions:
REMARK  status: ('A' for Active; 'I' for Inactive)
REMARK    1  A    between atoms: O_2  and  C_3
REMARK    2  A    between atoms: C_3  and  C_30
REMARK    3  A    between atoms: N_4  and  C_5
REMARK    4  A    between atoms: C_7  and  O_9
REMARK    5  A    between atoms: C_12  and  C_14
REMARK    6  A    between atoms: C_14  and  O_17
REMARK    7  A    between atoms: O_17  and  S_18
REMARK    8  A    between atoms: C_22  and  O_24
REMARK    9  A    between atoms: C_26  and  O_28
REMARK                            x       y       z     vdW  Elec       q    Type
REMARK                         _______ _______ _______ _____ _____    ______ ____
ROOT
ATOM      1  C   UNL     1       0.390  -1.636   0.285  0.00  0.00    +0.000 C 
ATOM      2  C   UNL     1      -0.395  -0.933   1.417  0.00  0.00    +0.000 C 
ATOM      3  O   UNL     1      -0.909   0.323   0.993  0.00  0.00    +0.000 OA
ATOM      4  C   UNL     1       0.131   1.213   0.618  0.00  0.00    +0.000 C 
ATOM      5  C   UNL     1       0.899   0.667  -0.607  0.00  0.00    +0.000 C 
ATOM      6  C   UNL     1       1.492  -0.707  -0.256  0.00  0.00    +0.000 C 
ENDROOT
BRANCH   1   8
ATOM      7  C   UNL     1       0.337  -3.978   0.990  0.00  0.00    +0.000 C 
ATOM      8  N   UNL     1       0.994  -2.878   0.773  0.00  0.00    +0.000 NA
ATOM      9  C   UNL     1       1.067  -5.185   1.485  0.00  0.00    +0.000 C 
BRANCH   7  11
ATOM     10  H   UNL     1      -1.547  -4.912   0.879  0.00  0.00    +0.000 HD
ATOM     11  O   UNL     1      -1.031  -4.053   0.730  0.00  0.00    +0.000 OA
ENDBRANCH   7  11
ENDBRANCH   1   8
BRANCH   2  12
ATOM     12  O   UNL     1       0.402  -0.794   2.567  0.00  0.00    +0.000 OA
ATOM     13  H   UNL     1      -0.194  -0.444   3.280  0.00  0.00    +0.000 HD
ENDBRANCH   2  12
BRANCH   5  14
ATOM     14  O   UNL     1       0.026   0.555  -1.706  0.00  0.00    +0.000 OA
ATOM     15  H   UNL     1       0.585   0.600  -2.525  0.00  0.00    +0.000 HD
ENDBRANCH   5  14
BRANCH   6  16
ATOM     16  O   UNL     1       2.087  -1.268  -1.399  0.00  0.00    +0.000 OA
ATOM     17  H   UNL     1       2.737  -1.949  -1.083  0.00  0.00    +0.000 HD
ENDBRANCH   6  16
BRANCH   4  18
ATOM     18  C   UNL     1      -0.484   2.589   0.330  0.00  0.00    +0.000 C 
BRANCH  18  19
ATOM     19  O   UNL     1       0.536   3.516   0.039  0.00  0.00    +0.000 OA
BRANCH  19  20
ATOM     20  S   UNL     1      -0.179   5.008  -0.326  0.00  0.00    +0.000 S 
ATOM     21  O   UNL     1      -1.040   4.888  -1.552  0.00  0.00    +0.000 OA
ATOM     22  O   UNL     1      -1.009   5.489   0.832  0.00  0.00    +0.000 OA
ATOM     23  O   UNL     1       1.036   6.128  -0.624  0.00  0.00    +0.000 OA
ENDBRANCH  19  20
ENDBRANCH  18  19
ENDBRANCH   4  18
TORSDOF 8
