REMARK  Name = 11096158
REMARK  8 active torsions:
REMARK  status: ('A' for Active; 'I' for Inactive)
REMARK    1  A    between atoms: O_2  and  C_3
REMARK    2  A    between atoms: C_3  and  C_27
REMARK    3  A    between atoms: N_4  and  C_5
REMARK    4  A    between atoms: C_7  and  O_9
REMARK    5  A    between atoms: C_12  and  C_14
REMARK    6  A    between atoms: C_14  and  O_17
REMARK    7  A    between atoms: C_19  and  O_21
REMARK    8  A    between atoms: C_23  and  O_25
REMARK                            x       y       z     vdW  Elec       q    Type
REMARK                         _______ _______ _______ _____ _____    ______ ____
ROOT
ATOM      1  C   UNL     1      -0.760  -1.329  -0.042  0.00  0.00    +0.000 C 
ATOM      2  C   UNL     1       0.348  -1.763  -1.024  0.00  0.00    +0.000 C 
ATOM      3  O   UNL     1       1.453  -0.879  -0.945  0.00  0.00    +0.000 OA
ATOM      4  C   UNL     1       1.095   0.415  -1.403  0.00  0.00    +0.000 C 
ATOM      5  C   UNL     1       0.013   1.040  -0.483  0.00  0.00    +0.000 C 
ATOM      6  C   UNL     1      -1.209   0.106  -0.397  0.00  0.00    +0.000 C 
ENDROOT
BRANCH   1   8
ATOM      7  C   UNL     1      -0.972  -1.577   2.389  0.00  0.00    +0.000 C 
ATOM      8  N   UNL     1      -0.243  -1.394   1.329  0.00  0.00    +0.000 NA
ATOM      9  C   UNL     1      -0.318  -1.623   3.732  0.00  0.00    +0.000 C 
BRANCH   7  11
ATOM     10  H   UNL     1      -2.922  -1.930   3.101  0.00  0.00    +0.000 HD
ATOM     11  O   UNL     1      -2.349  -1.769   2.281  0.00  0.00    +0.000 OA
ENDBRANCH   7  11
ENDBRANCH   1   8
BRANCH   2  12
ATOM     12  O   UNL     1       0.790  -3.054  -0.699  0.00  0.00    +0.000 OA
ATOM     13  H   UNL     1       0.075  -3.684  -0.980  0.00  0.00    +0.000 HD
ENDBRANCH   2  12
BRANCH   5  14
ATOM     14  O   UNL     1      -0.372   2.315  -0.938  0.00  0.00    +0.000 OA
ATOM     15  H   UNL     1      -0.724   2.213  -1.861  0.00  0.00    +0.000 HD
ENDBRANCH   5  14
BRANCH   6  16
ATOM     16  O   UNL     1      -2.113   0.601   0.556  0.00  0.00    +0.000 OA
ATOM     17  H   UNL     1      -2.985   0.162   0.377  0.00  0.00    +0.000 HD
ENDBRANCH   6  16
BRANCH   4  18
ATOM     18  C   UNL     1       2.358   1.284  -1.450  0.00  0.00    +0.000 C 
BRANCH  18  19
ATOM     19  O   UNL     1       2.945   1.364  -0.180  0.00  0.00    +0.000 OA
ATOM     20  H   UNL     1       3.748   1.938  -0.283  0.00  0.00    +0.000 HD
ENDBRANCH  18  19
ENDBRANCH   4  18
TORSDOF 7
