REMARK  Name = 118328
REMARK  10 active torsions:
REMARK  status: ('A' for Active; 'I' for Inactive)
REMARK    1  A    between atoms: O_2  and  C_3
REMARK    2  A    between atoms: C_3  and  C_45
REMARK    3  A    between atoms: N_4  and  C_5
REMARK    4  A    between atoms: C_7  and  O_9
REMARK    5  A    between atoms: C_11  and  O_13
REMARK    6  A    between atoms: C_15  and  C_17
REMARK    7  A    between atoms: C_17  and  O_20
REMARK    8  A    between atoms: C_23  and  O_25
REMARK    9  A    between atoms: O_25  and  C_26
REMARK   10  A    between atoms: C_32  and  C_33
REMARK                            x       y       z     vdW  Elec       q    Type
REMARK                         _______ _______ _______ _____ _____    ______ ____
ROOT
ATOM      1  C   UNL     1      -0.022   0.187   1.926  0.00  0.00    +0.000 C 
ATOM      2  C   UNL     1       0.729  -0.474   3.093  0.00  0.00    +0.000 C 
ATOM      3  C   UNL     1       1.405   0.598   3.964  0.00  0.00    +0.000 C 
ATOM      4  C   UNL     1       2.234   1.580   3.095  0.00  0.00    +0.000 C 
ATOM      5  O   UNL     1       1.461   2.116   2.028  0.00  0.00    +0.000 OA
ATOM      6  C   UNL     1       0.948   1.117   1.159  0.00  0.00    +0.000 C 
ENDROOT
BRANCH   1   8
ATOM      7  C   UNL     1      -1.728  -0.920   0.503  0.00  0.00    +0.000 C 
ATOM      8  N   UNL     1      -0.544  -0.864   1.046  0.00  0.00    +0.000 NA
ATOM      9  C   UNL     1      -2.776   0.132   0.746  0.00  0.00    +0.000 C 
BRANCH   7  11
ATOM     10  H   UNL     1      -2.930  -2.100  -0.765  0.00  0.00    +0.000 HD
ATOM     11  O   UNL     1      -2.026  -2.004  -0.318  0.00  0.00    +0.000 OA
ENDBRANCH   7  11
ENDBRANCH   1   8
BRANCH   2  12
ATOM     12  O   UNL     1      -0.140  -1.268   3.865  0.00  0.00    +0.000 OA
ATOM     13  H   UNL     1      -0.856  -0.678   4.221  0.00  0.00    +0.000 HD
ENDBRANCH   2  12
BRANCH   3  14
ATOM     14  O   UNL     1       2.206  -0.022   4.936  0.00  0.00    +0.000 OA
ATOM     15  H   UNL     1       2.400   0.665   5.626  0.00  0.00    +0.000 HD
ENDBRANCH   3  14
BRANCH   4  16
ATOM     16  C   UNL     1       3.590   1.021   2.606  0.00  0.00    +0.000 C 
BRANCH  16  17
ATOM     17  O   UNL     1       4.505   0.979   3.667  0.00  0.00    +0.000 OA
ATOM     18  H   UNL     1       5.350   0.622   3.290  0.00  0.00    +0.000 HD
ENDBRANCH  16  17
ENDBRANCH   4  16
BRANCH   6  19
ATOM     19  O   UNL     1       0.252   1.788   0.105  0.00  0.00    +0.000 OA
BRANCH  19  20
ATOM     20  C   UNL     1       0.026   1.308  -1.198  0.00  0.00    +0.000 A 
ATOM     21  C   UNL     1      -0.793   2.071  -2.037  0.00  0.00    +0.000 A 
ATOM     22  C   UNL     1      -1.080   1.650  -3.338  0.00  0.00    +0.000 A 
ATOM     23  C   UNL     1      -0.543   0.446  -3.829  0.00  0.00    +0.000 A 
ATOM     24  C   UNL     1      -0.804  -0.033  -5.133  0.00  0.00    +0.000 A 
ATOM     25  C   UNL     1      -1.683   0.719  -6.100  0.00  0.00    +0.000 C 
ATOM     26  C   UNL     1      -0.225  -1.245  -5.533  0.00  0.00    +0.000 A 
ATOM     27  C   UNL     1       0.589  -1.944  -4.639  0.00  0.00    +0.000 A 
ATOM     28  O   UNL     1       1.114  -3.034  -4.989  0.00  0.00    +0.000 OA
ATOM     29  O   UNL     1       0.816  -1.468  -3.421  0.00  0.00    +0.000 OA
ATOM     30  C   UNL     1       0.293  -0.325  -2.987  0.00  0.00    +0.000 A 
ATOM     31  C   UNL     1       0.577   0.107  -1.688  0.00  0.00    +0.000 A 
ENDBRANCH  19  20
ENDBRANCH   6  19
TORSDOF 8
