REMARK  Name = 57339292
REMARK  10 active torsions:
REMARK  status: ('A' for Active; 'I' for Inactive)
REMARK    1  A    between atoms: N_1  and  C_2
REMARK    2  A    between atoms: C_3  and  O_4
REMARK    3  A    between atoms: O_4  and  C_5
REMARK    4  A    between atoms: C_5  and  C_6
REMARK    5  A    between atoms: C_5  and  C_10
REMARK    6  A    between atoms: C_6  and  C_7
REMARK    7  A    between atoms: C_14  and  C_15
REMARK    8  A    between atoms: C_15  and  O_16
REMARK    9  A    between atoms: C_17  and  O_18
REMARK   10  A    between atoms: C_19  and  O_20
REMARK                            x       y       z     vdW  Elec       q    Type
REMARK                         _______ _______ _______ _____ _____    ______ ____
ROOT
ATOM      1  C   UNL     1       0.659   0.365   1.295  0.00  0.00    +0.000 C 
ATOM      2  C   UNL     1       0.925  -0.327  -0.062  0.00  0.00    +0.000 C 
ATOM      3  O   UNL     1       1.105   0.635  -1.093  0.00  0.00    +0.000 OA
ATOM      4  C   UNL     1      -0.059   1.425  -1.284  0.00  0.00    +0.000 C 
ATOM      5  C   UNL     1      -0.374   2.252  -0.018  0.00  0.00    +0.000 C 
ATOM      6  C   UNL     1      -0.555   1.310   1.184  0.00  0.00    +0.000 C 
ENDROOT
BRANCH   1   7
ATOM      7  N   UNL     1       0.466  -0.628   2.361  0.00  0.00    +0.000 N 
ATOM      8  H   UNL     1       0.409  -0.149   3.288  0.00  0.00    +0.000 HD
ATOM      9  H   UNL     1       1.281  -1.282   2.389  0.00  0.00    +0.000 HD
ATOM     10  H   UNL     1      -0.411  -1.177   2.205  0.00  0.00    +0.000 HD
ENDBRANCH   1   7
BRANCH   5  11
ATOM     11  O   UNL     1      -1.552   2.992  -0.218  0.00  0.00    +0.000 OA
ATOM     12  H   UNL     1      -1.533   3.744   0.429  0.00  0.00    +0.000 HD
ENDBRANCH   5  11
BRANCH   6  13
ATOM     13  O   UNL     1      -0.674   2.080   2.354  0.00  0.00    +0.000 OA
ATOM     14  H   UNL     1      -1.273   1.584   2.970  0.00  0.00    +0.000 HD
ENDBRANCH   6  13
BRANCH   2  15
ATOM     15  O   UNL     1      -0.120  -1.236  -0.376  0.00  0.00    +0.000 OA
BRANCH  15  16
ATOM     16  C   UNL     1       0.234  -2.089  -1.456  0.00  0.00    +0.000 C 
BRANCH  16  17
ATOM     17  C   UNL     1      -0.761  -1.906  -2.564  0.00  0.00    +0.000 C 
ATOM     18  O   UNL     1      -1.994  -1.847  -2.311  0.00  0.00    +0.000 OA
ATOM     19  O   UNL     1      -0.329  -1.837  -3.882  0.00  0.00    +0.000 OA
ENDBRANCH  16  17
BRANCH  16  20
ATOM     20  C   UNL     1       0.208  -3.550  -0.985  0.00  0.00    +0.000 C 
BRANCH  20  21
ATOM     21  C   UNL     1       1.253  -3.798   0.058  0.00  0.00    +0.000 C 
ATOM     22  O   UNL     1       0.932  -3.869   1.274  0.00  0.00    +0.000 OA
ATOM     23  O   UNL     1       2.587  -3.920  -0.309  0.00  0.00    +0.000 OA
ENDBRANCH  20  21
ENDBRANCH  16  20
ENDBRANCH  15  16
ENDBRANCH   2  15
BRANCH   4  24
ATOM     24  C   UNL     1       0.176   2.345  -2.491  0.00  0.00    +0.000 C 
BRANCH  24  25
ATOM     25  O   UNL     1       0.472   1.588  -3.633  0.00  0.00    +0.000 OA
ATOM     26  H   UNL     1      -0.384   1.192  -3.942  0.00  0.00    +0.000 HD
ENDBRANCH  24  25
ENDBRANCH   4  24
TORSDOF 10
