REMARK  Name = 193108
REMARK  8 active torsions:
REMARK  status: ('A' for Active; 'I' for Inactive)
REMARK    1  A    between atoms: O_2  and  C_3
REMARK    2  A    between atoms: C_3  and  C_27
REMARK    3  A    between atoms: N_4  and  C_5
REMARK    4  A    between atoms: C_7  and  O_9
REMARK    5  A    between atoms: C_12  and  C_14
REMARK    6  A    between atoms: C_14  and  O_17
REMARK    7  A    between atoms: C_19  and  O_21
REMARK    8  A    between atoms: C_23  and  O_25
REMARK                            x       y       z     vdW  Elec       q    Type
REMARK                         _______ _______ _______ _____ _____    ______ ____
ROOT
ATOM      1  C   UNL     1      -1.246   0.165   0.980  0.00  0.00    +0.000 C 
ATOM      2  C   UNL     1      -1.978  -0.410  -0.254  0.00  0.00    +0.000 C 
ATOM      3  O   UNL     1      -1.129  -1.274  -0.996  0.00  0.00    +0.000 OA
ATOM      4  C   UNL     1      -0.045  -0.546  -1.549  0.00  0.00    +0.000 C 
ATOM      5  C   UNL     1       0.866   0.023  -0.431  0.00  0.00    +0.000 C 
ATOM      6  C   UNL     1       0.035   0.900   0.527  0.00  0.00    +0.000 C 
ENDROOT
BRANCH   1   8
ATOM      7  C   UNL     1      -2.277   1.265   2.956  0.00  0.00    +0.000 C 
ATOM      8  N   UNL     1      -2.142   1.099   1.669  0.00  0.00    +0.000 NA
BRANCH   7  10
ATOM      9  H   UNL     1      -3.723   2.782   2.778  0.00  0.00    +0.000 HD
ATOM     10  O   UNL     1      -3.184   2.213   3.421  0.00  0.00    +0.000 OA
ENDBRANCH   7  10
BRANCH   7  11
ATOM     11  C   UNL     1      -1.530   0.446   3.970  0.00  0.00    +0.000 C 
ATOM     12 BR   UNL     1      -2.408  -1.263   4.215  0.00  0.00    +0.000 Br
ENDBRANCH   7  11
ENDBRANCH   1   8
BRANCH   2  13
ATOM     13  O   UNL     1      -3.117  -1.121   0.154  0.00  0.00    +0.000 OA
ATOM     14  H   UNL     1      -2.802  -1.937   0.624  0.00  0.00    +0.000 HD
ENDBRANCH   2  13
BRANCH   5  15
ATOM     15  O   UNL     1       1.548  -0.992   0.269  0.00  0.00    +0.000 OA
ATOM     16  H   UNL     1       0.876  -1.628   0.625  0.00  0.00    +0.000 HD
ENDBRANCH   5  15
BRANCH   6  17
ATOM     17  O   UNL     1       0.822   1.256   1.635  0.00  0.00    +0.000 OA
ATOM     18  H   UNL     1       0.448   2.101   1.997  0.00  0.00    +0.000 HD
ENDBRANCH   6  17
BRANCH   4  19
ATOM     19  C   UNL     1       0.729  -1.444  -2.524  0.00  0.00    +0.000 C 
BRANCH  19  20
ATOM     20  O   UNL     1       1.092  -2.649  -1.909  0.00  0.00    +0.000 OA
ATOM     21  H   UNL     1       1.592  -3.167  -2.591  0.00  0.00    +0.000 HD
ENDBRANCH  19  20
ENDBRANCH   4  19
TORSDOF 8
