REMARK  Name = 82398
REMARK  9 active torsions:
REMARK  status: ('A' for Active; 'I' for Inactive)
REMARK    1  A    between atoms: C_1  and  C_2
REMARK    2  A    between atoms: N_4  and  C_5
REMARK    3  A    between atoms: C_6  and  O_7
REMARK    4  A    between atoms: O_7  and  C_8
REMARK    5  A    between atoms: C_11  and  N_12
REMARK    6  A    between atoms: C_18  and  C_19
REMARK    7  A    between atoms: C_19  and  O_20
REMARK    8  A    between atoms: C_21  and  O_22
REMARK    9  A    between atoms: C_23  and  O_24
REMARK                            x       y       z     vdW  Elec       q    Type
REMARK                         _______ _______ _______ _____ _____    ______ ____
ROOT
ATOM      1  C   UNL     1      -0.909  -0.070   0.247  0.00  0.00    +0.000 C 
ATOM      2  C   UNL     1       0.362  -0.875  -0.107  0.00  0.00    +0.000 C 
ATOM      3  O   UNL     1       0.378  -2.116   0.577  0.00  0.00    +0.000 OA
ATOM      4  C   UNL     1      -0.700  -2.966   0.204  0.00  0.00    +0.000 C 
ATOM      5  C   UNL     1      -2.086  -2.312   0.446  0.00  0.00    +0.000 C 
ATOM      6  C   UNL     1      -2.162  -0.879  -0.130  0.00  0.00    +0.000 C 
ENDROOT
BRANCH   1  10
ATOM      7  C   UNL     1      -1.743   1.607   3.670  0.00  0.00    +0.000 C 
ATOM      8  C   UNL     1      -1.755   1.318   2.205  0.00  0.00    +0.000 C 
ATOM      9  O   UNL     1      -2.475   2.014   1.438  0.00  0.00    +0.000 OA
ATOM     10  N   UNL     1      -0.925   0.275   1.675  0.00  0.00    +0.000 N 
ATOM     11  H   UNL     1      -0.289  -0.228   2.336  0.00  0.00    +0.000 HD
ENDBRANCH   1  10
BRANCH   5  12
ATOM     12  O   UNL     1      -2.330  -2.277   1.830  0.00  0.00    +0.000 OA
ATOM     13  H   UNL     1      -3.306  -2.138   1.950  0.00  0.00    +0.000 HD
ENDBRANCH   5  12
BRANCH   6  14
ATOM     14  O   UNL     1      -2.288  -0.916  -1.528  0.00  0.00    +0.000 OA
ATOM     15  H   UNL     1      -3.216  -1.207  -1.728  0.00  0.00    +0.000 HD
ENDBRANCH   6  14
BRANCH   2  16
ATOM     16  O   UNL     1       1.523  -0.141   0.289  0.00  0.00    +0.000 OA
BRANCH  16  17
ATOM     17  C   UNL     1       2.031   1.007  -0.343  0.00  0.00    +0.000 A 
ATOM     18  C   UNL     1       1.535   1.491  -1.568  0.00  0.00    +0.000 A 
ATOM     19  C   UNL     1       2.081   2.640  -2.147  0.00  0.00    +0.000 A 
ATOM     20  C   UNL     1       3.134   3.327  -1.517  0.00  0.00    +0.000 A 
ATOM     21  C   UNL     1       3.630   2.837  -0.297  0.00  0.00    +0.000 A 
ATOM     22  C   UNL     1       3.083   1.687   0.280  0.00  0.00    +0.000 A 
BRANCH  20  23
ATOM     23  N   UNL     1       3.699   4.511  -2.110  0.00  0.00    +0.000 N 
ATOM     24  O   UNL     1       3.262   4.951  -3.193  0.00  0.00    +0.000 OA
ATOM     25  O   UNL     1       4.730   5.179  -1.490  0.00  0.00    +0.000 OA
ENDBRANCH  20  23
ENDBRANCH  16  17
ENDBRANCH   2  16
BRANCH   4  26
ATOM     26  C   UNL     1      -0.520  -3.559  -1.208  0.00  0.00    +0.000 C 
BRANCH  26  27
ATOM     27  O   UNL     1      -1.376  -4.655  -1.378  0.00  0.00    +0.000 OA
ATOM     28  H   UNL     1      -1.203  -5.004  -2.291  0.00  0.00    +0.000 HD
ENDBRANCH  26  27
ENDBRANCH   4  26
TORSDOF 8
