REMARK  Name = 198515
REMARK  16 active torsions:
REMARK  status: ('A' for Active; 'I' for Inactive)
REMARK    1  A    between atoms: O_2  and  C_3
REMARK    2  A    between atoms: C_3  and  C_47
REMARK    3  A    between atoms: N_4  and  C_5
REMARK    4  A    between atoms: C_7  and  O_9
REMARK    5  A    between atoms: O_9  and  C_10
REMARK    6  A    between atoms: C_10  and  C_12
REMARK    7  A    between atoms: C_17  and  C_19
REMARK    8  A    between atoms: C_19  and  O_22
REMARK    9  A    between atoms: O_22  and  C_23
REMARK   10  A    between atoms: C_23  and  C_25
REMARK   11  A    between atoms: C_29  and  O_31
REMARK   12  A    between atoms: O_31  and  C_32
REMARK   13  A    between atoms: C_32  and  C_34
REMARK   14  A    between atoms: C_38  and  O_40
REMARK   15  A    between atoms: O_40  and  C_41
REMARK   16  A    between atoms: C_41  and  C_43
REMARK                            x       y       z     vdW  Elec       q    Type
REMARK                         _______ _______ _______ _____ _____    ______ ____
ROOT
ATOM      1  C   UNL     1       0.199   0.284  -1.062  0.00  0.00    +0.000 C 
ATOM      2  C   UNL     1       0.623  -1.056  -1.705  0.00  0.00    +0.000 C 
ATOM      3  O   UNL     1       0.856  -2.034  -0.705  0.00  0.00    +0.000 OA
ATOM      4  C   UNL     1       1.964  -1.664   0.099  0.00  0.00    +0.000 C 
ATOM      5  C   UNL     1       1.637  -0.388   0.904  0.00  0.00    +0.000 C 
ATOM      6  C   UNL     1       1.296   0.745  -0.086  0.00  0.00    +0.000 C 
ENDROOT
BRANCH   1   8
ATOM      7  C   UNL     1      -1.044   1.529  -2.809  0.00  0.00    +0.000 C 
ATOM      8  N   UNL     1       0.022   1.309  -2.093  0.00  0.00    +0.000 NA
BRANCH   7  10
ATOM      9  H   UNL     1      -2.343   0.062  -1.965  0.00  0.00    +0.000 HD
ATOM     10  O   UNL     1      -2.220   0.789  -2.656  0.00  0.00    +0.000 OA
ENDBRANCH   7  10
BRANCH   7  11
ATOM     11  C   UNL     1      -1.005   2.592  -3.855  0.00  0.00    +0.000 C 
ATOM     12 BR   UNL     1      -0.346   1.839  -5.512  0.00  0.00    +0.000 Br
ENDBRANCH   7  11
ENDBRANCH   1   8
BRANCH   2  13
ATOM     13  O   UNL     1      -0.412  -1.520  -2.567  0.00  0.00    +0.000 OA
BRANCH  13  14
ATOM     14  C   UNL     1      -0.274  -2.642  -3.389  0.00  0.00    +0.000 C 
ATOM     15  O   UNL     1       0.804  -3.297  -3.411  0.00  0.00    +0.000 OA
ATOM     16  C   UNL     1      -1.396  -3.035  -4.287  0.00  0.00    +0.000 C 
ENDBRANCH  13  14
ENDBRANCH   2  13
BRANCH   4  17
ATOM     17  C   UNL     1       2.316  -2.832   1.032  0.00  0.00    +0.000 C 
BRANCH  17  18
ATOM     18  O   UNL     1       2.601  -4.009   0.277  0.00  0.00    +0.000 OA
BRANCH  18  19
ATOM     19  C   UNL     1       3.796  -4.205  -0.425  0.00  0.00    +0.000 C 
ATOM     20  O   UNL     1       4.724  -3.353  -0.374  0.00  0.00    +0.000 OA
ATOM     21  C   UNL     1       3.954  -5.418  -1.277  0.00  0.00    +0.000 C 
ENDBRANCH  18  19
ENDBRANCH  17  18
ENDBRANCH   4  17
BRANCH   5  22
ATOM     22  O   UNL     1       0.523  -0.642   1.767  0.00  0.00    +0.000 OA
BRANCH  22  23
ATOM     23  C   UNL     1       0.344  -0.032   3.013  0.00  0.00    +0.000 C 
ATOM     24  O   UNL     1       1.224   0.729   3.496  0.00  0.00    +0.000 OA
ATOM     25  C   UNL     1      -0.921  -0.266   3.767  0.00  0.00    +0.000 C 
ENDBRANCH  22  23
ENDBRANCH   5  22
BRANCH   6  26
ATOM     26  O   UNL     1       0.851   1.912   0.607  0.00  0.00    +0.000 OA
BRANCH  26  27
ATOM     27  C   UNL     1       1.716   2.807   1.246  0.00  0.00    +0.000 C 
ATOM     28  O   UNL     1       2.963   2.617   1.240  0.00  0.00    +0.000 OA
ATOM     29  C   UNL     1       1.151   3.972   1.984  0.00  0.00    +0.000 C 
ENDBRANCH  26  27
ENDBRANCH   6  26
TORSDOF 12
