REMARK  Name = 24154
REMARK  6 active torsions:
REMARK  status: ('A' for Active; 'I' for Inactive)
REMARK    1  A    between atoms: N_1  and  C_2
REMARK    2  A    between atoms: C_3  and  O_4
REMARK    3  A    between atoms: C_6  and  C_7
REMARK    4  A    between atoms: C_7  and  O_8
REMARK    5  A    between atoms: C_9  and  O_10
REMARK    6  A    between atoms: C_11  and  O_12
REMARK                            x       y       z     vdW  Elec       q    Type
REMARK                         _______ _______ _______ _____ _____    ______ ____
ROOT
ATOM      1  C   UNL     1       0.060  -1.573  -1.152  0.00  0.00    +0.000 C 
ATOM      2  C   UNL     1      -1.435  -1.187  -1.027  0.00  0.00    +0.000 C 
ATOM      3  O   UNL     1      -1.575   0.066  -0.380  0.00  0.00    +0.000 OA
ATOM      4  C   UNL     1      -1.118  -0.008   0.960  0.00  0.00    +0.000 C 
ATOM      5  C   UNL     1       0.406  -0.254   0.984  0.00  0.00    +0.000 C 
ATOM      6  C   UNL     1       0.714  -1.570   0.249  0.00  0.00    +0.000 C 
ENDROOT
BRANCH   1   7
ATOM      7  N   UNL     1       0.191  -2.899  -1.764  0.00  0.00    +0.000 NA
ATOM      8  H   UNL     1       1.207  -3.117  -1.877  0.00  0.00    +0.000 HD
ATOM      9  H   UNL     1      -0.185  -2.856  -2.739  0.00  0.00    +0.000 HD
ENDBRANCH   1   7
BRANCH   2  10
ATOM     10  O   UNL     1      -1.998  -1.071  -2.309  0.00  0.00    +0.000 OA
ATOM     11  H   UNL     1      -2.410  -1.947  -2.534  0.00  0.00    +0.000 HD
ENDBRANCH   2  10
BRANCH   5  12
ATOM     12  O   UNL     1       1.071   0.818   0.360  0.00  0.00    +0.000 OA
ATOM     13  H   UNL     1       1.990   0.846   0.733  0.00  0.00    +0.000 HD
ENDBRANCH   5  12
BRANCH   6  14
ATOM     14  O   UNL     1       2.107  -1.726   0.139  0.00  0.00    +0.000 OA
ATOM     15  H   UNL     1       2.304  -2.695   0.230  0.00  0.00    +0.000 HD
ENDBRANCH   6  14
BRANCH   4  16
ATOM     16  C   UNL     1      -1.493   1.294   1.679  0.00  0.00    +0.000 C 
BRANCH  16  17
ATOM     17  O   UNL     1      -1.130   1.222   3.031  0.00  0.00    +0.000 OA
ATOM     18  H   UNL     1      -1.393   2.091   3.433  0.00  0.00    +0.000 HD
ENDBRANCH  16  17
ENDBRANCH   4  16
TORSDOF 6
