REMARK  Name = 433580
REMARK  9 active torsions:
REMARK  status: ('A' for Active; 'I' for Inactive)
REMARK    1  A    between atoms: C_1  and  C_2
REMARK    2  A    between atoms: C_2  and  O_3
REMARK    3  A    between atoms: C_2  and  C_15
REMARK    4  A    between atoms: O_3  and  C_4
REMARK    5  A    between atoms: C_5  and  N_6
REMARK    6  A    between atoms: C_7  and  O_8
REMARK    7  A    between atoms: C_10  and  C_11
REMARK    8  A    between atoms: C_11  and  O_12
REMARK    9  A    between atoms: C_13  and  O_14
REMARK                            x       y       z     vdW  Elec       q    Type
REMARK                         _______ _______ _______ _____ _____    ______ ____
ROOT
ATOM      1  C   UNL     1       0.422   0.431  -0.034  0.00  0.00    +0.000 C 
ATOM      2  C   UNL     1       1.736  -0.003   0.659  0.00  0.00    +0.000 C 
ATOM      3  C   UNL     1       1.415  -0.603   2.049  0.00  0.00    +0.000 C 
ATOM      4  O   UNL     1       0.528  -1.700   1.918  0.00  0.00    +0.000 OA
ATOM      5  C   UNL     1      -0.731  -1.271   1.430  0.00  0.00    +0.000 C 
ATOM      6  C   UNL     1      -0.584  -0.733  -0.012  0.00  0.00    +0.000 C 
ENDROOT
BRANCH   2   7
ATOM      7  N   UNL     1       2.663   1.131   0.783  0.00  0.00    +0.000 N 
ATOM      8  H   UNL     1       2.226   1.907   1.331  0.00  0.00    +0.000 HD
ATOM      9  H   UNL     1       2.928   1.480  -0.166  0.00  0.00    +0.000 HD
ATOM     10  H   UNL     1       3.543   0.828   1.260  0.00  0.00    +0.000 HD
ENDBRANCH   2   7
BRANCH   3  11
ATOM     11  O   UNL     1       2.602  -1.058   2.641  0.00  0.00    +0.000 OA
ATOM     12  H   UNL     1       2.368  -1.326   3.568  0.00  0.00    +0.000 HD
ENDBRANCH   3  11
BRANCH   6  13
ATOM     13  O   UNL     1      -1.825  -0.272  -0.486  0.00  0.00    +0.000 OA
ATOM     14  H   UNL     1      -2.228  -1.008  -1.018  0.00  0.00    +0.000 HD
ENDBRANCH   6  13
BRANCH   1  15
ATOM     15  O   UNL     1       0.686   0.768  -1.390  0.00  0.00    +0.000 OA
BRANCH  15  17
ATOM     16  C   UNL     1      -0.884   2.527  -1.949  0.00  0.00    +0.000 C 
ATOM     17  C   UNL     1       0.569   2.160  -1.635  0.00  0.00    +0.000 C 
BRANCH  17  18
ATOM     18  C   UNL     1       1.432   2.506  -2.812  0.00  0.00    +0.000 C 
ATOM     19  O   UNL     1       2.140   3.547  -2.796  0.00  0.00    +0.000 OA
ATOM     20  O   UNL     1       1.425   1.699  -3.944  0.00  0.00    +0.000 OA
ENDBRANCH  17  18
ENDBRANCH  15  17
ENDBRANCH   1  15
BRANCH   5  21
ATOM     21  C   UNL     1      -1.699  -2.462   1.476  0.00  0.00    +0.000 C 
BRANCH  21  22
ATOM     22  O   UNL     1      -1.780  -2.979   2.777  0.00  0.00    +0.000 OA
ATOM     23  H   UNL     1      -2.334  -2.343   3.301  0.00  0.00    +0.000 HD
ENDBRANCH  21  22
ENDBRANCH   5  21
TORSDOF 8
