REMARK  Name = 439213
REMARK  6 active torsions:
REMARK  status: ('A' for Active; 'I' for Inactive)
REMARK    1  A    between atoms: N_1  and  C_2
REMARK    2  A    between atoms: C_3  and  O_4
REMARK    3  A    between atoms: C_6  and  C_7
REMARK    4  A    between atoms: C_7  and  O_8
REMARK    5  A    between atoms: C_9  and  O_10
REMARK    6  A    between atoms: C_11  and  O_12
REMARK                            x       y       z     vdW  Elec       q    Type
REMARK                         _______ _______ _______ _____ _____    ______ ____
ROOT
ATOM      1  C   UNL     1       0.915   0.149   2.496  0.00  0.00    +0.000 C 
ATOM      2  C   UNL     1       1.823   1.283   1.967  0.00  0.00    +0.000 C 
ATOM      3  O   UNL     1       1.319   1.811   0.748  0.00  0.00    +0.000 OA
ATOM      4  C   UNL     1       1.287   0.829  -0.279  0.00  0.00    +0.000 C 
ATOM      5  C   UNL     1       0.323  -0.326   0.089  0.00  0.00    +0.000 C 
ATOM      6  C   UNL     1       0.757  -0.949   1.427  0.00  0.00    +0.000 C 
ENDROOT
BRANCH   1   7
ATOM      7  N   UNL     1       1.429  -0.421   3.745  0.00  0.00    +0.000 NA
ATOM      8  H   UNL     1       2.391  -0.801   3.592  0.00  0.00    +0.000 HD
ATOM      9  H   UNL     1       1.501   0.341   4.457  0.00  0.00    +0.000 HD
ENDBRANCH   1   7
BRANCH   2  10
ATOM     10  O   UNL     1       3.152   0.848   1.820  0.00  0.00    +0.000 OA
ATOM     11  H   UNL     1       3.686   1.652   1.590  0.00  0.00    +0.000 HD
ENDBRANCH   2  10
BRANCH   5  12
ATOM     12  O   UNL     1       0.351  -1.321  -0.904  0.00  0.00    +0.000 OA
ATOM     13  H   UNL     1      -0.391  -1.128  -1.534  0.00  0.00    +0.000 HD
ENDBRANCH   5  12
BRANCH   6  14
ATOM     14  O   UNL     1      -0.159  -1.931   1.845  0.00  0.00    +0.000 OA
ATOM     15  H   UNL     1      -1.038  -1.489   1.979  0.00  0.00    +0.000 HD
ENDBRANCH   6  14
BRANCH   4  16
ATOM     16  C   UNL     1       0.874   1.514  -1.588  0.00  0.00    +0.000 C 
BRANCH  16  17
ATOM     17  O   UNL     1      -0.402   2.081  -1.463  0.00  0.00    +0.000 OA
ATOM     18  H   UNL     1      -0.605   2.499  -2.340  0.00  0.00    +0.000 HD
ENDBRANCH  16  17
ENDBRANCH   4  16
TORSDOF 6
