REMARK  Name = 118328
REMARK  10 active torsions:
REMARK  status: ('A' for Active; 'I' for Inactive)
REMARK    1  A    between atoms: O_2  and  C_3
REMARK    2  A    between atoms: C_3  and  C_45
REMARK    3  A    between atoms: N_4  and  C_5
REMARK    4  A    between atoms: C_7  and  O_9
REMARK    5  A    between atoms: C_11  and  O_13
REMARK    6  A    between atoms: C_15  and  C_17
REMARK    7  A    between atoms: C_17  and  O_20
REMARK    8  A    between atoms: C_23  and  O_25
REMARK    9  A    between atoms: O_25  and  C_26
REMARK   10  A    between atoms: C_32  and  C_33
REMARK                            x       y       z     vdW  Elec       q    Type
REMARK                         _______ _______ _______ _____ _____    ______ ____
ROOT
ATOM      1  C   UNL     1      -2.439   1.319   0.859  0.00  0.00    +0.000 C 
ATOM      2  C   UNL     1      -1.723   2.285   1.835  0.00  0.00    +0.000 C 
ATOM      3  C   UNL     1      -0.683   1.534   2.684  0.00  0.00    +0.000 C 
ATOM      4  C   UNL     1       0.224   0.682   1.764  0.00  0.00    +0.000 C 
ATOM      5  O   UNL     1      -0.545  -0.231   0.996  0.00  0.00    +0.000 OA
ATOM      6  C   UNL     1      -1.418   0.447   0.102  0.00  0.00    +0.000 C 
ENDROOT
BRANCH   1   8
ATOM      7  C   UNL     1      -4.521   0.822   2.045  0.00  0.00    +0.000 C 
ATOM      8  N   UNL     1      -3.366   0.446   1.585  0.00  0.00    +0.000 NA
ATOM      9  C   UNL     1      -5.377  -0.167   2.768  0.00  0.00    +0.000 C 
BRANCH   7  11
ATOM     10  H   UNL     1      -5.882   2.424   2.183  0.00  0.00    +0.000 HD
ATOM     11  O   UNL     1      -4.980   2.123   1.837  0.00  0.00    +0.000 OA
ENDBRANCH   7  11
ENDBRANCH   1   8
BRANCH   2  12
ATOM     12  O   UNL     1      -1.082   3.309   1.116  0.00  0.00    +0.000 OA
ATOM     13  H   UNL     1      -1.791   3.932   0.808  0.00  0.00    +0.000 HD
ENDBRANCH   2  12
BRANCH   3  14
ATOM     14  O   UNL     1      -1.349   0.720   3.618  0.00  0.00    +0.000 OA
ATOM     15  H   UNL     1      -0.817   0.735   4.455  0.00  0.00    +0.000 HD
ENDBRANCH   3  14
BRANCH   4  16
ATOM     16  C   UNL     1       1.291  -0.092   2.555  0.00  0.00    +0.000 C 
BRANCH  16  17
ATOM     17  O   UNL     1       0.721  -1.122   3.318  0.00  0.00    +0.000 OA
ATOM     18  H   UNL     1       0.571  -1.887   2.703  0.00  0.00    +0.000 HD
ENDBRANCH  16  17
ENDBRANCH   4  16
BRANCH   6  19
ATOM     19  O   UNL     1      -0.690   1.238  -0.843  0.00  0.00    +0.000 OA
BRANCH  19  20
ATOM     20  C   UNL     1       0.233   0.736  -1.773  0.00  0.00    +0.000 A 
ATOM     21  C   UNL     1       0.912   1.647  -2.588  0.00  0.00    +0.000 A 
ATOM     22  C   UNL     1       1.847   1.209  -3.528  0.00  0.00    +0.000 A 
ATOM     23  C   UNL     1       2.121  -0.165  -3.671  0.00  0.00    +0.000 A 
ATOM     24  C   UNL     1       3.057  -0.666  -4.604  0.00  0.00    +0.000 A 
ATOM     25  C   UNL     1       3.836   0.241  -5.520  0.00  0.00    +0.000 C 
ATOM     26  C   UNL     1       3.261  -2.051  -4.674  0.00  0.00    +0.000 A 
ATOM     27  C   UNL     1       2.539  -2.895  -3.827  0.00  0.00    +0.000 A 
ATOM     28  O   UNL     1       2.714  -4.141  -3.885  0.00  0.00    +0.000 OA
ATOM     29  O   UNL     1       1.667  -2.394  -2.960  0.00  0.00    +0.000 OA
ATOM     30  C   UNL     1       1.433  -1.090  -2.849  0.00  0.00    +0.000 A 
ATOM     31  C   UNL     1       0.498  -0.639  -1.911  0.00  0.00    +0.000 A 
ENDBRANCH  19  20
ENDBRANCH   6  19
TORSDOF 8
