REMARK  Name = 198515
REMARK  15 active torsions:
REMARK  status: ('A' for Active; 'I' for Inactive)
REMARK    1  A    between atoms: C_1  and  C_2
REMARK    2  A    between atoms: C_2  and  O_4
REMARK    3  A    between atoms: O_4  and  C_5
REMARK    4  A    between atoms: C_5  and  C_6
REMARK    5  A    between atoms: C_8  and  O_9
REMARK    6  A    between atoms: O_9  and  C_10
REMARK    7  A    between atoms: C_10  and  C_11
REMARK    8  A    between atoms: C_13  and  N_14
REMARK    9  A    between atoms: C_15  and  C_17
REMARK   10  A    between atoms: C_19  and  O_20
REMARK   11  A    between atoms: O_20  and  C_21
REMARK   12  A    between atoms: C_21  and  C_22
REMARK   13  A    between atoms: C_24  and  O_25
REMARK   14  A    between atoms: O_25  and  C_26
REMARK   15  A    between atoms: C_26  and  C_27
REMARK                            x       y       z     vdW  Elec       q    Type
REMARK                         _______ _______ _______ _____ _____    ______ ____
ROOT
ATOM      1  C   UNL     1      -1.196   0.705   0.905  0.00  0.00    +0.000 C 
ATOM      2  O   UNL     1      -0.006   1.332   1.349  0.00  0.00    +0.000 OA
ATOM      3  C   UNL     1       0.652   1.971   0.268  0.00  0.00    +0.000 C 
ATOM      4  C   UNL     1       1.107   0.940  -0.784  0.00  0.00    +0.000 C 
ATOM      5  C   UNL     1      -0.098   0.103  -1.266  0.00  0.00    +0.000 C 
ATOM      6  C   UNL     1      -0.860  -0.460  -0.053  0.00  0.00    +0.000 C 
ENDROOT
BRANCH   4   7
ATOM      7  N   UNL     1       1.729   1.634  -1.915  0.00  0.00    +0.000 N 
ATOM      8  C   UNL     1       3.141   1.604  -2.172  0.00  0.00    +0.000 C 
ATOM      9  O   UNL     1       3.913   0.931  -1.437  0.00  0.00    +0.000 OA
ATOM     10  H   UNL     1       1.128   2.247  -2.512  0.00  0.00    +0.000 HD
BRANCH   8  11
ATOM     11  C   UNL     1       3.704   2.335  -3.347  0.00  0.00    +0.000 C 
ATOM     12 BR   UNL     1       3.598   1.213  -4.921  0.00  0.00    +0.000 Br
ENDBRANCH   8  11
ENDBRANCH   4   7
BRANCH   1  13
ATOM     13  C   UNL     1      -2.020   0.236   2.119  0.00  0.00    +0.000 C 
BRANCH  13  14
ATOM     14  O   UNL     1      -1.325  -0.739   2.895  0.00  0.00    +0.000 OA
BRANCH  14  16
ATOM     15  C   UNL     1       0.461  -1.530   4.447  0.00  0.00    +0.000 C 
ATOM     16  C   UNL     1      -0.334  -0.428   3.832  0.00  0.00    +0.000 C 
ATOM     17  O   UNL     1      -0.079   0.769   4.133  0.00  0.00    +0.000 OA
ENDBRANCH  14  16
ENDBRANCH  13  14
ENDBRANCH   1  13
BRANCH   3  18
ATOM     18  O   UNL     1       1.802   2.651   0.766  0.00  0.00    +0.000 OA
BRANCH  18  19
ATOM     19  C   UNL     1       1.724   3.723   1.661  0.00  0.00    +0.000 C 
ATOM     20  C   UNL     1       2.978   4.370   2.140  0.00  0.00    +0.000 C 
ATOM     21  O   UNL     1       0.607   4.173   2.035  0.00  0.00    +0.000 OA
ENDBRANCH  18  19
ENDBRANCH   3  18
BRANCH   5  22
ATOM     22  O   UNL     1       0.346  -0.975  -2.094  0.00  0.00    +0.000 OA
BRANCH  22  23
ATOM     23  C   UNL     1       0.562  -0.868  -3.472  0.00  0.00    +0.000 C 
ATOM     24  C   UNL     1       1.130  -2.027  -4.215  0.00  0.00    +0.000 C 
ATOM     25  O   UNL     1       0.238   0.176  -4.101  0.00  0.00    +0.000 OA
ENDBRANCH  22  23
ENDBRANCH   5  22
BRANCH   6  26
ATOM     26  O   UNL     1      -0.056  -1.427   0.631  0.00  0.00    +0.000 OA
BRANCH  26  27
ATOM     27  C   UNL     1      -0.005  -2.784   0.294  0.00  0.00    +0.000 C 
ATOM     28  C   UNL     1       0.880  -3.694   1.073  0.00  0.00    +0.000 C 
ATOM     29  O   UNL     1      -0.735  -3.252  -0.622  0.00  0.00    +0.000 OA
ENDBRANCH  26  27
ENDBRANCH   6  26
TORSDOF 11
