REMARK  Name = 899
REMARK  8 active torsions:
REMARK  status: ('A' for Active; 'I' for Inactive)
REMARK    1  A    between atoms: O_2  and  C_3
REMARK    2  A    between atoms: C_3  and  C_27
REMARK    3  A    between atoms: N_4  and  C_5
REMARK    4  A    between atoms: C_7  and  O_9
REMARK    5  A    between atoms: C_12  and  C_14
REMARK    6  A    between atoms: C_14  and  O_17
REMARK    7  A    between atoms: C_19  and  O_21
REMARK    8  A    between atoms: C_23  and  O_25
REMARK                            x       y       z     vdW  Elec       q    Type
REMARK                         _______ _______ _______ _____ _____    ______ ____
ROOT
ATOM      1  C   UNL     1      -0.025   0.733   0.388  0.00  0.00    +0.000 C 
ATOM      2  C   UNL     1       1.084  -0.341   0.381  0.00  0.00    +0.000 C 
ATOM      3  O   UNL     1       1.475  -0.722  -0.933  0.00  0.00    +0.000 OA
ATOM      4  C   UNL     1       0.407  -1.199  -1.747  0.00  0.00    +0.000 C 
ATOM      5  C   UNL     1      -0.781  -0.204  -1.829  0.00  0.00    +0.000 C 
ATOM      6  C   UNL     1      -1.232   0.260  -0.435  0.00  0.00    +0.000 C 
ENDROOT
BRANCH   1   8
ATOM      7  C   UNL     1       0.222   1.724   2.612  0.00  0.00    +0.000 C 
ATOM      8  N   UNL     1      -0.455   1.014   1.760  0.00  0.00    +0.000 NA
ATOM      9  C   UNL     1      -0.326   1.945   3.986  0.00  0.00    +0.000 C 
BRANCH   7  11
ATOM     10  H   UNL     1       1.957   2.882   2.898  0.00  0.00    +0.000 HD
ATOM     11  O   UNL     1       1.432   2.312   2.246  0.00  0.00    +0.000 OA
ENDBRANCH   7  11
ENDBRANCH   1   8
BRANCH   2  12
ATOM     12  O   UNL     1       0.710  -1.456   1.149  0.00  0.00    +0.000 OA
ATOM     13  H   UNL     1       1.518  -2.026   1.228  0.00  0.00    +0.000 HD
ENDBRANCH   2  12
BRANCH   5  14
ATOM     14  O   UNL     1      -0.462   0.897  -2.649  0.00  0.00    +0.000 OA
ATOM     15  H   UNL     1       0.407   1.269  -2.346  0.00  0.00    +0.000 HD
ENDBRANCH   5  14
BRANCH   6  16
ATOM     16  O   UNL     1      -2.167   1.300  -0.570  0.00  0.00    +0.000 OA
ATOM     17  H   UNL     1      -2.691   1.332   0.272  0.00  0.00    +0.000 HD
ENDBRANCH   6  16
BRANCH   4  18
ATOM     18  C   UNL     1      -0.015  -2.638  -1.379  0.00  0.00    +0.000 C 
BRANCH  18  19
ATOM     19  O   UNL     1      -0.623  -3.269  -2.475  0.00  0.00    +0.000 OA
ATOM     20  H   UNL     1      -1.597  -3.088  -2.411  0.00  0.00    +0.000 HD
ENDBRANCH  18  19
ENDBRANCH   4  18
TORSDOF 7
