REMARK  Name = 739
REMARK  6 active torsions:
REMARK  status: ('A' for Active; 'I' for Inactive)
REMARK    1  A    between atoms: N_1  and  C_2
REMARK    2  A    between atoms: C_3  and  O_4
REMARK    3  A    between atoms: C_6  and  C_7
REMARK    4  A    between atoms: C_7  and  O_8
REMARK    5  A    between atoms: C_9  and  O_10
REMARK    6  A    between atoms: C_11  and  O_12
REMARK                            x       y       z     vdW  Elec       q    Type
REMARK                         _______ _______ _______ _____ _____    ______ ____
ROOT
ATOM      1  C   UNL     1       0.598   0.646  -1.033  0.00  0.00    +0.000 C 
ATOM      2  C   UNL     1      -0.442  -0.326  -1.650  0.00  0.00    +0.000 C 
ATOM      3  O   UNL     1      -1.703  -0.221  -1.006  0.00  0.00    +0.000 OA
ATOM      4  C   UNL     1      -1.621  -0.570   0.367  0.00  0.00    +0.000 C 
ATOM      5  C   UNL     1      -0.731   0.434   1.136  0.00  0.00    +0.000 C 
ATOM      6  C   UNL     1       0.674   0.487   0.503  0.00  0.00    +0.000 C 
ENDROOT
BRANCH   1   7
ATOM      7  N   UNL     1       0.299   2.038  -1.389  0.00  0.00    +0.000 NA
ATOM      8  H   UNL     1       0.513   2.172  -2.404  0.00  0.00    +0.000 HD
ATOM      9  H   UNL     1      -0.722   2.228  -1.272  0.00  0.00    +0.000 HD
ENDBRANCH   1   7
BRANCH   2  10
ATOM     10  O   UNL     1       0.021  -1.654  -1.620  0.00  0.00    +0.000 OA
ATOM     11  H   UNL     1       0.744  -1.724  -2.297  0.00  0.00    +0.000 HD
ENDBRANCH   2  10
BRANCH   5  12
ATOM     12  O   UNL     1      -1.321   1.710   1.125  0.00  0.00    +0.000 OA
ATOM     13  H   UNL     1      -0.889   2.234   1.849  0.00  0.00    +0.000 HD
ENDBRANCH   5  12
BRANCH   6  14
ATOM     14  O   UNL     1       1.364  -0.694   0.828  0.00  0.00    +0.000 OA
ATOM     15  H   UNL     1       2.330  -0.513   0.685  0.00  0.00    +0.000 HD
ENDBRANCH   6  14
BRANCH   4  16
ATOM     16  C   UNL     1      -3.045  -0.622   0.939  0.00  0.00    +0.000 C 
BRANCH  16  17
ATOM     17  O   UNL     1      -3.036  -1.089   2.262  0.00  0.00    +0.000 OA
ATOM     18  H   UNL     1      -2.979  -0.291   2.850  0.00  0.00    +0.000 HD
ENDBRANCH  16  17
ENDBRANCH   4  16
TORSDOF 6
