REMARK  Name = 57339292
REMARK  10 active torsions:
REMARK  status: ('A' for Active; 'I' for Inactive)
REMARK    1  A    between atoms: N_1  and  C_2
REMARK    2  A    between atoms: C_3  and  O_4
REMARK    3  A    between atoms: O_4  and  C_5
REMARK    4  A    between atoms: C_5  and  C_6
REMARK    5  A    between atoms: C_5  and  C_10
REMARK    6  A    between atoms: C_6  and  C_7
REMARK    7  A    between atoms: C_14  and  C_15
REMARK    8  A    between atoms: C_15  and  O_16
REMARK    9  A    between atoms: C_17  and  O_18
REMARK   10  A    between atoms: C_19  and  O_20
REMARK                            x       y       z     vdW  Elec       q    Type
REMARK                         _______ _______ _______ _____ _____    ______ ____
ROOT
ATOM      1  C   UNL     1      -0.094   0.129  -2.252  0.00  0.00    +0.000 C 
ATOM      2  C   UNL     1       0.444  -0.572  -0.985  0.00  0.00    +0.000 C 
ATOM      3  O   UNL     1      -0.278  -0.164   0.171  0.00  0.00    +0.000 OA
ATOM      4  C   UNL     1      -0.134   1.227   0.421  0.00  0.00    +0.000 C 
ATOM      5  C   UNL     1      -0.736   2.053  -0.742  0.00  0.00    +0.000 C 
ATOM      6  C   UNL     1      -0.054   1.660  -2.068  0.00  0.00    +0.000 C 
ENDROOT
BRANCH   1   7
ATOM      7  N   UNL     1       0.695  -0.265  -3.422  0.00  0.00    +0.000 NA
ATOM      8  H   UNL     1       0.608  -1.300  -3.542  0.00  0.00    +0.000 HD
ATOM      9  H   UNL     1       0.258   0.156  -4.274  0.00  0.00    +0.000 HD
ENDBRANCH   1   7
BRANCH   5  10
ATOM     10  O   UNL     1      -0.606   3.434  -0.512  0.00  0.00    +0.000 OA
ATOM     11  H   UNL     1       0.362   3.635  -0.417  0.00  0.00    +0.000 HD
ENDBRANCH   5  10
BRANCH   6  12
ATOM     12  O   UNL     1      -0.662   2.320  -3.151  0.00  0.00    +0.000 OA
ATOM     13  H   UNL     1      -1.609   2.023  -3.194  0.00  0.00    +0.000 HD
ENDBRANCH   6  12
BRANCH   2  14
ATOM     14  O   UNL     1       1.838  -0.338  -0.841  0.00  0.00    +0.000 OA
BRANCH  14  15
ATOM     15  C   UNL     1       2.413  -1.188   0.142  0.00  0.00    +0.000 C 
BRANCH  15  16
ATOM     16  C   UNL     1       3.031  -0.335   1.211  0.00  0.00    +0.000 C 
ATOM     17  O   UNL     1       2.869  -0.623   2.426  0.00  0.00    +0.000 OA
ATOM     18  O   UNL     1       3.810   0.763   0.865  0.00  0.00    +0.000 OA
ENDBRANCH  15  16
BRANCH  15  19
ATOM     19  C   UNL     1       3.501  -2.054  -0.505  0.00  0.00    +0.000 C 
BRANCH  19  20
ATOM     20  C   UNL     1       2.919  -2.981  -1.527  0.00  0.00    +0.000 C 
ATOM     21  O   UNL     1       2.316  -4.025  -1.164  0.00  0.00    +0.000 OA
ATOM     22  O   UNL     1       3.013  -2.676  -2.878  0.00  0.00    +0.000 OA
ENDBRANCH  19  20
ENDBRANCH  15  19
ENDBRANCH  14  15
ENDBRANCH   2  14
BRANCH   4  23
ATOM     23  C   UNL     1      -0.838   1.555   1.742  0.00  0.00    +0.000 C 
BRANCH  23  24
ATOM     24  O   UNL     1      -0.263   0.809   2.779  0.00  0.00    +0.000 OA
ATOM     25  H   UNL     1      -0.760   1.054   3.603  0.00  0.00    +0.000 HD
ENDBRANCH  23  24
ENDBRANCH   4  23
TORSDOF 10
