REMARK  Name = ZINC000032106889
REMARK  5 active torsions:
REMARK  status: ('A' for Active; 'I' for Inactive)
REMARK    1  A    between atoms: O_2  and  C_3
REMARK    2  A    between atoms: C_8  and  C_10
REMARK    3  A    between atoms: C_28  and  O_30
REMARK    4  A    between atoms: O_30  and  C_31
REMARK    5  A    between atoms: C_35  and  N_37
REMARK                            x       y       z     vdW  Elec       q    Type
REMARK                         _______ _______ _______ _____ _____    ______ ____
ROOT
ATOM      1  C   UNL     1      -2.034   0.808  -1.104  0.00  0.00    +0.000 C 
ATOM      2  C   UNL     1      -0.612   0.529  -0.603  0.00  0.00    +0.000 C 
ATOM      3  O   UNL     1      -0.193  -0.759  -1.016  0.00  0.00    +0.000 OA
ATOM      4  C   UNL     1       0.981  -1.200  -0.335  0.00  0.00    +0.000 C 
ATOM      5  O   UNL     1       1.666  -0.155   0.344  0.00  0.00    +0.000 OA
ATOM      6  C   UNL     1       0.864   0.349   1.397  0.00  0.00    +0.000 C 
ATOM      7  C   UNL     1      -0.570   0.661   0.930  0.00  0.00    +0.000 C 
ATOM      8  O   UNL     1      -0.946   1.968   1.334  0.00  0.00    +0.000 OA
ATOM      9  C   UNL     1      -2.297   2.248   0.986  0.00  0.00    +0.000 C 
ATOM     10  C   UNL     1      -2.509   2.165  -0.547  0.00  0.00    +0.000 C 
ENDROOT
BRANCH   4  11
ATOM     11  C   UNL     1       1.919  -1.807  -1.343  0.00  0.00    +0.000 A 
ATOM     12  C   UNL     1       2.350  -3.140  -1.215  0.00  0.00    +0.000 A 
ATOM     13  C   UNL     1       3.228  -3.690  -2.154  0.00  0.00    +0.000 A 
ATOM     14  C   UNL     1       3.685  -2.916  -3.224  0.00  0.00    +0.000 A 
ATOM     15  C   UNL     1       3.265  -1.590  -3.357  0.00  0.00    +0.000 A 
ATOM     16  C   UNL     1       2.388  -1.036  -2.421  0.00  0.00    +0.000 A 
ENDBRANCH   4  11
BRANCH  10  17
ATOM     17  N   UNL     1      -3.911   2.387  -0.896  0.00  0.00    +0.000 NA
ATOM     18  N   UNL     1      -4.463   3.463  -0.661  0.00  0.00    +0.000 NA
ATOM     19  N   UNL     1      -5.015   4.537  -0.427  0.00  0.00    +0.000 NA
ENDBRANCH  10  17
BRANCH   1  21
ATOM     20  H   UNL     1      -3.650  -0.249  -1.339  0.00  0.00    +0.000 HD
ATOM     21  O   UNL     1      -2.892  -0.230  -0.697  0.00  0.00    +0.000 OA
ENDBRANCH   1  21
BRANCH   9  22
ATOM     22  O   UNL     1      -3.198   1.379   1.656  0.00  0.00    +0.000 OA
ATOM     23  C   UNL     1      -3.269   1.716   3.025  0.00  0.00    +0.000 C 
ENDBRANCH   9  22
TORSDOF 4
