REMARK  Name = ZINC000106382957
REMARK  10 active torsions:
REMARK  status: ('A' for Active; 'I' for Inactive)
REMARK    1  A    between atoms: O_2  and  C_3
REMARK    2  A    between atoms: C_3  and  C_39
REMARK    3  A    between atoms: N_4  and  C_5
REMARK    4  A    between atoms: C_7  and  O_9
REMARK    5  A    between atoms: O_9  and  C_10
REMARK    6  A    between atoms: C_19  and  C_20
REMARK    7  A    between atoms: C_24  and  C_26
REMARK    8  A    between atoms: C_26  and  O_29
REMARK    9  A    between atoms: C_31  and  O_33
REMARK   10  A    between atoms: C_35  and  O_37
REMARK                            x       y       z     vdW  Elec       q    Type
REMARK                         _______ _______ _______ _____ _____    ______ ____
ROOT
ATOM      1  C   UNL     1       0.135   0.993   0.410  0.00  0.00    +0.000 C 
ATOM      2  C   UNL     1       0.506  -0.502   0.577  0.00  0.00    +0.000 C 
ATOM      3  O   UNL     1      -0.233  -1.052   1.654  0.00  0.00    +0.000 OA
ATOM      4  C   UNL     1       0.152  -0.463   2.887  0.00  0.00    +0.000 C 
ATOM      5  C   UNL     1      -0.206   1.042   2.904  0.00  0.00    +0.000 C 
ATOM      6  C   UNL     1       0.459   1.752   1.710  0.00  0.00    +0.000 C 
ENDROOT
BRANCH   1   8
ATOM      7  C   UNL     1       0.403   1.698  -1.922  0.00  0.00    +0.000 C 
ATOM      8  N   UNL     1       0.857   1.607  -0.707  0.00  0.00    +0.000 NA
ATOM      9  C   UNL     1       1.250   2.323  -2.982  0.00  0.00    +0.000 C 
BRANCH   7  11
ATOM     10  H   UNL     1      -1.206   1.245  -3.202  0.00  0.00    +0.000 HD
ATOM     11  O   UNL     1      -0.856   1.196  -2.253  0.00  0.00    +0.000 OA
ENDBRANCH   7  11
ENDBRANCH   1   8
BRANCH   5  12
ATOM     12  O   UNL     1       0.222   1.624   4.109  0.00  0.00    +0.000 OA
ATOM     13  H   UNL     1      -0.246   2.496   4.188  0.00  0.00    +0.000 HD
ENDBRANCH   5  12
BRANCH   6  14
ATOM     14  O   UNL     1       1.850   1.815   1.913  0.00  0.00    +0.000 OA
ATOM     15  H   UNL     1       2.185   2.594   1.397  0.00  0.00    +0.000 HD
ENDBRANCH   6  14
BRANCH   2  16
ATOM     16  O   UNL     1       0.157  -1.234  -0.601  0.00  0.00    +0.000 OA
BRANCH  16  17
ATOM     17  C   UNL     1       0.957  -1.443  -1.742  0.00  0.00    +0.000 A 
ATOM     18  C   UNL     1       2.296  -1.002  -1.820  0.00  0.00    +0.000 A 
ATOM     19  C   UNL     1       3.049  -1.222  -2.975  0.00  0.00    +0.000 A 
ATOM     20  C   UNL     1       2.485  -1.883  -4.064  0.00  0.00    +0.000 A 
ATOM     21  C   UNL     1       1.164  -2.329  -4.004  0.00  0.00    +0.000 A 
ATOM     22  C   UNL     1       0.390  -2.115  -2.848  0.00  0.00    +0.000 A 
BRANCH  22  23
ATOM     23  C   UNL     1      -1.013  -2.581  -2.800  0.00  0.00    +0.000 C 
ATOM     24  O   UNL     1      -1.533  -3.179  -3.779  0.00  0.00    +0.000 OA
ENDBRANCH  22  23
ENDBRANCH  16  17
ENDBRANCH   2  16
BRANCH   4  25
ATOM     25  C   UNL     1      -0.537  -1.223   4.030  0.00  0.00    +0.000 C 
BRANCH  25  26
ATOM     26  O   UNL     1      -1.931  -1.217   3.870  0.00  0.00    +0.000 OA
ATOM     27  H   UNL     1      -2.278  -0.441   4.383  0.00  0.00    +0.000 HD
ENDBRANCH  25  26
ENDBRANCH   4  25
TORSDOF 9
