REMARK  Name = ZINC000105341667
REMARK  7 active torsions:
REMARK  status: ('A' for Active; 'I' for Inactive)
REMARK    1  A    between atoms: C_1  and  O_2
REMARK    2  A    between atoms: O_2  and  C_3
REMARK    3  A    between atoms: C_4  and  O_5
REMARK    4  A    between atoms: C_6  and  C_7
REMARK    5  A    between atoms: C_7  and  O_8
REMARK    6  A    between atoms: C_10  and  O_11
REMARK    7  A    between atoms: C_12  and  N_13
REMARK                            x       y       z     vdW  Elec       q    Type
REMARK                         _______ _______ _______ _____ _____    ______ ____
ROOT
ATOM      1  C   UNL     1       0.762   0.729  -0.571  0.00  0.00    +0.000 C 
ATOM      2  C   UNL     1      -0.102   2.012  -0.514  0.00  0.00    +0.000 C 
ATOM      3  C   UNL     1      -1.530   1.761  -1.061  0.00  0.00    +0.000 C 
ATOM      4  O   UNL     1      -2.152   0.626  -0.469  0.00  0.00    +0.000 OA
ATOM      5  C   UNL     1      -1.403  -0.567  -0.656  0.00  0.00    +0.000 C 
ATOM      6  C   UNL     1      -0.006  -0.477   0.001  0.00  0.00    +0.000 C 
ENDROOT
BRANCH   6   7
ATOM      7  N   UNL     1      -0.084  -0.404   1.466  0.00  0.00    +0.000 NA
ATOM      8  H   UNL     1      -0.865   0.225   1.760  0.00  0.00    +0.000 HD
ATOM      9  H   UNL     1      -0.302  -1.357   1.838  0.00  0.00    +0.000 HD
ENDBRANCH   6   7
BRANCH   1  11
ATOM     10  C   UNL     1       3.001   1.368  -0.676  0.00  0.00    +0.000 C 
ATOM     11  O   UNL     1       1.966   0.902   0.162  0.00  0.00    +0.000 OA
ENDBRANCH   1  11
BRANCH   2  12
ATOM     12  O   UNL     1      -0.196   2.484   0.806  0.00  0.00    +0.000 OA
ATOM     13  H   UNL     1       0.634   2.997   0.994  0.00  0.00    +0.000 HD
ENDBRANCH   2  12
BRANCH   5  14
ATOM     14  O   UNL     1      -2.114  -1.662  -0.137  0.00  0.00    +0.000 OA
ATOM     15  H   UNL     1      -2.510  -1.381   0.728  0.00  0.00    +0.000 HD
ENDBRANCH   5  14
BRANCH   3  16
ATOM     16  C   UNL     1      -1.604   1.732  -2.603  0.00  0.00    +0.000 C 
BRANCH  16  17
ATOM     17  O   UNL     1      -1.379   3.017  -3.115  0.00  0.00    +0.000 OA
ATOM     18  H   UNL     1      -1.453   2.938  -4.101  0.00  0.00    +0.000 HD
ENDBRANCH  16  17
ENDBRANCH   3  16
TORSDOF 6
