REMARK  Name = ZINC000101073479
REMARK  9 active torsions:
REMARK  status: ('A' for Active; 'I' for Inactive)
REMARK    1  A    between atoms: C_1  and  O_2
REMARK    2  A    between atoms: O_2  and  C_3
REMARK    3  A    between atoms: C_6  and  C_7
REMARK    4  A    between atoms: N_8  and  C_9
REMARK    5  A    between atoms: C_10  and  O_11
REMARK    6  A    between atoms: C_12  and  O_13
REMARK    7  A    between atoms: C_14  and  C_15
REMARK    8  A    between atoms: C_15  and  O_16
REMARK    9  A    between atoms: C_18  and  O_19
REMARK                            x       y       z     vdW  Elec       q    Type
REMARK                         _______ _______ _______ _____ _____    ______ ____
ROOT
ATOM      1  C   UNL     1      -1.118   1.307   0.018  0.00  0.00    +0.000 C 
ATOM      2  C   UNL     1      -0.414   2.631  -0.329  0.00  0.00    +0.000 C 
ATOM      3  C   UNL     1       0.131   2.571  -1.770  0.00  0.00    +0.000 C 
ATOM      4  C   UNL     1      -0.991   2.124  -2.740  0.00  0.00    +0.000 C 
ATOM      5  O   UNL     1      -1.512   0.868  -2.336  0.00  0.00    +0.000 OA
ATOM      6  C   UNL     1      -2.151   0.965  -1.076  0.00  0.00    +0.000 C 
ENDROOT
BRANCH   1   8
ATOM      7  C   UNL     1      -1.484   0.821   2.428  0.00  0.00    +0.000 C 
ATOM      8  N   UNL     1      -1.792   1.426   1.316  0.00  0.00    +0.000 NA
BRANCH   7  12
ATOM      9  C   UNL     1       1.764  -1.940   2.926  0.00  0.00    +0.000 A 
ATOM     10  C   UNL     1       0.440  -2.332   3.197  0.00  0.00    +0.000 A 
ATOM     11  C   UNL     1      -0.612  -1.426   3.028  0.00  0.00    +0.000 A 
ATOM     12  C   UNL     1      -0.361  -0.127   2.568  0.00  0.00    +0.000 A 
ATOM     13  C   UNL     1       0.962   0.273   2.324  0.00  0.00    +0.000 A 
ATOM     14  C   UNL     1       2.013  -0.632   2.493  0.00  0.00    +0.000 A 
BRANCH   9  16
ATOM     15  C   UNL     1       2.747  -4.164   3.509  0.00  0.00    +0.000 C 
ATOM     16  O   UNL     1       2.853  -2.811   3.077  0.00  0.00    +0.000 OA
ENDBRANCH   9  16
ENDBRANCH   7  12
ENDBRANCH   1   8
BRANCH   2  17
ATOM     17  O   UNL     1      -1.320   3.700  -0.194  0.00  0.00    +0.000 OA
ATOM     18  H   UNL     1      -0.783   4.518  -0.030  0.00  0.00    +0.000 HD
ENDBRANCH   2  17
BRANCH   3  19
ATOM     19  O   UNL     1       0.630   3.829  -2.149  0.00  0.00    +0.000 OA
ATOM     20  H   UNL     1       1.493   3.948  -1.673  0.00  0.00    +0.000 HD
ENDBRANCH   3  19
BRANCH   6  21
ATOM     21  O   UNL     1      -2.738  -0.279  -0.791  0.00  0.00    +0.000 OA
ATOM     22  H   UNL     1      -3.453  -0.119  -0.121  0.00  0.00    +0.000 HD
ENDBRANCH   6  21
BRANCH   4  23
ATOM     23  C   UNL     1      -0.467   1.978  -4.175  0.00  0.00    +0.000 C 
BRANCH  23  24
ATOM     24  O   UNL     1      -0.152   3.232  -4.713  0.00  0.00    +0.000 OA
ATOM     25  H   UNL     1       0.191   3.062  -5.628  0.00  0.00    +0.000 HD
ENDBRANCH  23  24
ENDBRANCH   4  23
TORSDOF 8
