REMARK  Name = ZINC000056871016
REMARK  9 active torsions:
REMARK  status: ('A' for Active; 'I' for Inactive)
REMARK    1  A    between atoms: O_2  and  C_3
REMARK    2  A    between atoms: C_3  and  C_30
REMARK    3  A    between atoms: N_4  and  C_5
REMARK    4  A    between atoms: C_7  and  O_9
REMARK    5  A    between atoms: C_11  and  O_13
REMARK    6  A    between atoms: C_15  and  C_17
REMARK    7  A    between atoms: C_17  and  O_20
REMARK    8  A    between atoms: C_23  and  O_25
REMARK    9  A    between atoms: O_25  and  C_26
REMARK                            x       y       z     vdW  Elec       q    Type
REMARK                         _______ _______ _______ _____ _____    ______ ____
ROOT
ATOM      1  C   UNL     1      -0.949  -0.654  -0.535  0.00  0.00    +0.000 C 
ATOM      2  C   UNL     1      -1.452   0.800  -0.423  0.00  0.00    +0.000 C 
ATOM      3  C   UNL     1      -1.737   1.140   1.054  0.00  0.00    +0.000 C 
ATOM      4  C   UNL     1      -0.514   0.768   1.925  0.00  0.00    +0.000 C 
ATOM      5  O   UNL     1      -0.195  -0.605   1.769  0.00  0.00    +0.000 OA
ATOM      6  C   UNL     1       0.224  -0.877   0.440  0.00  0.00    +0.000 C 
ENDROOT
BRANCH   1   8
ATOM      7  C   UNL     1      -1.267  -1.174  -2.931  0.00  0.00    +0.000 C 
ATOM      8  N   UNL     1      -0.505  -0.942  -1.901  0.00  0.00    +0.000 NA
ATOM      9  C   UNL     1      -0.629  -1.434  -4.255  0.00  0.00    +0.000 C 
BRANCH   7  11
ATOM     10  H   UNL     1      -3.169  -1.088  -1.973  0.00  0.00    +0.000 HD
ATOM     11  O   UNL     1      -2.661  -1.214  -2.838  0.00  0.00    +0.000 OA
ENDBRANCH   7  11
ENDBRANCH   1   8
BRANCH   2  12
ATOM     12  O   UNL     1      -0.486   1.678  -0.949  0.00  0.00    +0.000 OA
ATOM     13  H   UNL     1      -0.963   2.503  -1.226  0.00  0.00    +0.000 HD
ENDBRANCH   2  12
BRANCH   3  14
ATOM     14  O   UNL     1      -2.028   2.507   1.192  0.00  0.00    +0.000 OA
ATOM     15  H   UNL     1      -2.942   2.643   0.829  0.00  0.00    +0.000 HD
ENDBRANCH   3  14
BRANCH   6  16
ATOM     16  O   UNL     1       0.622  -2.233   0.352  0.00  0.00    +0.000 OA
ATOM     17  C   UNL     1       1.890  -2.406   0.948  0.00  0.00    +0.000 C 
ENDBRANCH   6  16
BRANCH   4  18
ATOM     18  C   UNL     1      -0.776   1.046   3.414  0.00  0.00    +0.000 C 
BRANCH  18  19
ATOM     19  O   UNL     1      -1.870   0.304   3.885  0.00  0.00    +0.000 OA
ATOM     20  H   UNL     1      -1.540  -0.617   4.053  0.00  0.00    +0.000 HD
ENDBRANCH  18  19
ENDBRANCH   4  18
TORSDOF 7
