REMARK  Name = ZINC000101178654
REMARK  11 active torsions:
REMARK  status: ('A' for Active; 'I' for Inactive)
REMARK    1  A    between atoms: O_2  and  C_3
REMARK    2  A    between atoms: C_3  and  C_36
REMARK    3  A    between atoms: N_4  and  C_5
REMARK    4  A    between atoms: C_7  and  O_9
REMARK    5  A    between atoms: C_11  and  O_13
REMARK    6  A    between atoms: C_15  and  C_17
REMARK    7  A    between atoms: C_17  and  O_20
REMARK    8  A    between atoms: C_23  and  O_25
REMARK    9  A    between atoms: O_25  and  C_26
REMARK   10  A    between atoms: C_26  and  C_28
REMARK   11  A    between atoms: C_26  and  C_32
REMARK                            x       y       z     vdW  Elec       q    Type
REMARK                         _______ _______ _______ _____ _____    ______ ____
ROOT
ATOM      1  C   UNL     1       0.650  -1.159   0.729  0.00  0.00    +0.000 C 
ATOM      2  C   UNL     1      -0.111  -0.712   1.992  0.00  0.00    +0.000 C 
ATOM      3  C   UNL     1       0.008   0.814   2.159  0.00  0.00    +0.000 C 
ATOM      4  C   UNL     1      -0.383   1.521   0.839  0.00  0.00    +0.000 C 
ATOM      5  O   UNL     1       0.426   1.058  -0.230  0.00  0.00    +0.000 OA
ATOM      6  C   UNL     1       0.190  -0.319  -0.481  0.00  0.00    +0.000 C 
ENDROOT
BRANCH   1   8
ATOM      7  C   UNL     1       1.252  -3.474   0.061  0.00  0.00    +0.000 C 
ATOM      8  N   UNL     1       0.398  -2.584   0.482  0.00  0.00    +0.000 NA
ATOM      9  C   UNL     1       2.698  -3.147  -0.194  0.00  0.00    +0.000 C 
BRANCH   7  11
ATOM     10  H   UNL     1       1.425  -5.513  -0.445  0.00  0.00    +0.000 HD
ATOM     11  O   UNL     1       0.803  -4.778  -0.130  0.00  0.00    +0.000 OA
ENDBRANCH   7  11
ENDBRANCH   1   8
BRANCH   2  12
ATOM     12  O   UNL     1      -1.469  -1.071   1.906  0.00  0.00    +0.000 OA
ATOM     13  H   UNL     1      -1.545  -2.005   2.233  0.00  0.00    +0.000 HD
ENDBRANCH   2  12
BRANCH   3  14
ATOM     14  O   UNL     1      -0.826   1.250   3.202  0.00  0.00    +0.000 OA
ATOM     15  H   UNL     1      -0.387   0.981   4.051  0.00  0.00    +0.000 HD
ENDBRANCH   3  14
BRANCH   4  16
ATOM     16  C   UNL     1      -0.222   3.043   0.947  0.00  0.00    +0.000 C 
BRANCH  16  17
ATOM     17  O   UNL     1       1.120   3.378   1.172  0.00  0.00    +0.000 OA
ATOM     18  H   UNL     1       1.150   4.368   1.232  0.00  0.00    +0.000 HD
ENDBRANCH  16  17
ENDBRANCH   4  16
BRANCH   6  19
ATOM     19  O   UNL     1       0.941  -0.709  -1.614  0.00  0.00    +0.000 OA
BRANCH  19  20
ATOM     20  C   UNL     1       0.321  -0.290  -2.817  0.00  0.00    +0.000 C 
ATOM     21  C   UNL     1      -0.483  -1.451  -3.408  0.00  0.00    +0.000 C 
ATOM     22  C   UNL     1       1.410   0.147  -3.796  0.00  0.00    +0.000 C 
ENDBRANCH  19  20
ENDBRANCH   6  19
TORSDOF 8
