REMARK  Name = ZINC000077269504
REMARK  5 active torsions:
REMARK  status: ('A' for Active; 'I' for Inactive)
REMARK    1  A    between atoms: C_1  and  C_2
REMARK    2  A    between atoms: N_4  and  C_5
REMARK    3  A    between atoms: C_6  and  O_7
REMARK    4  A    between atoms: C_12  and  C_13
REMARK    5  A    between atoms: C_21  and  O_22
REMARK                            x       y       z     vdW  Elec       q    Type
REMARK                         _______ _______ _______ _____ _____    ______ ____
ROOT
ATOM      1  C   UNL     1      -2.848   1.358   0.677  0.00  0.00    +0.000 C 
ATOM      2  C   UNL     1      -2.452   2.790   1.127  0.00  0.00    +0.000 C 
ATOM      3  O   UNL     1      -1.766   3.493   0.096  0.00  0.00    +0.000 OA
ATOM      4  C   UNL     1      -0.575   2.816  -0.266  0.00  0.00    +0.000 C 
ATOM      5  C   UNL     1       0.194   3.612  -1.317  0.00  0.00    +0.000 C 
ATOM      6  O   UNL     1       1.331   2.884  -1.740  0.00  0.00    +0.000 OA
ATOM      7  C   UNL     1       0.936   1.635  -2.290  0.00  0.00    +0.000 C 
ATOM      8  O   UNL     1       0.300   0.823  -1.312  0.00  0.00    +0.000 OA
ATOM      9  C   UNL     1      -0.893   1.448  -0.884  0.00  0.00    +0.000 C 
ATOM     10  C   UNL     1      -1.618   0.581   0.151  0.00  0.00    +0.000 C 
ENDROOT
BRANCH   7  11
ATOM     11  C   UNL     1       2.169   0.918  -2.772  0.00  0.00    +0.000 A 
ATOM     12  C   UNL     1       2.323   0.581  -4.129  0.00  0.00    +0.000 A 
ATOM     13  C   UNL     1       3.474  -0.086  -4.564  0.00  0.00    +0.000 A 
ATOM     14  C   UNL     1       4.478  -0.420  -3.651  0.00  0.00    +0.000 A 
ATOM     15  C   UNL     1       4.333  -0.088  -2.301  0.00  0.00    +0.000 A 
ATOM     16  C   UNL     1       3.186   0.578  -1.862  0.00  0.00    +0.000 A 
ENDBRANCH   7  11
BRANCH   1  20
ATOM     17  C   UNL     1      -4.898  -1.292   2.674  0.00  0.00    +0.000 C 
ATOM     18  C   UNL     1      -4.270  -0.571   1.526  0.00  0.00    +0.000 C 
ATOM     19  O   UNL     1      -4.441  -1.000   0.353  0.00  0.00    +0.000 OA
ATOM     20  N   UNL     1      -3.513   0.625   1.761  0.00  0.00    +0.000 N 
ATOM     21  H   UNL     1      -3.479   0.998   2.737  0.00  0.00    +0.000 HD
ENDBRANCH   1  20
BRANCH   2  22
ATOM     22  O   UNL     1      -1.688   2.758   2.308  0.00  0.00    +0.000 OA
ATOM     23  H   UNL     1      -1.576   3.702   2.594  0.00  0.00    +0.000 HD
ENDBRANCH   2  22
BRANCH  10  24
ATOM     24  O   UNL     1      -0.742   0.257   1.203  0.00  0.00    +0.000 OA
ATOM     25  H   UNL     1      -1.095  -0.566   1.631  0.00  0.00    +0.000 HD
ENDBRANCH  10  24
TORSDOF 4
