REMARK  Name = ZINC000105341667
REMARK  7 active torsions:
REMARK  status: ('A' for Active; 'I' for Inactive)
REMARK    1  A    between atoms: C_1  and  O_2
REMARK    2  A    between atoms: O_2  and  C_3
REMARK    3  A    between atoms: C_4  and  O_5
REMARK    4  A    between atoms: C_6  and  C_7
REMARK    5  A    between atoms: C_7  and  O_8
REMARK    6  A    between atoms: C_10  and  O_11
REMARK    7  A    between atoms: C_12  and  N_13
REMARK                            x       y       z     vdW  Elec       q    Type
REMARK                         _______ _______ _______ _____ _____    ______ ____
ROOT
ATOM      1  C   UNL     1       0.869   0.758  -0.501  0.00  0.00    +0.000 C 
ATOM      2  C   UNL     1       0.092   2.087  -0.376  0.00  0.00    +0.000 C 
ATOM      3  C   UNL     1      -1.312   1.986  -1.029  0.00  0.00    +0.000 C 
ATOM      4  O   UNL     1      -2.037   0.839  -0.597  0.00  0.00    +0.000 OA
ATOM      5  C   UNL     1      -1.340  -0.372  -0.850  0.00  0.00    +0.000 C 
ATOM      6  C   UNL     1      -0.018  -0.424  -0.058  0.00  0.00    +0.000 C 
ENDROOT
BRANCH   6   7
ATOM      7  N   UNL     1      -0.280  -0.379   1.387  0.00  0.00    +0.000 NA
ATOM      8  H   UNL     1      -0.846  -1.217   1.652  0.00  0.00    +0.000 HD
ATOM      9  H   UNL     1       0.627  -0.491   1.895  0.00  0.00    +0.000 HD
ENDBRANCH   6   7
BRANCH   1  11
ATOM     10  C   UNL     1       3.154   1.219  -0.467  0.00  0.00    +0.000 C 
ATOM     11  O   UNL     1       2.044   0.795   0.294  0.00  0.00    +0.000 OA
ENDBRANCH   1  11
BRANCH   2  12
ATOM     12  O   UNL     1      -0.039   2.429   0.982  0.00  0.00    +0.000 OA
ATOM     13  H   UNL     1      -0.228   3.403   1.018  0.00  0.00    +0.000 HD
ENDBRANCH   2  12
BRANCH   5  14
ATOM     14  O   UNL     1      -2.151  -1.453  -0.474  0.00  0.00    +0.000 OA
ATOM     15  H   UNL     1      -2.944  -1.431  -1.070  0.00  0.00    +0.000 HD
ENDBRANCH   5  14
BRANCH   3  16
ATOM     16  C   UNL     1      -1.274   2.125  -2.567  0.00  0.00    +0.000 C 
BRANCH  16  17
ATOM     17  O   UNL     1      -2.548   1.911  -3.112  0.00  0.00    +0.000 OA
ATOM     18  H   UNL     1      -3.084   2.721  -2.907  0.00  0.00    +0.000 HD
ENDBRANCH  16  17
ENDBRANCH   3  16
TORSDOF 6
