REMARK  Name = ZINC000032106889
REMARK  5 active torsions:
REMARK  status: ('A' for Active; 'I' for Inactive)
REMARK    1  A    between atoms: O_2  and  C_3
REMARK    2  A    between atoms: C_8  and  C_10
REMARK    3  A    between atoms: C_28  and  O_30
REMARK    4  A    between atoms: O_30  and  C_31
REMARK    5  A    between atoms: C_35  and  N_37
REMARK                            x       y       z     vdW  Elec       q    Type
REMARK                         _______ _______ _______ _____ _____    ______ ____
ROOT
ATOM      1  C   UNL     1      -0.927   2.252  -0.733  0.00  0.00    +0.000 C 
ATOM      2  C   UNL     1      -0.102   1.047  -0.206  0.00  0.00    +0.000 C 
ATOM      3  O   UNL     1      -0.008  -0.002  -1.154  0.00  0.00    +0.000 OA
ATOM      4  C   UNL     1       0.529  -1.200  -0.580  0.00  0.00    +0.000 C 
ATOM      5  O   UNL     1       1.214  -0.982   0.652  0.00  0.00    +0.000 OA
ATOM      6  C   UNL     1       0.323  -0.517   1.656  0.00  0.00    +0.000 C 
ATOM      7  C   UNL     1      -0.682   0.509   1.107  0.00  0.00    +0.000 C 
ATOM      8  O   UNL     1      -0.894   1.577   2.003  0.00  0.00    +0.000 OA
ATOM      9  C   UNL     1      -1.994   2.391   1.598  0.00  0.00    +0.000 C 
ATOM     10  C   UNL     1      -2.242   2.453   0.048  0.00  0.00    +0.000 C 
ENDROOT
BRANCH   4  11
ATOM     11  C   UNL     1       1.496  -1.808  -1.560  0.00  0.00    +0.000 A 
ATOM     12  C   UNL     1       2.609  -1.070  -1.998  0.00  0.00    +0.000 A 
ATOM     13  C   UNL     1       3.516  -1.630  -2.902  0.00  0.00    +0.000 A 
ATOM     14  C   UNL     1       3.321  -2.931  -3.375  0.00  0.00    +0.000 A 
ATOM     15  C   UNL     1       2.220  -3.674  -2.942  0.00  0.00    +0.000 A 
ATOM     16  C   UNL     1       1.310  -3.117  -2.038  0.00  0.00    +0.000 A 
ENDBRANCH   4  11
BRANCH  10  17
ATOM     17  N   UNL     1      -3.221   1.444  -0.361  0.00  0.00    +0.000 NA
ATOM     18  N   UNL     1      -4.291   1.767  -0.878  0.00  0.00    +0.000 NA
ATOM     19  N   UNL     1      -5.360   2.089  -1.395  0.00  0.00    +0.000 NA
ENDBRANCH  10  17
BRANCH   1  21
ATOM     20  H   UNL     1      -0.348   2.297  -2.585  0.00  0.00    +0.000 HD
ATOM     21  O   UNL     1      -1.201   2.126  -2.106  0.00  0.00    +0.000 OA
ENDBRANCH   1  21
BRANCH   9  22
ATOM     22  O   UNL     1      -3.156   1.943   2.280  0.00  0.00    +0.000 OA
ATOM     23  C   UNL     1      -4.024   3.021   2.556  0.00  0.00    +0.000 C 
ENDBRANCH   9  22
TORSDOF 4
