REMARK  Name = ZINC000019898298
REMARK  8 active torsions:
REMARK  status: ('A' for Active; 'I' for Inactive)
REMARK    1  A    between atoms: C_1  and  O_2
REMARK    2  A    between atoms: O_2  and  C_3
REMARK    3  A    between atoms: C_5  and  C_6
REMARK    4  A    between atoms: C_6  and  O_7
REMARK    5  A    between atoms: C_8  and  O_9
REMARK    6  A    between atoms: C_10  and  O_11
REMARK    7  A    between atoms: C_12  and  N_13
REMARK    8  A    between atoms: C_14  and  C_16
REMARK                            x       y       z     vdW  Elec       q    Type
REMARK                         _______ _______ _______ _____ _____    ______ ____
ROOT
ATOM      1  C   UNL     1       1.146  -0.446  -1.177  0.00  0.00    +0.000 C 
ATOM      2  O   UNL     1       1.484  -1.799  -1.440  0.00  0.00    +0.000 OA
ATOM      3  C   UNL     1       1.811  -2.479  -0.239  0.00  0.00    +0.000 C 
ATOM      4  C   UNL     1       0.572  -2.569   0.685  0.00  0.00    +0.000 C 
ATOM      5  C   UNL     1       0.031  -1.157   0.979  0.00  0.00    +0.000 C 
ATOM      6  C   UNL     1      -0.151  -0.385  -0.344  0.00  0.00    +0.000 C 
ENDROOT
BRANCH   6   7
ATOM      7  N   UNL     1      -0.532   1.007  -0.081  0.00  0.00    +0.000 N 
ATOM      8  C   UNL     1      -1.884   1.385   0.226  0.00  0.00    +0.000 C 
ATOM      9  O   UNL     1      -2.761   0.492   0.384  0.00  0.00    +0.000 OA
ATOM     10  H   UNL     1       0.225   1.725  -0.014  0.00  0.00    +0.000 HD
BRANCH   8  11
ATOM     11  C   UNL     1      -2.266   2.810   0.375  0.00  0.00    +0.000 A 
ATOM     12  C   UNL     1      -3.391   3.160   1.145  0.00  0.00    +0.000 A 
ATOM     13  C   UNL     1      -3.762   4.500   1.289  0.00  0.00    +0.000 A 
ATOM     14  C   UNL     1      -3.022   5.504   0.661  0.00  0.00    +0.000 A 
ATOM     15  C   UNL     1      -1.911   5.169  -0.117  0.00  0.00    +0.000 A 
ATOM     16  C   UNL     1      -1.534   3.830  -0.263  0.00  0.00    +0.000 A 
ENDBRANCH   8  11
ENDBRANCH   6   7
BRANCH   1  18
ATOM     17  C   UNL     1       2.144   0.508  -3.037  0.00  0.00    +0.000 C 
ATOM     18  O   UNL     1       0.916   0.219  -2.405  0.00  0.00    +0.000 OA
ENDBRANCH   1  18
BRANCH   4  19
ATOM     19  O   UNL     1       0.916  -3.211   1.887  0.00  0.00    +0.000 OA
ATOM     20  H   UNL     1       0.064  -3.474   2.324  0.00  0.00    +0.000 HD
ENDBRANCH   4  19
BRANCH   5  21
ATOM     21  O   UNL     1       0.923  -0.477   1.828  0.00  0.00    +0.000 OA
ATOM     22  H   UNL     1       0.395   0.205   2.318  0.00  0.00    +0.000 HD
ENDBRANCH   5  21
BRANCH   3  23
ATOM     23  C   UNL     1       2.345  -3.872  -0.599  0.00  0.00    +0.000 C 
BRANCH  23  24
ATOM     24  O   UNL     1       1.384  -4.594  -1.320  0.00  0.00    +0.000 OA
ATOM     25  H   UNL     1       1.793  -5.477  -1.516  0.00  0.00    +0.000 HD
ENDBRANCH  23  24
ENDBRANCH   3  23
TORSDOF 7
