REMARK  Name = ZINC000102863660
REMARK  12 active torsions:
REMARK  status: ('A' for Active; 'I' for Inactive)
REMARK    1  A    between atoms: O_2  and  C_3
REMARK    2  A    between atoms: C_3  and  C_39
REMARK    3  A    between atoms: N_4  and  C_5
REMARK    4  A    between atoms: C_7  and  O_9
REMARK    5  A    between atoms: O_9  and  C_10
REMARK    6  A    between atoms: C_10  and  C_11
REMARK    7  A    between atoms: C_10  and  C_15
REMARK    8  A    between atoms: C_10  and  C_19
REMARK    9  A    between atoms: C_24  and  C_26
REMARK   10  A    between atoms: C_26  and  O_29
REMARK   11  A    between atoms: C_31  and  O_33
REMARK   12  A    between atoms: C_35  and  O_37
REMARK                            x       y       z     vdW  Elec       q    Type
REMARK                         _______ _______ _______ _____ _____    ______ ____
ROOT
ATOM      1  C   UNL     1      -0.807   0.927  -0.435  0.00  0.00    +0.000 C 
ATOM      2  C   UNL     1       0.204  -0.201  -0.163  0.00  0.00    +0.000 C 
ATOM      3  O   UNL     1      -0.386  -1.455  -0.462  0.00  0.00    +0.000 OA
ATOM      4  C   UNL     1      -1.452  -1.738   0.430  0.00  0.00    +0.000 C 
ATOM      5  C   UNL     1      -2.600  -0.721   0.222  0.00  0.00    +0.000 C 
ATOM      6  C   UNL     1      -2.073   0.713   0.418  0.00  0.00    +0.000 C 
ENDROOT
BRANCH   1   8
ATOM      7  C   UNL     1      -0.471   3.373  -0.650  0.00  0.00    +0.000 C 
ATOM      8  N   UNL     1      -0.187   2.218  -0.118  0.00  0.00    +0.000 NA
ATOM      9  C   UNL     1      -1.492   3.531  -1.739  0.00  0.00    +0.000 C 
BRANCH   7  11
ATOM     10  H   UNL     1       0.915   4.444   0.513  0.00  0.00    +0.000 HD
ATOM     11  O   UNL     1       0.211   4.505  -0.213  0.00  0.00    +0.000 OA
ENDBRANCH   7  11
ENDBRANCH   1   8
BRANCH   5  12
ATOM     12  O   UNL     1      -3.646  -0.963   1.131  0.00  0.00    +0.000 OA
ATOM     13  H   UNL     1      -4.299  -1.555   0.676  0.00  0.00    +0.000 HD
ENDBRANCH   5  12
BRANCH   6  14
ATOM     14  O   UNL     1      -1.774   0.943   1.775  0.00  0.00    +0.000 OA
ATOM     15  H   UNL     1      -2.622   1.203   2.221  0.00  0.00    +0.000 HD
ENDBRANCH   6  14
BRANCH   2  16
ATOM     16  O   UNL     1       1.316  -0.013  -1.025  0.00  0.00    +0.000 OA
BRANCH  16  17
ATOM     17  C   UNL     1       2.573  -0.425  -0.488  0.00  0.00    +0.000 C 
ATOM     18  C   UNL     1       2.550  -1.869   0.073  0.00  0.00    +0.000 C 
ATOM     19  C   UNL     1       3.569  -0.393  -1.660  0.00  0.00    +0.000 C 
ATOM     20  C   UNL     1       3.070   0.571   0.584  0.00  0.00    +0.000 C 
ENDBRANCH  16  17
ENDBRANCH   2  16
BRANCH   4  21
ATOM     21  C   UNL     1      -1.931  -3.173   0.170  0.00  0.00    +0.000 C 
BRANCH  21  22
ATOM     22  O   UNL     1      -0.864  -4.075   0.292  0.00  0.00    +0.000 OA
ATOM     23  H   UNL     1      -0.677  -4.164   1.263  0.00  0.00    +0.000 HD
ENDBRANCH  21  22
ENDBRANCH   4  21
TORSDOF 8
