REMARK  Name = ZINC000101178654
REMARK  11 active torsions:
REMARK  status: ('A' for Active; 'I' for Inactive)
REMARK    1  A    between atoms: O_2  and  C_3
REMARK    2  A    between atoms: C_3  and  C_36
REMARK    3  A    between atoms: N_4  and  C_5
REMARK    4  A    between atoms: C_7  and  O_9
REMARK    5  A    between atoms: C_11  and  O_13
REMARK    6  A    between atoms: C_15  and  C_17
REMARK    7  A    between atoms: C_17  and  O_20
REMARK    8  A    between atoms: C_23  and  O_25
REMARK    9  A    between atoms: O_25  and  C_26
REMARK   10  A    between atoms: C_26  and  C_28
REMARK   11  A    between atoms: C_26  and  C_32
REMARK                            x       y       z     vdW  Elec       q    Type
REMARK                         _______ _______ _______ _____ _____    ______ ____
ROOT
ATOM      1  C   UNL     1      -0.992   0.132   0.108  0.00  0.00    +0.000 C 
ATOM      2  C   UNL     1      -1.663  -1.261   0.205  0.00  0.00    +0.000 C 
ATOM      3  C   UNL     1      -1.224  -2.162  -0.972  0.00  0.00    +0.000 C 
ATOM      4  C   UNL     1       0.312  -2.098  -1.186  0.00  0.00    +0.000 C 
ATOM      5  O   UNL     1       0.725  -0.754  -1.361  0.00  0.00    +0.000 OA
ATOM      6  C   UNL     1       0.518  -0.005  -0.174  0.00  0.00    +0.000 C 
ENDROOT
BRANCH   1   8
ATOM      7  C   UNL     1      -2.275   1.486   1.733  0.00  0.00    +0.000 C 
ATOM      8  N   UNL     1      -1.183   0.888   1.348  0.00  0.00    +0.000 NA
ATOM      9  C   UNL     1      -2.281   2.200   3.043  0.00  0.00    +0.000 C 
BRANCH   7  11
ATOM     10  H   UNL     1      -3.497   1.089   0.034  0.00  0.00    +0.000 HD
ATOM     11  O   UNL     1      -3.433   1.510   0.951  0.00  0.00    +0.000 OA
ENDBRANCH   7  11
ENDBRANCH   1   8
BRANCH   2  12
ATOM     12  O   UNL     1      -1.428  -1.868   1.455  0.00  0.00    +0.000 OA
ATOM     13  H   UNL     1      -0.456  -2.032   1.547  0.00  0.00    +0.000 HD
ENDBRANCH   2  12
BRANCH   3  14
ATOM     14  O   UNL     1      -1.677  -3.482  -0.792  0.00  0.00    +0.000 OA
ATOM     15  H   UNL     1      -1.142  -3.892  -0.064  0.00  0.00    +0.000 HD
ENDBRANCH   3  14
BRANCH   4  16
ATOM     16  C   UNL     1       0.740  -2.909  -2.420  0.00  0.00    +0.000 C 
BRANCH  16  17
ATOM     17  O   UNL     1       0.133  -2.421  -3.587  0.00  0.00    +0.000 OA
ATOM     18  H   UNL     1       0.648  -1.619  -3.863  0.00  0.00    +0.000 HD
ENDBRANCH  16  17
ENDBRANCH   4  16
BRANCH   6  19
ATOM     19  O   UNL     1       1.051   1.294  -0.356  0.00  0.00    +0.000 OA
BRANCH  19  20
ATOM     20  C   UNL     1       2.466   1.291  -0.259  0.00  0.00    +0.000 C 
ATOM     21  C   UNL     1       3.026   2.256  -1.302  0.00  0.00    +0.000 C 
ATOM     22  C   UNL     1       2.882   1.733   1.147  0.00  0.00    +0.000 C 
ENDBRANCH  19  20
ENDBRANCH   6  19
TORSDOF 8
