REMARK  Name = ZINC000032106889
REMARK  5 active torsions:
REMARK  status: ('A' for Active; 'I' for Inactive)
REMARK    1  A    between atoms: O_2  and  C_3
REMARK    2  A    between atoms: C_8  and  C_10
REMARK    3  A    between atoms: C_28  and  O_30
REMARK    4  A    between atoms: O_30  and  C_31
REMARK    5  A    between atoms: C_35  and  N_37
REMARK                            x       y       z     vdW  Elec       q    Type
REMARK                         _______ _______ _______ _____ _____    ______ ____
ROOT
ATOM      1  C   UNL     1      -1.101   2.127  -1.073  0.00  0.00    +0.000 C 
ATOM      2  C   UNL     1      -0.480   0.858  -0.471  0.00  0.00    +0.000 C 
ATOM      3  O   UNL     1       0.019   0.014  -1.495  0.00  0.00    +0.000 OA
ATOM      4  C   UNL     1       0.282  -1.311  -1.033  0.00  0.00    +0.000 C 
ATOM      5  O   UNL     1       0.390  -1.402   0.382  0.00  0.00    +0.000 OA
ATOM      6  C   UNL     1      -0.860  -1.125   0.990  0.00  0.00    +0.000 C 
ATOM      7  C   UNL     1      -1.531   0.124   0.392  0.00  0.00    +0.000 C 
ATOM      8  O   UNL     1      -2.151   0.897   1.418  0.00  0.00    +0.000 OA
ATOM      9  C   UNL     1      -1.809   2.279   1.406  0.00  0.00    +0.000 C 
ATOM     10  C   UNL     1      -1.947   2.897  -0.010  0.00  0.00    +0.000 C 
ENDROOT
BRANCH   4  11
ATOM     11  C   UNL     1       1.578  -1.779  -1.639  0.00  0.00    +0.000 A 
ATOM     12  C   UNL     1       1.624  -2.933  -2.442  0.00  0.00    +0.000 A 
ATOM     13  C   UNL     1       2.836  -3.361  -2.992  0.00  0.00    +0.000 A 
ATOM     14  C   UNL     1       4.010  -2.645  -2.745  0.00  0.00    +0.000 A 
ATOM     15  C   UNL     1       3.975  -1.500  -1.946  0.00  0.00    +0.000 A 
ATOM     16  C   UNL     1       2.765  -1.067  -1.393  0.00  0.00    +0.000 A 
ENDBRANCH   4  11
BRANCH  10  17
ATOM     17  N   UNL     1      -3.358   3.019  -0.394  0.00  0.00    +0.000 NA
ATOM     18  N   UNL     1      -4.108   2.044  -0.464  0.00  0.00    +0.000 NA
ATOM     19  N   UNL     1      -4.860   1.073  -0.536  0.00  0.00    +0.000 NA
ENDBRANCH  10  17
BRANCH   1  21
ATOM     20  H   UNL     1      -1.972   2.620  -2.737  0.00  0.00    +0.000 HD
ATOM     21  O   UNL     1      -1.867   1.789  -2.203  0.00  0.00    +0.000 OA
ENDBRANCH   1  21
BRANCH   9  22
ATOM     22  O   UNL     1      -2.662   2.982   2.290  0.00  0.00    +0.000 OA
ATOM     23  C   UNL     1      -2.310   2.709   3.630  0.00  0.00    +0.000 C 
ENDBRANCH   9  22
TORSDOF 4
