REMARK  Name = ZINC000106382957
REMARK  9 active torsions:
REMARK  status: ('A' for Active; 'I' for Inactive)
REMARK    1  A    between atoms: C_1  and  C_2
REMARK    2  A    between atoms: N_4  and  C_5
REMARK    3  A    between atoms: C_6  and  O_7
REMARK    4  A    between atoms: O_7  and  C_8
REMARK    5  A    between atoms: C_13  and  C_14
REMARK    6  A    between atoms: C_17  and  C_18
REMARK    7  A    between atoms: C_18  and  O_19
REMARK    8  A    between atoms: C_20  and  O_21
REMARK    9  A    between atoms: C_22  and  O_23
REMARK                            x       y       z     vdW  Elec       q    Type
REMARK                         _______ _______ _______ _____ _____    ______ ____
ROOT
ATOM      1  C   UNL     1       2.196  -0.249  -0.572  0.00  0.00    +0.000 C 
ATOM      2  C   UNL     1       1.478   0.710   0.396  0.00  0.00    +0.000 C 
ATOM      3  O   UNL     1       2.347   1.073   1.455  0.00  0.00    +0.000 OA
ATOM      4  C   UNL     1       2.632  -0.049   2.272  0.00  0.00    +0.000 C 
ATOM      5  C   UNL     1       3.444  -1.101   1.470  0.00  0.00    +0.000 C 
ATOM      6  C   UNL     1       2.707  -1.506   0.170  0.00  0.00    +0.000 C 
ENDROOT
BRANCH   1  10
ATOM      7  C   UNL     1       0.367  -0.358  -4.016  0.00  0.00    +0.000 C 
ATOM      8  C   UNL     1       1.408  -0.054  -2.989  0.00  0.00    +0.000 C 
ATOM      9  O   UNL     1       2.356   0.725  -3.278  0.00  0.00    +0.000 OA
ATOM     10  N   UNL     1       1.302  -0.621  -1.675  0.00  0.00    +0.000 N 
ATOM     11  H   UNL     1       0.462  -1.206  -1.463  0.00  0.00    +0.000 HD
ENDBRANCH   1  10
BRANCH   5  12
ATOM     12  O   UNL     1       3.753  -2.234   2.245  0.00  0.00    +0.000 OA
ATOM     13  H   UNL     1       2.908  -2.574   2.640  0.00  0.00    +0.000 HD
ENDBRANCH   5  12
BRANCH   6  14
ATOM     14  O   UNL     1       1.675  -2.433   0.418  0.00  0.00    +0.000 OA
ATOM     15  H   UNL     1       1.009  -2.007   1.014  0.00  0.00    +0.000 HD
ENDBRANCH   6  14
BRANCH   2  16
ATOM     16  O   UNL     1       1.109   1.887  -0.322  0.00  0.00    +0.000 OA
BRANCH  16  17
ATOM     17  C   UNL     1       0.335   2.941   0.193  0.00  0.00    +0.000 A 
ATOM     18  C   UNL     1      -0.156   2.926   1.515  0.00  0.00    +0.000 A 
ATOM     19  C   UNL     1      -0.920   3.989   1.998  0.00  0.00    +0.000 A 
ATOM     20  C   UNL     1      -1.207   5.077   1.175  0.00  0.00    +0.000 A 
ATOM     21  C   UNL     1      -0.731   5.106  -0.137  0.00  0.00    +0.000 A 
ATOM     22  C   UNL     1       0.041   4.043  -0.640  0.00  0.00    +0.000 A 
BRANCH  22  23
ATOM     23  C   UNL     1       0.538   4.078  -2.033  0.00  0.00    +0.000 C 
ATOM     24  O   UNL     1       0.285   5.054  -2.788  0.00  0.00    +0.000 OA
ENDBRANCH  22  23
ENDBRANCH  16  17
ENDBRANCH   2  16
BRANCH   4  25
ATOM     25  C   UNL     1       3.428   0.432   3.494  0.00  0.00    +0.000 C 
BRANCH  25  26
ATOM     26  O   UNL     1       2.704   1.404   4.199  0.00  0.00    +0.000 OA
ATOM     27  H   UNL     1       1.988   0.924   4.692  0.00  0.00    +0.000 HD
ENDBRANCH  25  26
ENDBRANCH   4  25
TORSDOF 8
