REMARK  Name = ZINC000015205814
REMARK  9 active torsions:
REMARK  status: ('A' for Active; 'I' for Inactive)
REMARK    1  A    between atoms: C_1  and  C_2
REMARK    2  A    between atoms: N_4  and  C_5
REMARK    3  A    between atoms: C_6  and  O_7
REMARK    4  A    between atoms: O_7  and  C_8
REMARK    5  A    between atoms: C_11  and  N_12
REMARK    6  A    between atoms: C_18  and  C_19
REMARK    7  A    between atoms: C_19  and  O_20
REMARK    8  A    between atoms: C_21  and  O_22
REMARK    9  A    between atoms: C_23  and  O_24
REMARK                            x       y       z     vdW  Elec       q    Type
REMARK                         _______ _______ _______ _____ _____    ______ ____
ROOT
ATOM      1  C   UNL     1      -0.172   1.146  -0.736  0.00  0.00    +0.000 C 
ATOM      2  C   UNL     1       1.236   0.564  -0.468  0.00  0.00    +0.000 C 
ATOM      3  O   UNL     1       2.166   1.623  -0.324  0.00  0.00    +0.000 OA
ATOM      4  C   UNL     1       2.316   2.342  -1.538  0.00  0.00    +0.000 C 
ATOM      5  C   UNL     1       0.989   3.053  -1.903  0.00  0.00    +0.000 C 
ATOM      6  C   UNL     1      -0.148   2.017  -2.005  0.00  0.00    +0.000 C 
ENDROOT
BRANCH   1  10
ATOM      7  C   UNL     1      -3.060  -1.381  -0.014  0.00  0.00    +0.000 C 
ATOM      8  C   UNL     1      -2.148  -0.208   0.142  0.00  0.00    +0.000 C 
ATOM      9  O   UNL     1      -2.211   0.487   1.192  0.00  0.00    +0.000 OA
ATOM     10  N   UNL     1      -1.172   0.081  -0.870  0.00  0.00    +0.000 N 
ATOM     11  H   UNL     1      -1.118  -0.557  -1.697  0.00  0.00    +0.000 HD
ENDBRANCH   1  10
BRANCH   5  12
ATOM     12  O   UNL     1       1.124   3.741  -3.121  0.00  0.00    +0.000 OA
ATOM     13  H   UNL     1       0.358   4.371  -3.179  0.00  0.00    +0.000 HD
ENDBRANCH   5  12
BRANCH   6  14
ATOM     14  O   UNL     1       0.035   1.206  -3.141  0.00  0.00    +0.000 OA
ATOM     15  H   UNL     1      -0.351   1.696  -3.913  0.00  0.00    +0.000 HD
ENDBRANCH   6  14
BRANCH   2  16
ATOM     16  O   UNL     1       1.231  -0.171   0.760  0.00  0.00    +0.000 OA
BRANCH  16  17
ATOM     17  C   UNL     1       0.821  -1.504   0.941  0.00  0.00    +0.000 A 
ATOM     18  C   UNL     1       0.620  -1.951   2.251  0.00  0.00    +0.000 A 
ATOM     19  C   UNL     1       0.196  -3.259   2.502  0.00  0.00    +0.000 A 
ATOM     20  C   UNL     1      -0.027  -4.152   1.441  0.00  0.00    +0.000 A 
ATOM     21  C   UNL     1       0.189  -3.708   0.124  0.00  0.00    +0.000 A 
ATOM     22  C   UNL     1       0.612  -2.400  -0.125  0.00  0.00    +0.000 A 
BRANCH  20  23
ATOM     23  N   UNL     1      -0.468  -5.497   1.701  0.00  0.00    +0.000 N 
ATOM     24  O   UNL     1      -0.670  -6.294   0.761  0.00  0.00    +0.000 OA
ATOM     25  O   UNL     1      -0.677  -5.927   2.991  0.00  0.00    +0.000 OA
ENDBRANCH  20  23
ENDBRANCH  16  17
ENDBRANCH   2  16
BRANCH   4  26
ATOM     26  C   UNL     1       3.460   3.353  -1.348  0.00  0.00    +0.000 C 
BRANCH  26  27
ATOM     27  O   UNL     1       3.800   3.973  -2.559  0.00  0.00    +0.000 OA
ATOM     28  H   UNL     1       4.308   3.305  -3.088  0.00  0.00    +0.000 HD
ENDBRANCH  26  27
ENDBRANCH   4  26
TORSDOF 8
