REMARK  Name = ZINC000102863660
REMARK  11 active torsions:
REMARK  status: ('A' for Active; 'I' for Inactive)
REMARK    1  A    between atoms: C_1  and  C_2
REMARK    2  A    between atoms: N_4  and  C_5
REMARK    3  A    between atoms: C_6  and  O_7
REMARK    4  A    between atoms: O_7  and  C_8
REMARK    5  A    between atoms: C_8  and  C_9
REMARK    6  A    between atoms: C_8  and  C_10
REMARK    7  A    between atoms: C_8  and  C_11
REMARK    8  A    between atoms: C_13  and  C_14
REMARK    9  A    between atoms: C_14  and  O_15
REMARK   10  A    between atoms: C_16  and  O_17
REMARK   11  A    between atoms: C_18  and  O_19
REMARK                            x       y       z     vdW  Elec       q    Type
REMARK                         _______ _______ _______ _____ _____    ______ ____
ROOT
ATOM      1  C   UNL     1       0.059   0.987   1.676  0.00  0.00    +0.000 C 
ATOM      2  C   UNL     1       0.375  -0.221   0.772  0.00  0.00    +0.000 C 
ATOM      3  O   UNL     1       0.984  -1.248   1.538  0.00  0.00    +0.000 OA
ATOM      4  C   UNL     1       2.248  -0.834   2.028  0.00  0.00    +0.000 C 
ATOM      5  C   UNL     1       2.084   0.339   3.025  0.00  0.00    +0.000 C 
ATOM      6  C   UNL     1       1.349   1.509   2.339  0.00  0.00    +0.000 C 
ENDROOT
BRANCH   1  10
ATOM      7  C   UNL     1      -2.614   3.257  -0.035  0.00  0.00    +0.000 C 
ATOM      8  C   UNL     1      -2.012   2.236   0.875  0.00  0.00    +0.000 C 
ATOM      9  O   UNL     1      -2.765   1.522   1.591  0.00  0.00    +0.000 OA
ATOM     10  N   UNL     1      -0.590   2.048   0.897  0.00  0.00    +0.000 N 
ATOM     11  H   UNL     1      -0.018   2.586   0.207  0.00  0.00    +0.000 HD
ENDBRANCH   1  10
BRANCH   5  12
ATOM     12  O   UNL     1       3.343   0.760   3.486  0.00  0.00    +0.000 OA
ATOM     13  H   UNL     1       3.180   1.325   4.286  0.00  0.00    +0.000 HD
ENDBRANCH   5  12
BRANCH   6  14
ATOM     14  O   UNL     1       2.181   2.104   1.373  0.00  0.00    +0.000 OA
ATOM     15  H   UNL     1       2.761   2.754   1.850  0.00  0.00    +0.000 HD
ENDBRANCH   6  14
BRANCH   2  16
ATOM     16  O   UNL     1      -0.851  -0.715   0.255  0.00  0.00    +0.000 OA
BRANCH  16  17
ATOM     17  C   UNL     1      -0.780  -1.242  -1.069  0.00  0.00    +0.000 C 
ATOM     18  C   UNL     1       0.344  -2.293  -1.244  0.00  0.00    +0.000 C 
ATOM     19  C   UNL     1      -2.124  -1.946  -1.320  0.00  0.00    +0.000 C 
ATOM     20  C   UNL     1      -0.638  -0.108  -2.110  0.00  0.00    +0.000 C 
ENDBRANCH  16  17
ENDBRANCH   2  16
BRANCH   4  21
ATOM     21  C   UNL     1       2.932  -2.039   2.686  0.00  0.00    +0.000 C 
BRANCH  21  22
ATOM     22  O   UNL     1       2.146  -2.537   3.734  0.00  0.00    +0.000 OA
ATOM     23  H   UNL     1       2.645  -3.308   4.110  0.00  0.00    +0.000 HD
ENDBRANCH  21  22
ENDBRANCH   4  21
TORSDOF 7
