REMARK  Name = ZINC000100342293
REMARK  9 active torsions:
REMARK  status: ('A' for Active; 'I' for Inactive)
REMARK    1  A    between atoms: C_1  and  O_2
REMARK    2  A    between atoms: O_2  and  C_3
REMARK    3  A    between atoms: C_6  and  C_7
REMARK    4  A    between atoms: N_8  and  C_9
REMARK    5  A    between atoms: C_10  and  O_11
REMARK    6  A    between atoms: C_13  and  C_14
REMARK    7  A    between atoms: C_14  and  O_15
REMARK    8  A    between atoms: C_16  and  O_17
REMARK    9  A    between atoms: C_18  and  O_19
REMARK                            x       y       z     vdW  Elec       q    Type
REMARK                         _______ _______ _______ _____ _____    ______ ____
ROOT
ATOM      1  C   UNL     1       1.335   1.281   0.167  0.00  0.00    +0.000 C 
ATOM      2  C   UNL     1       1.050   2.272  -0.985  0.00  0.00    +0.000 C 
ATOM      3  O   UNL     1       2.073   3.251  -1.092  0.00  0.00    +0.000 OA
ATOM      4  C   UNL     1       2.181   4.032   0.090  0.00  0.00    +0.000 C 
ATOM      5  C   UNL     1       2.582   3.151   1.297  0.00  0.00    +0.000 C 
ATOM      6  C   UNL     1       1.544   2.029   1.493  0.00  0.00    +0.000 C 
ENDROOT
BRANCH   1   8
ATOM      7  C   UNL     1       0.022  -0.636  -0.542  0.00  0.00    +0.000 C 
ATOM      8  N   UNL     1       0.245   0.316   0.311  0.00  0.00    +0.000 NA
BRANCH   7  12
ATOM      9  C   UNL     1      -3.225  -3.405  -0.040  0.00  0.00    +0.000 A 
ATOM     10  C   UNL     1      -3.019  -2.384   0.906  0.00  0.00    +0.000 A 
ATOM     11  C   UNL     1      -1.964  -1.479   0.750  0.00  0.00    +0.000 A 
ATOM     12  C   UNL     1      -1.098  -1.579  -0.353  0.00  0.00    +0.000 A 
ATOM     13  C   UNL     1      -1.307  -2.599  -1.294  0.00  0.00    +0.000 A 
ATOM     14  C   UNL     1      -2.361  -3.502  -1.137  0.00  0.00    +0.000 A 
BRANCH   9  16
ATOM     15  C   UNL     1      -5.217  -4.356   1.134  0.00  0.00    +0.000 C 
ATOM     16  O   UNL     1      -4.268  -4.337   0.073  0.00  0.00    +0.000 OA
ENDBRANCH   9  16
ENDBRANCH   7  12
ENDBRANCH   1   8
BRANCH   2  17
ATOM     17  O   UNL     1      -0.214   2.870  -0.837  0.00  0.00    +0.000 OA
ATOM     18  H   UNL     1      -0.371   3.399  -1.662  0.00  0.00    +0.000 HD
ENDBRANCH   2  17
BRANCH   5  19
ATOM     19  O   UNL     1       2.670   3.937   2.458  0.00  0.00    +0.000 OA
ATOM     20  H   UNL     1       3.163   3.398   3.131  0.00  0.00    +0.000 HD
ENDBRANCH   5  19
BRANCH   6  21
ATOM     21  O   UNL     1       0.321   2.563   1.942  0.00  0.00    +0.000 OA
ATOM     22  H   UNL     1       0.397   2.677   2.925  0.00  0.00    +0.000 HD
ENDBRANCH   6  21
BRANCH   4  23
ATOM     23  C   UNL     1       3.210   5.143  -0.158  0.00  0.00    +0.000 C 
BRANCH  23  24
ATOM     24  O   UNL     1       4.457   4.593  -0.483  0.00  0.00    +0.000 OA
ATOM     25  H   UNL     1       5.068   5.361  -0.626  0.00  0.00    +0.000 HD
ENDBRANCH  23  24
ENDBRANCH   4  23
TORSDOF 8
