REMARK  Name = ZINC000077269504
REMARK  6 active torsions:
REMARK  status: ('A' for Active; 'I' for Inactive)
REMARK    1  A    between atoms: O_2  and  C_3
REMARK    2  A    between atoms: C_3  and  C_38
REMARK    3  A    between atoms: N_4  and  C_5
REMARK    4  A    between atoms: C_7  and  O_9
REMARK    5  A    between atoms: C_18  and  C_20
REMARK    6  A    between atoms: C_34  and  O_36
REMARK                            x       y       z     vdW  Elec       q    Type
REMARK                         _______ _______ _______ _____ _____    ______ ____
ROOT
ATOM      1  C   UNL     1       0.722   2.204  -1.597  0.00  0.00    +0.000 C 
ATOM      2  C   UNL     1       1.724   1.525  -2.563  0.00  0.00    +0.000 C 
ATOM      3  O   UNL     1       1.277   0.236  -2.971  0.00  0.00    +0.000 OA
ATOM      4  C   UNL     1       1.116  -0.617  -1.851  0.00  0.00    +0.000 C 
ATOM      5  C   UNL     1       0.710  -2.018  -2.300  0.00  0.00    +0.000 C 
ATOM      6  O   UNL     1       0.456  -2.835  -1.174  0.00  0.00    +0.000 OA
ATOM      7  C   UNL     1      -0.584  -2.272  -0.386  0.00  0.00    +0.000 C 
ATOM      8  O   UNL     1      -0.203  -1.006   0.136  0.00  0.00    +0.000 OA
ATOM      9  C   UNL     1       0.002  -0.100  -0.930  0.00  0.00    +0.000 C 
ATOM     10  C   UNL     1       0.390   1.284  -0.398  0.00  0.00    +0.000 C 
ENDROOT
BRANCH   7  11
ATOM     11  C   UNL     1      -0.856  -3.197   0.771  0.00  0.00    +0.000 A 
ATOM     12  C   UNL     1       0.161  -3.478   1.701  0.00  0.00    +0.000 A 
ATOM     13  C   UNL     1      -0.083  -4.336   2.777  0.00  0.00    +0.000 A 
ATOM     14  C   UNL     1      -1.343  -4.921   2.934  0.00  0.00    +0.000 A 
ATOM     15  C   UNL     1      -2.359  -4.649   2.015  0.00  0.00    +0.000 A 
ATOM     16  C   UNL     1      -2.120  -3.791   0.937  0.00  0.00    +0.000 A 
ENDBRANCH   7  11
BRANCH   1  18
ATOM     17  C   UNL     1       0.559   4.428  -0.594  0.00  0.00    +0.000 C 
ATOM     18  N   UNL     1       1.265   3.487  -1.146  0.00  0.00    +0.000 NA
ATOM     19  C   UNL     1       1.226   5.699  -0.176  0.00  0.00    +0.000 C 
BRANCH  17  21
ATOM     20  H   UNL     1      -1.377   5.013  -0.008  0.00  0.00    +0.000 HD
ATOM     21  O   UNL     1      -0.817   4.278  -0.422  0.00  0.00    +0.000 OA
ENDBRANCH  17  21
ENDBRANCH   1  18
BRANCH   2  22
ATOM     22  O   UNL     1       3.007   1.459  -1.992  0.00  0.00    +0.000 OA
ATOM     23  H   UNL     1       3.612   1.121  -2.703  0.00  0.00    +0.000 HD
ENDBRANCH   2  22
BRANCH  10  24
ATOM     24  O   UNL     1       1.492   1.171   0.469  0.00  0.00    +0.000 OA
ATOM     25  H   UNL     1       1.467   1.958   1.073  0.00  0.00    +0.000 HD
ENDBRANCH  10  24
TORSDOF 5
