REMARK  Name = 134695375
REMARK  9 active torsions:
REMARK  status: ('A' for Active; 'I' for Inactive)
REMARK    1  A    between atoms: O_2  and  C_3
REMARK    2  A    between atoms: N_4  and  C_5
REMARK    3  A    between atoms: C_7  and  O_9
REMARK    4  A    between atoms: C_12  and  C_14
REMARK    5  A    between atoms: C_14  and  O_17
REMARK    6  A    between atoms: C_19  and  O_21
REMARK    7  A    between atoms: C_23  and  O_25
REMARK    8  A    between atoms: N_27  and  N_28
REMARK    9  A    between atoms: N_27  and  C_30
REMARK                            x       y       z     vdW  Elec       q    Type
REMARK                         _______ _______ _______ _____ _____    ______ ____
ROOT
ATOM      1  C   UNL     1      -1.211   0.086  -0.103  0.00  0.00    +0.000 C 
ATOM      2  C   UNL     1      -2.160  -0.209   1.107  0.00  0.00    +0.000 C 
ATOM      3  O   UNL     1      -3.448  -0.681   0.720  0.00  0.00    +0.000 OA
ATOM      4  C   UNL     1      -3.353  -1.596  -0.354  0.00  0.00    +0.000 C 
ATOM      5  C   UNL     1      -2.992  -0.836  -1.661  0.00  0.00    +0.000 C 
ATOM      6  C   UNL     1      -2.044   0.353  -1.369  0.00  0.00    +0.000 C 
ENDROOT
BRANCH   1   8
ATOM      7  C   UNL     1       0.673   1.199   0.994  0.00  0.00    +0.000 C 
ATOM      8  N   UNL     1      -0.329   1.226   0.165  0.00  0.00    +0.000 NA
ATOM      9  N   UNL     1       1.463   2.387   1.182  0.00  0.00    +0.000 N 
ATOM     10  C   UNL     1       2.712   2.344   1.948  0.00  0.00    +0.000 C 
BRANCH   7  12
ATOM     11  H   UNL     1       1.693  -0.038   2.388  0.00  0.00    +0.000 HD
ATOM     12  O   UNL     1       0.962   0.021   1.691  0.00  0.00    +0.000 OA
ENDBRANCH   7  12
BRANCH   9  13
ATOM     13  N   UNL     1       0.970   3.606   0.679  0.00  0.00    +0.000 NA
ATOM     14  O   UNL     1       1.567   4.686   0.870  0.00  0.00    +0.000 OA
ENDBRANCH   9  13
ENDBRANCH   1   8
BRANCH   2  15
ATOM     15  O   UNL     1      -2.324   0.934   1.907  0.00  0.00    +0.000 OA
ATOM     16  H   UNL     1      -2.851   1.585   1.374  0.00  0.00    +0.000 HD
ENDBRANCH   2  15
BRANCH   5  17
ATOM     17  O   UNL     1      -4.152  -0.358  -2.295  0.00  0.00    +0.000 OA
ATOM     18  H   UNL     1      -3.899  -0.139  -3.229  0.00  0.00    +0.000 HD
ENDBRANCH   5  17
BRANCH   6  19
ATOM     19  O   UNL     1      -1.200   0.553  -2.475  0.00  0.00    +0.000 OA
ATOM     20  H   UNL     1      -0.911   1.503  -2.453  0.00  0.00    +0.000 HD
ENDBRANCH   6  19
BRANCH   4  21
ATOM     21  C   UNL     1      -4.668  -2.386  -0.459  0.00  0.00    +0.000 C 
BRANCH  21  22
ATOM     22  O   UNL     1      -4.626  -3.288  -1.532  0.00  0.00    +0.000 OA
ATOM     23  H   UNL     1      -4.041  -4.039  -1.250  0.00  0.00    +0.000 HD
ENDBRANCH  21  22
ENDBRANCH   4  21
TORSDOF 8
