REMARK  Name = ZINC000102974493
REMARK  9 active torsions:
REMARK  status: ('A' for Active; 'I' for Inactive)
REMARK    1  A    between atoms: O_2  and  C_3
REMARK    2  A    between atoms: C_3  and  C_37
REMARK    3  A    between atoms: N_4  and  C_5
REMARK    4  A    between atoms: C_7  and  O_9
REMARK    5  A    between atoms: O_9  and  C_10
REMARK    6  A    between atoms: C_22  and  C_24
REMARK    7  A    between atoms: C_24  and  O_27
REMARK    8  A    between atoms: C_29  and  O_31
REMARK    9  A    between atoms: C_33  and  O_35
REMARK                            x       y       z     vdW  Elec       q    Type
REMARK                         _______ _______ _______ _____ _____    ______ ____
ROOT
ATOM      1  C   UNL     1       0.400  -0.737  -0.220  0.00  0.00    +0.000 C 
ATOM      2  C   UNL     1      -0.227  -0.427   1.161  0.00  0.00    +0.000 C 
ATOM      3  O   UNL     1       0.205  -1.396   2.100  0.00  0.00    +0.000 OA
ATOM      4  C   UNL     1      -0.310  -2.680   1.782  0.00  0.00    +0.000 C 
ATOM      5  C   UNL     1       0.275  -3.168   0.433  0.00  0.00    +0.000 C 
ATOM      6  C   UNL     1      -0.031  -2.140  -0.676  0.00  0.00    +0.000 C 
ENDROOT
BRANCH   1   8
ATOM      7  C   UNL     1       0.679   1.247  -1.685  0.00  0.00    +0.000 C 
ATOM      8  N   UNL     1      -0.020   0.246  -1.225  0.00  0.00    +0.000 NA
ATOM      9  C   UNL     1       2.088   1.520  -1.246  0.00  0.00    +0.000 C 
BRANCH   7  11
ATOM     10  H   UNL     1      -0.844   1.950  -2.953  0.00  0.00    +0.000 HD
ATOM     11  O   UNL     1       0.106   2.093  -2.631  0.00  0.00    +0.000 OA
ENDBRANCH   7  11
ENDBRANCH   1   8
BRANCH   5  12
ATOM     12  O   UNL     1      -0.267  -4.418   0.092  0.00  0.00    +0.000 OA
ATOM     13  H   UNL     1       0.312  -4.796  -0.621  0.00  0.00    +0.000 HD
ENDBRANCH   5  12
BRANCH   6  14
ATOM     14  O   UNL     1      -1.406  -2.140  -0.978  0.00  0.00    +0.000 OA
ATOM     15  H   UNL     1      -1.562  -2.882  -1.620  0.00  0.00    +0.000 HD
ENDBRANCH   6  14
BRANCH   2  16
ATOM     16  O   UNL     1       0.214   0.851   1.630  0.00  0.00    +0.000 OA
BRANCH  16  17
ATOM     17  C   UNL     1      -0.369   2.098   1.343  0.00  0.00    +0.000 A 
ATOM     18  C   UNL     1       0.281   3.245   1.817  0.00  0.00    +0.000 A 
ATOM     19  C   UNL     1      -0.238   4.517   1.557  0.00  0.00    +0.000 A 
ATOM     20  C   UNL     1      -1.418   4.655   0.821  0.00  0.00    +0.000 A 
ATOM     21 CL   UNL     1      -2.066   6.251   0.491  0.00  0.00    +0.000 Cl
ATOM     22  C   UNL     1      -2.080   3.518   0.348  0.00  0.00    +0.000 A 
ATOM     23  C   UNL     1      -1.564   2.245   0.607  0.00  0.00    +0.000 A 
ENDBRANCH  16  17
ENDBRANCH   2  16
BRANCH   4  24
ATOM     24  C   UNL     1       0.056  -3.632   2.928  0.00  0.00    +0.000 C 
BRANCH  24  25
ATOM     25  O   UNL     1      -0.614  -4.854   2.784  0.00  0.00    +0.000 OA
ATOM     26  H   UNL     1      -0.321  -5.421   3.545  0.00  0.00    +0.000 HD
ENDBRANCH  24  25
ENDBRANCH   4  24
TORSDOF 8
