REMARK  Name = ZINC000575124622
REMARK  6 active torsions:
REMARK  status: ('A' for Active; 'I' for Inactive)
REMARK    1  A    between atoms: C_1  and  O_2
REMARK    2  A    between atoms: O_2  and  C_3
REMARK    3  A    between atoms: C_8  and  C_9
REMARK    4  A    between atoms: C_17  and  O_18
REMARK    5  A    between atoms: C_19  and  N_20
REMARK    6  A    between atoms: C_21  and  C_22
REMARK                            x       y       z     vdW  Elec       q    Type
REMARK                         _______ _______ _______ _____ _____    ______ ____
ROOT
ATOM      1  C   UNL     1      -1.141  -1.742   0.506  0.00  0.00    +0.000 C 
ATOM      2  O   UNL     1      -1.335  -0.470  -0.099  0.00  0.00    +0.000 OA
ATOM      3  C   UNL     1      -0.153   0.305  -0.006  0.00  0.00    +0.000 C 
ATOM      4  C   UNL     1      -0.400   1.727  -0.542  0.00  0.00    +0.000 C 
ATOM      5  O   UNL     1       0.584   2.118  -1.482  0.00  0.00    +0.000 OA
ATOM      6  C   UNL     1       1.883   1.850  -0.970  0.00  0.00    +0.000 C 
ATOM      7  O   UNL     1       2.150   0.457  -0.801  0.00  0.00    +0.000 OA
ATOM      8  C   UNL     1       0.973  -0.331  -0.842  0.00  0.00    +0.000 C 
ATOM      9  C   UNL     1       1.259  -1.749  -0.321  0.00  0.00    +0.000 C 
ATOM     10  C   UNL     1      -0.064  -2.540  -0.263  0.00  0.00    +0.000 C 
ENDROOT
BRANCH   6  11
ATOM     11  C   UNL     1       2.898   2.418  -1.926  0.00  0.00    +0.000 A 
ATOM     12  C   UNL     1       3.001   1.902  -3.230  0.00  0.00    +0.000 A 
ATOM     13  C   UNL     1       3.936   2.429  -4.126  0.00  0.00    +0.000 A 
ATOM     14  C   UNL     1       4.772   3.475  -3.730  0.00  0.00    +0.000 A 
ATOM     15  C   UNL     1       4.675   3.998  -2.438  0.00  0.00    +0.000 A 
ATOM     16  C   UNL     1       3.741   3.474  -1.538  0.00  0.00    +0.000 A 
ENDBRANCH   6  11
BRANCH  10  17
ATOM     17  N   UNL     1       0.147  -3.848   0.370  0.00  0.00    +0.000 N 
ATOM     18  C   UNL     1      -0.344  -5.075  -0.189  0.00  0.00    +0.000 C 
ATOM     19  C   UNL     1      -0.165  -6.355   0.559  0.00  0.00    +0.000 C 
ATOM     20  O   UNL     1      -0.953  -5.080  -1.293  0.00  0.00    +0.000 OA
ATOM     21  H   UNL     1       0.571  -3.880   1.325  0.00  0.00    +0.000 HD
ENDBRANCH  10  17
BRANCH   1  23
ATOM     22  C   UNL     1      -3.254  -1.989   1.425  0.00  0.00    +0.000 C 
ATOM     23  O   UNL     1      -2.354  -2.469   0.450  0.00  0.00    +0.000 OA
ENDBRANCH   1  23
BRANCH   9  24
ATOM     24  O   UNL     1       1.846  -1.689   0.956  0.00  0.00    +0.000 OA
ATOM     25  H   UNL     1       2.815  -1.520   0.822  0.00  0.00    +0.000 HD
ENDBRANCH   9  24
TORSDOF 4
