REMARK  Name = 129878031
REMARK  9 active torsions:
REMARK  status: ('A' for Active; 'I' for Inactive)
REMARK    1  A    between atoms: C_2  and  C_3
REMARK    2  A    between atoms: C_3  and  C_4
REMARK    3  A    between atoms: C_4  and  C_5
REMARK    4  A    between atoms: N_7  and  C_8
REMARK    5  A    between atoms: C_9  and  O_10
REMARK    6  A    between atoms: C_12  and  C_13
REMARK    7  A    between atoms: C_13  and  O_14
REMARK    8  A    between atoms: C_15  and  O_16
REMARK    9  A    between atoms: C_17  and  O_18
REMARK                            x       y       z     vdW  Elec       q    Type
REMARK                         _______ _______ _______ _____ _____    ______ ____
ROOT
ATOM      1  C   UNL     1       1.693   0.324  -1.791  0.00  0.00    +0.000 C 
ATOM      2  C   UNL     1       2.595   1.160  -0.863  0.00  0.00    +0.000 C 
ATOM      3  O   UNL     1       1.814   2.046  -0.078  0.00  0.00    +0.000 OA
ATOM      4  C   UNL     1       1.194   3.027  -0.894  0.00  0.00    +0.000 C 
ATOM      5  C   UNL     1       0.179   2.358  -1.862  0.00  0.00    +0.000 C 
ATOM      6  C   UNL     1       0.876   1.266  -2.698  0.00  0.00    +0.000 C 
ENDROOT
BRANCH   1   9
ATOM      7  C   UNL     1       0.477  -1.881  -1.389  0.00  0.00    +0.000 C 
ATOM      8  O   UNL     1       0.997  -2.394  -2.417  0.00  0.00    +0.000 OA
ATOM      9  N   UNL     1       0.804  -0.538  -1.001  0.00  0.00    +0.000 N 
ATOM     10  H   UNL     1       0.320  -0.134  -0.168  0.00  0.00    +0.000 HD
BRANCH   7  11
ATOM     11  C   UNL     1      -0.456  -2.702  -0.549  0.00  0.00    +0.000 C 
BRANCH  11  12
ATOM     12  C   UNL     1       0.306  -3.591   0.443  0.00  0.00    +0.000 C 
BRANCH  12  14
ATOM     13  H   UNL     1       0.288  -2.131   2.063  0.00  0.00    +0.000 HD
ATOM     14  C   UNL     1       1.014  -2.781   1.529  0.00  0.00    +0.000 C 
ENDBRANCH  12  14
ENDBRANCH  11  12
ENDBRANCH   7  11
ENDBRANCH   1   9
BRANCH   2  15
ATOM     15  O   UNL     1       3.304   0.297  -0.015  0.00  0.00    +0.000 OA
ATOM     16  H   UNL     1       3.932   0.867   0.502  0.00  0.00    +0.000 HD
ENDBRANCH   2  15
BRANCH   5  17
ATOM     17  O   UNL     1      -0.428   3.303  -2.709  0.00  0.00    +0.000 OA
ATOM     18  H   UNL     1       0.292   3.757  -3.220  0.00  0.00    +0.000 HD
ENDBRANCH   5  17
BRANCH   6  19
ATOM     19  O   UNL     1      -0.085   0.545  -3.425  0.00  0.00    +0.000 OA
ATOM     20  H   UNL     1       0.405   0.044  -4.128  0.00  0.00    +0.000 HD
ENDBRANCH   6  19
BRANCH   4  21
ATOM     21  C   UNL     1       0.503   4.040   0.031  0.00  0.00    +0.000 C 
BRANCH  21  22
ATOM     22  O   UNL     1       0.085   5.169  -0.690  0.00  0.00    +0.000 OA
ATOM     23  H   UNL     1      -0.904   5.120  -0.764  0.00  0.00    +0.000 HD
ENDBRANCH  21  22
ENDBRANCH   4  21
TORSDOF 9
