REMARK  Name = ZINC000396869768
REMARK  9 active torsions:
REMARK  status: ('A' for Active; 'I' for Inactive)
REMARK    1  A    between atoms: C_1  and  O_2
REMARK    2  A    between atoms: O_2  and  C_3
REMARK    3  A    between atoms: C_3  and  C_4
REMARK    4  A    between atoms: C_6  and  O_7
REMARK    5  A    between atoms: C_8  and  N_9
REMARK    6  A    between atoms: C_10  and  O_11
REMARK    7  A    between atoms: O_11  and  C_12
REMARK    8  A    between atoms: C_13  and  O_14
REMARK    9  A    between atoms: O_14  and  C_15
REMARK                            x       y       z     vdW  Elec       q    Type
REMARK                         _______ _______ _______ _____ _____    ______ ____
ROOT
ATOM      1  C   UNL     1       0.591  -1.143   0.214  0.00  0.00    +0.000 C 
ATOM      2  O   UNL     1      -0.702  -1.033  -0.358  0.00  0.00    +0.000 OA
ATOM      3  C   UNL     1      -0.617  -0.905  -1.767  0.00  0.00    +0.000 C 
ATOM      4  C   UNL     1       0.084   0.419  -2.144  0.00  0.00    +0.000 C 
ATOM      5  C   UNL     1       1.489   0.471  -1.507  0.00  0.00    +0.000 C 
ATOM      6  C   UNL     1       1.389   0.166   0.002  0.00  0.00    +0.000 C 
ENDROOT
BRANCH   4   7
ATOM      7  N   UNL     1       0.184   0.551  -3.600  0.00  0.00    +0.000 NA
ATOM      8  H   UNL     1      -0.780   0.634  -3.995  0.00  0.00    +0.000 HD
ATOM      9  H   UNL     1       0.656   1.460  -3.816  0.00  0.00    +0.000 HD
ENDBRANCH   4   7
BRANCH   3  10
ATOM     10  O   UNL     1      -1.916  -0.904  -2.294  0.00  0.00    +0.000 OA
ATOM     11  H   UNL     1      -2.288  -1.808  -2.126  0.00  0.00    +0.000 HD
ENDBRANCH   3  10
BRANCH   5  12
ATOM     12  O   UNL     1       2.326  -0.492  -2.134  0.00  0.00    +0.000 OA
ATOM     13  C   UNL     1       3.506   0.106  -2.622  0.00  0.00    +0.000 C 
ENDBRANCH   5  12
BRANCH   6  14
ATOM     14  O   UNL     1       2.691   0.014   0.546  0.00  0.00    +0.000 OA
ATOM     15  C   UNL     1       3.121   1.212   1.153  0.00  0.00    +0.000 C 
ENDBRANCH   6  14
BRANCH   1  16
ATOM     16  C   UNL     1       0.437  -1.467   1.707  0.00  0.00    +0.000 C 
BRANCH  16  18
ATOM     17  C   UNL     1      -0.379  -0.726   3.729  0.00  0.00    +0.000 C 
ATOM     18  O   UNL     1      -0.289  -0.441   2.352  0.00  0.00    +0.000 OA
ENDBRANCH  16  18
ENDBRANCH   1  16
TORSDOF 6
