REMARK  Name = ZINC000396869768
REMARK  9 active torsions:
REMARK  status: ('A' for Active; 'I' for Inactive)
REMARK    1  A    between atoms: C_1  and  O_2
REMARK    2  A    between atoms: O_2  and  C_3
REMARK    3  A    between atoms: C_3  and  C_4
REMARK    4  A    between atoms: C_6  and  O_7
REMARK    5  A    between atoms: C_8  and  N_9
REMARK    6  A    between atoms: C_10  and  O_11
REMARK    7  A    between atoms: O_11  and  C_12
REMARK    8  A    between atoms: C_13  and  O_14
REMARK    9  A    between atoms: O_14  and  C_15
REMARK                            x       y       z     vdW  Elec       q    Type
REMARK                         _______ _______ _______ _____ _____    ______ ____
ROOT
ATOM      1  C   UNL     1       1.309   0.843   0.513  0.00  0.00    +0.000 C 
ATOM      2  O   UNL     1       1.906   1.185  -0.727  0.00  0.00    +0.000 OA
ATOM      3  C   UNL     1       0.926   1.319  -1.741  0.00  0.00    +0.000 C 
ATOM      4  C   UNL     1       0.250  -0.048  -2.007  0.00  0.00    +0.000 C 
ATOM      5  C   UNL     1      -0.382  -0.587  -0.704  0.00  0.00    +0.000 C 
ATOM      6  C   UNL     1       0.666  -0.562   0.429  0.00  0.00    +0.000 C 
ENDROOT
BRANCH   4   7
ATOM      7  N   UNL     1      -0.753   0.047  -3.077  0.00  0.00    +0.000 N 
ATOM      8  H   UNL     1      -0.284   0.254  -3.988  0.00  0.00    +0.000 HD
ATOM      9  H   UNL     1      -1.256  -0.865  -3.176  0.00  0.00    +0.000 HD
ATOM     10  H   UNL     1      -1.448   0.801  -2.870  0.00  0.00    +0.000 HD
ENDBRANCH   4   7
BRANCH   3  11
ATOM     11  O   UNL     1       1.570   1.762  -2.907  0.00  0.00    +0.000 OA
ATOM     12  H   UNL     1       0.914   2.301  -3.421  0.00  0.00    +0.000 HD
ENDBRANCH   3  11
BRANCH   5  13
ATOM     13  O   UNL     1      -1.490   0.226  -0.340  0.00  0.00    +0.000 OA
ATOM     14  C   UNL     1      -2.654  -0.553  -0.172  0.00  0.00    +0.000 C 
ENDBRANCH   5  13
BRANCH   6  15
ATOM     15  O   UNL     1       0.040  -0.863   1.667  0.00  0.00    +0.000 OA
ATOM     16  C   UNL     1       0.184  -2.231   1.980  0.00  0.00    +0.000 C 
ENDBRANCH   6  15
BRANCH   1  17
ATOM     17  C   UNL     1       2.396   0.878   1.600  0.00  0.00    +0.000 C 
BRANCH  17  19
ATOM     18  C   UNL     1       2.457   2.967   2.614  0.00  0.00    +0.000 C 
ATOM     19  O   UNL     1       3.030   2.144   1.622  0.00  0.00    +0.000 OA
ENDBRANCH  17  19
ENDBRANCH   1  17
TORSDOF 6
