REMARK  Name = ZINC000616582813
REMARK  10 active torsions:
REMARK  status: ('A' for Active; 'I' for Inactive)
REMARK    1  A    between atoms: O_2  and  C_3
REMARK    2  A    between atoms: C_3  and  C_33
REMARK    3  A    between atoms: N_4  and  C_5
REMARK    4  A    between atoms: C_7  and  O_9
REMARK    5  A    between atoms: C_11  and  O_13
REMARK    6  A    between atoms: C_15  and  C_17
REMARK    7  A    between atoms: C_17  and  O_20
REMARK    8  A    between atoms: C_23  and  O_25
REMARK    9  A    between atoms: O_25  and  C_26
REMARK   10  A    between atoms: C_26  and  C_29
REMARK                            x       y       z     vdW  Elec       q    Type
REMARK                         _______ _______ _______ _____ _____    ______ ____
ROOT
ATOM      1  C   UNL     1      -0.665  -0.488  -0.622  0.00  0.00    +0.000 C 
ATOM      2  C   UNL     1      -0.298  -1.978  -0.515  0.00  0.00    +0.000 C 
ATOM      3  C   UNL     1       1.227  -2.156  -0.665  0.00  0.00    +0.000 C 
ATOM      4  C   UNL     1       1.966  -1.200   0.303  0.00  0.00    +0.000 C 
ATOM      5  O   UNL     1       1.578   0.140   0.051  0.00  0.00    +0.000 OA
ATOM      6  C   UNL     1       0.206   0.337   0.351  0.00  0.00    +0.000 C 
ENDROOT
BRANCH   1   8
ATOM      7  C   UNL     1      -2.832   0.652  -0.760  0.00  0.00    +0.000 C 
ATOM      8  N   UNL     1      -2.089  -0.318  -0.316  0.00  0.00    +0.000 NA
ATOM      9  C   UNL     1      -4.265   0.731  -0.344  0.00  0.00    +0.000 C 
BRANCH   7  11
ATOM     10  H   UNL     1      -2.870   2.397  -1.937  0.00  0.00    +0.000 HD
ATOM     11  O   UNL     1      -2.301   1.630  -1.601  0.00  0.00    +0.000 OA
ENDBRANCH   7  11
ENDBRANCH   1   8
BRANCH   2  12
ATOM     12  O   UNL     1      -0.730  -2.487   0.724  0.00  0.00    +0.000 OA
ATOM     13  H   UNL     1      -0.854  -3.465   0.608  0.00  0.00    +0.000 HD
ENDBRANCH   2  12
BRANCH   3  14
ATOM     14  O   UNL     1       1.584  -3.489  -0.401  0.00  0.00    +0.000 OA
ATOM     15  H   UNL     1       1.297  -4.023  -1.187  0.00  0.00    +0.000 HD
ENDBRANCH   3  14
BRANCH   4  16
ATOM     16  C   UNL     1       3.492  -1.289   0.126  0.00  0.00    +0.000 C 
BRANCH  16  17
ATOM     17  O   UNL     1       3.981  -2.537   0.539  0.00  0.00    +0.000 OA
ATOM     18  H   UNL     1       3.970  -2.532   1.532  0.00  0.00    +0.000 HD
ENDBRANCH  16  17
ENDBRANCH   4  16
BRANCH   6  19
ATOM     19  O   UNL     1      -0.104   1.707   0.185  0.00  0.00    +0.000 OA
BRANCH  19  20
ATOM     20  C   UNL     1       0.365   2.454   1.288  0.00  0.00    +0.000 C 
ATOM     21  C   UNL     1       0.109   3.931   1.033  0.00  0.00    +0.000 C 
ENDBRANCH  19  20
ENDBRANCH   6  19
TORSDOF 8
