REMARK  Name = ZINC000257347638
REMARK  9 active torsions:
REMARK  status: ('A' for Active; 'I' for Inactive)
REMARK    1  A    between atoms: O_2  and  C_3
REMARK    2  A    between atoms: C_3  and  C_47
REMARK    3  A    between atoms: N_4  and  C_5
REMARK    4  A    between atoms: C_7  and  O_9
REMARK    5  A    between atoms: O_9  and  S_10
REMARK    6  A    between atoms: S_10  and  C_13
REMARK    7  A    between atoms: C_20  and  C_22
REMARK    8  A    between atoms: C_40  and  O_42
REMARK    9  A    between atoms: O_42  and  C_43
REMARK                            x       y       z     vdW  Elec       q    Type
REMARK                         _______ _______ _______ _____ _____    ______ ____
ROOT
ATOM      1  C   UNL     1      -0.728   1.323   1.242  0.00  0.00    +0.000 C 
ATOM      2  C   UNL     1      -0.279   0.447   0.050  0.00  0.00    +0.000 C 
ATOM      3  C   UNL     1       0.441   1.334  -0.980  0.00  0.00    +0.000 C 
ATOM      4  O   UNL     1       0.966   0.540  -2.030  0.00  0.00    +0.000 OA
ATOM      5  C   UNL     1       1.940   1.231  -2.809  0.00  0.00    +0.000 C 
ATOM      6  O   UNL     1       1.876   2.644  -2.660  0.00  0.00    +0.000 OA
ATOM      7  C   UNL     1       2.246   3.014  -1.344  0.00  0.00    +0.000 C 
ATOM      8  C   UNL     1       1.548   2.146  -0.281  0.00  0.00    +0.000 C 
ATOM      9  O   UNL     1       0.995   2.964   0.735  0.00  0.00    +0.000 OA
ATOM     10  C   UNL     1       0.456   2.159   1.774  0.00  0.00    +0.000 C 
ENDROOT
BRANCH   5  11
ATOM     11  C   UNL     1       1.718   0.891  -4.258  0.00  0.00    +0.000 A 
ATOM     12  C   UNL     1       0.545   1.314  -4.907  0.00  0.00    +0.000 A 
ATOM     13  C   UNL     1       0.334   1.006  -6.255  0.00  0.00    +0.000 A 
ATOM     14  C   UNL     1       1.286   0.267  -6.961  0.00  0.00    +0.000 A 
ATOM     15  C   UNL     1       2.452  -0.166  -6.322  0.00  0.00    +0.000 A 
ATOM     16  C   UNL     1       2.668   0.141  -4.975  0.00  0.00    +0.000 A 
ENDBRANCH   5  11
BRANCH   1  18
ATOM     17  C   UNL     1      -2.423  -0.081   2.316  0.00  0.00    +0.000 C 
ATOM     18  N   UNL     1      -1.254   0.489   2.324  0.00  0.00    +0.000 NA
BRANCH  17  19
ATOM     19  C   UNL     1      -2.824  -0.931   3.465  0.00  0.00    +0.000 A 
ATOM     20  C   UNL     1      -4.181  -1.147   3.769  0.00  0.00    +0.000 A 
ATOM     21  C   UNL     1      -4.544  -1.949   4.856  0.00  0.00    +0.000 A 
ATOM     22  C   UNL     1      -3.561  -2.538   5.653  0.00  0.00    +0.000 A 
ATOM     23  C   UNL     1      -2.212  -2.325   5.367  0.00  0.00    +0.000 A 
ATOM     24  C   UNL     1      -1.842  -1.526   4.281  0.00  0.00    +0.000 A 
ENDBRANCH  17  19
BRANCH  17  26
ATOM     25  H   UNL     1      -4.149  -0.400   1.123  0.00  0.00    +0.000 HD
ATOM     26  O   UNL     1      -3.276   0.102   1.224  0.00  0.00    +0.000 OA
ENDBRANCH  17  26
ENDBRANCH   1  18
BRANCH  10  27
ATOM     27  O   UNL     1      -0.023   3.001   2.804  0.00  0.00    +0.000 OA
ATOM     28  C   UNL     1       1.053   3.476   3.584  0.00  0.00    +0.000 C 
ENDBRANCH  10  27
BRANCH   2  29
ATOM     29  O   UNL     1       0.609  -0.558   0.512  0.00  0.00    +0.000 OA
BRANCH  29  30
ATOM     30  S   UNL     1       0.093  -2.093   0.003  0.00  0.00    +0.000 S 
ATOM     31  O   UNL     1      -1.225  -2.436   0.637  0.00  0.00    +0.000 OA
ATOM     32  O   UNL     1      -0.038  -2.136  -1.494  0.00  0.00    +0.000 OA
ATOM     33  C   UNL     1       1.304  -3.291   0.511  0.00  0.00    +0.000 C 
ENDBRANCH  29  30
ENDBRANCH   2  29
TORSDOF 7
