REMARK  Name = ZINC000383920275
REMARK  5 active torsions:
REMARK  status: ('A' for Active; 'I' for Inactive)
REMARK    1  A    between atoms: C_1  and  O_2
REMARK    2  A    between atoms: O_2  and  C_3
REMARK    3  A    between atoms: C_5  and  C_6
REMARK    4  A    between atoms: C_6  and  O_7
REMARK    5  A    between atoms: C_8  and  O_9
REMARK                            x       y       z     vdW  Elec       q    Type
REMARK                         _______ _______ _______ _____ _____    ______ ____
ROOT
ATOM      1  C   UNL     1       0.950   0.116   0.134  0.00  0.00    +0.000 C 
ATOM      2  O   UNL     1       0.195  -0.216   1.288  0.00  0.00    +0.000 OA
ATOM      3  C   UNL     1      -1.167  -0.426   0.962  0.00  0.00    +0.000 C 
ATOM      4  C   UNL     1      -1.310  -1.752   0.196  0.00  0.00    +0.000 C 
ATOM      5  C   UNL     1      -0.418  -1.763  -1.055  0.00  0.00    +0.000 C 
ATOM      6  O   UNL     1      -1.029  -1.152  -2.187  0.00  0.00    +0.000 OA
ATOM      7  C   UNL     1      -0.051  -0.499  -2.905  0.00  0.00    +0.000 C 
ATOM      8  O   UNL     1      -0.255   0.062  -4.012  0.00  0.00    +0.000 OA
ATOM      9  N   UNL     1       1.195  -0.490  -2.240  0.00  0.00    +0.000 N 
ATOM     10  C   UNL     1       0.953  -1.038  -0.909  0.00  0.00    +0.000 C 
ATOM     11  H   UNL     1       2.042   0.040  -2.542  0.00  0.00    +0.000 HD
ENDROOT
BRANCH   1  13
ATOM     12  C   UNL     1       0.849   2.426   0.364  0.00  0.00    +0.000 C 
ATOM     13  O   UNL     1       0.491   1.329  -0.448  0.00  0.00    +0.000 OA
ENDBRANCH   1  13
BRANCH   4  14
ATOM     14  O   UNL     1      -2.647  -1.962  -0.186  0.00  0.00    +0.000 OA
ATOM     15  H   UNL     1      -3.073  -2.508   0.526  0.00  0.00    +0.000 HD
ENDBRANCH   4  14
BRANCH   3  16
ATOM     16  C   UNL     1      -1.982  -0.426   2.263  0.00  0.00    +0.000 C 
BRANCH  16  17
ATOM     17  O   UNL     1      -1.535  -1.438   3.123  0.00  0.00    +0.000 OA
ATOM     18  H   UNL     1      -2.104  -1.381   3.934  0.00  0.00    +0.000 HD
ENDBRANCH  16  17
ENDBRANCH   3  16
TORSDOF 4
