REMARK  Name = ZINC000257347639
REMARK  9 active torsions:
REMARK  status: ('A' for Active; 'I' for Inactive)
REMARK    1  A    between atoms: O_2  and  C_3
REMARK    2  A    between atoms: C_3  and  C_47
REMARK    3  A    between atoms: N_4  and  C_5
REMARK    4  A    between atoms: C_7  and  O_9
REMARK    5  A    between atoms: O_9  and  S_10
REMARK    6  A    between atoms: S_10  and  C_13
REMARK    7  A    between atoms: C_20  and  C_22
REMARK    8  A    between atoms: C_40  and  O_42
REMARK    9  A    between atoms: O_42  and  C_43
REMARK                            x       y       z     vdW  Elec       q    Type
REMARK                         _______ _______ _______ _____ _____    ______ ____
ROOT
ATOM      1  C   UNL     1       0.999  -0.346   0.234  0.00  0.00    +0.000 C 
ATOM      2  C   UNL     1      -0.521  -0.641   0.238  0.00  0.00    +0.000 C 
ATOM      3  C   UNL     1      -0.906  -1.155   1.636  0.00  0.00    +0.000 C 
ATOM      4  O   UNL     1      -2.304  -1.331   1.746  0.00  0.00    +0.000 OA
ATOM      5  C   UNL     1      -2.617  -1.847   3.034  0.00  0.00    +0.000 C 
ATOM      6  O   UNL     1      -2.280  -0.900   4.040  0.00  0.00    +0.000 OA
ATOM      7  C   UNL     1      -0.882  -0.682   4.052  0.00  0.00    +0.000 C 
ATOM      8  C   UNL     1      -0.425  -0.154   2.695  0.00  0.00    +0.000 C 
ATOM      9  O   UNL     1       0.984  -0.037   2.654  0.00  0.00    +0.000 OA
ATOM     10  C   UNL     1       1.385   0.560   1.427  0.00  0.00    +0.000 C 
ENDROOT
BRANCH   5  11
ATOM     11  C   UNL     1      -4.096  -2.164   3.090  0.00  0.00    +0.000 A 
ATOM     12  C   UNL     1      -4.721  -2.776   1.987  0.00  0.00    +0.000 A 
ATOM     13  C   UNL     1      -6.077  -3.116   2.037  0.00  0.00    +0.000 A 
ATOM     14  C   UNL     1      -6.818  -2.870   3.194  0.00  0.00    +0.000 A 
ATOM     15  C   UNL     1      -6.204  -2.292   4.307  0.00  0.00    +0.000 A 
ATOM     16  C   UNL     1      -4.849  -1.950   4.262  0.00  0.00    +0.000 A 
ENDBRANCH   5  11
BRANCH   1  18
ATOM     17  C   UNL     1       1.575  -0.322  -2.143  0.00  0.00    +0.000 C 
ATOM     18  N   UNL     1       1.394   0.302  -1.017  0.00  0.00    +0.000 NA
BRANCH  17  19
ATOM     19  C   UNL     1       1.953   0.453  -3.350  0.00  0.00    +0.000 A 
ATOM     20  C   UNL     1       2.628   1.682  -3.222  0.00  0.00    +0.000 A 
ATOM     21  C   UNL     1       2.974   2.422  -4.357  0.00  0.00    +0.000 A 
ATOM     22  C   UNL     1       2.644   1.950  -5.629  0.00  0.00    +0.000 A 
ATOM     23  C   UNL     1       1.964   0.738  -5.768  0.00  0.00    +0.000 A 
ATOM     24  C   UNL     1       1.617  -0.007  -4.636  0.00  0.00    +0.000 A 
ENDBRANCH  17  19
BRANCH  17  26
ATOM     25  H   UNL     1       1.630  -2.246  -3.032  0.00  0.00    +0.000 HD
ATOM     26  O   UNL     1       1.412  -1.708  -2.203  0.00  0.00    +0.000 OA
ENDBRANCH  17  26
ENDBRANCH   1  18
BRANCH  10  27
ATOM     27  O   UNL     1       2.792   0.715   1.427  0.00  0.00    +0.000 OA
ATOM     28  C   UNL     1       3.160   1.807   2.240  0.00  0.00    +0.000 C 
ENDBRANCH  10  27
BRANCH   2  29
ATOM     29  O   UNL     1      -1.233   0.550  -0.052  0.00  0.00    +0.000 OA
BRANCH  29  30
ATOM     30  S   UNL     1      -2.452   0.269  -1.203  0.00  0.00    +0.000 S 
ATOM     31  O   UNL     1      -3.389   1.443  -1.199  0.00  0.00    +0.000 OA
ATOM     32  O   UNL     1      -3.235  -0.971  -0.872  0.00  0.00    +0.000 OA
ATOM     33  C   UNL     1      -1.750   0.112  -2.831  0.00  0.00    +0.000 C 
ENDBRANCH  29  30
ENDBRANCH   2  29
TORSDOF 7
