REMARK  Name = ZINC000257346903
REMARK  11 active torsions:
REMARK  status: ('A' for Active; 'I' for Inactive)
REMARK    1  A    between atoms: C_1  and  C_2
REMARK    2  A    between atoms: C_2  and  O_3
REMARK    3  A    between atoms: O_3  and  C_4
REMARK    4  A    between atoms: C_6  and  C_7
REMARK    5  A    between atoms: C_7  and  O_8
REMARK    6  A    between atoms: C_9  and  O_10
REMARK    7  A    between atoms: C_11  and  O_12
REMARK    8  A    between atoms: O_12  and  S_13
REMARK    9  A    between atoms: S_13  and  C_14
REMARK   10  A    between atoms: C_17  and  N_18
REMARK   11  A    between atoms: C_19  and  C_21
REMARK                            x       y       z     vdW  Elec       q    Type
REMARK                         _______ _______ _______ _____ _____    ______ ____
ROOT
ATOM      1  C   UNL     1      -0.855   0.240  -1.763  0.00  0.00    +0.000 C 
ATOM      2  O   UNL     1      -0.703  -0.395  -3.023  0.00  0.00    +0.000 OA
ATOM      3  C   UNL     1       0.650  -0.359  -3.445  0.00  0.00    +0.000 C 
ATOM      4  C   UNL     1       1.531  -1.195  -2.482  0.00  0.00    +0.000 C 
ATOM      5  C   UNL     1       1.387  -0.678  -1.036  0.00  0.00    +0.000 C 
ATOM      6  C   UNL     1      -0.110  -0.570  -0.681  0.00  0.00    +0.000 C 
ENDROOT
BRANCH   6   7
ATOM      7  N   UNL     1      -0.276   0.049   0.639  0.00  0.00    +0.000 N 
ATOM      8  C   UNL     1      -0.037  -0.675   1.857  0.00  0.00    +0.000 C 
ATOM      9  O   UNL     1       0.061  -1.934   1.825  0.00  0.00    +0.000 OA
ATOM     10  H   UNL     1      -0.641   1.026   0.697  0.00  0.00    +0.000 HD
BRANCH   8  11
ATOM     11  C   UNL     1       0.076   0.031   3.156  0.00  0.00    +0.000 A 
ATOM     12  C   UNL     1      -0.145  -0.666   4.359  0.00  0.00    +0.000 A 
ATOM     13  C   UNL     1      -0.043  -0.008   5.588  0.00  0.00    +0.000 A 
ATOM     14  C   UNL     1       0.289   1.347   5.633  0.00  0.00    +0.000 A 
ATOM     15  C   UNL     1       0.528   2.046   4.447  0.00  0.00    +0.000 A 
ATOM     16  C   UNL     1       0.426   1.394   3.214  0.00  0.00    +0.000 A 
ENDBRANCH   8  11
ENDBRANCH   6   7
BRANCH   4  17
ATOM     17  O   UNL     1       2.876  -1.131  -2.882  0.00  0.00    +0.000 OA
ATOM     18  H   UNL     1       3.334  -1.915  -2.476  0.00  0.00    +0.000 HD
ENDBRANCH   4  17
BRANCH   1  19
ATOM     19  O   UNL     1      -2.228   0.272  -1.422  0.00  0.00    +0.000 OA
BRANCH  19  21
ATOM     20  C   UNL     1      -4.380   1.221  -1.839  0.00  0.00    +0.000 C 
ATOM     21  C   UNL     1      -2.899   1.257  -2.181  0.00  0.00    +0.000 C 
ENDBRANCH  19  21
ENDBRANCH   1  19
BRANCH   3  22
ATOM     22  C   UNL     1       0.718  -0.908  -4.877  0.00  0.00    +0.000 C 
BRANCH  22  23
ATOM     23  O   UNL     1       1.974  -0.639  -5.443  0.00  0.00    +0.000 OA
ATOM     24  H   UNL     1       2.174  -1.388  -6.068  0.00  0.00    +0.000 HD
ENDBRANCH  22  23
ENDBRANCH   3  22
BRANCH   5  25
ATOM     25  O   UNL     1       1.987   0.602  -0.924  0.00  0.00    +0.000 OA
BRANCH  25  26
ATOM     26  S   UNL     1       3.345   0.546   0.093  0.00  0.00    +0.000 S 
ATOM     27  C   UNL     1       3.999   2.191   0.255  0.00  0.00    +0.000 C 
ATOM     28  O   UNL     1       2.963   0.042   1.457  0.00  0.00    +0.000 OA
ATOM     29  O   UNL     1       4.403  -0.345  -0.495  0.00  0.00    +0.000 OA
ENDBRANCH  25  26
ENDBRANCH   5  25
TORSDOF 9
