REMARK  Name = ZINC000616582904
REMARK  9 active torsions:
REMARK  status: ('A' for Active; 'I' for Inactive)
REMARK    1  A    between atoms: C_2  and  C_3
REMARK    2  A    between atoms: C_3  and  O_4
REMARK    3  A    between atoms: O_4  and  C_5
REMARK    4  A    between atoms: C_7  and  C_8
REMARK    5  A    between atoms: C_8  and  O_9
REMARK    6  A    between atoms: C_10  and  O_11
REMARK    7  A    between atoms: C_12  and  O_13
REMARK    8  A    between atoms: C_14  and  N_15
REMARK    9  A    between atoms: C_16  and  C_17
REMARK                            x       y       z     vdW  Elec       q    Type
REMARK                         _______ _______ _______ _____ _____    ______ ____
ROOT
ATOM      1  C   UNL     1       0.233  -0.011  -0.713  0.00  0.00    +0.000 C 
ATOM      2  O   UNL     1       1.156   1.061  -0.597  0.00  0.00    +0.000 OA
ATOM      3  C   UNL     1       0.483   2.310  -0.593  0.00  0.00    +0.000 C 
ATOM      4  C   UNL     1      -0.423   2.429   0.663  0.00  0.00    +0.000 C 
ATOM      5  C   UNL     1      -1.429   1.264   0.709  0.00  0.00    +0.000 C 
ATOM      6  C   UNL     1      -0.671  -0.069   0.534  0.00  0.00    +0.000 C 
ENDROOT
BRANCH   6   7
ATOM      7  N   UNL     1      -1.611  -1.191   0.423  0.00  0.00    +0.000 N 
ATOM      8  C   UNL     1      -1.458  -2.414   1.158  0.00  0.00    +0.000 C 
ATOM      9  C   UNL     1      -2.370  -3.564   0.882  0.00  0.00    +0.000 C 
ATOM     10  O   UNL     1      -0.542  -2.538   2.015  0.00  0.00    +0.000 OA
ATOM     11  H   UNL     1      -2.337  -1.164  -0.330  0.00  0.00    +0.000 HD
ENDBRANCH   6   7
BRANCH   4  12
ATOM     12  O   UNL     1      -1.089   3.668   0.718  0.00  0.00    +0.000 OA
ATOM     13  H   UNL     1      -1.561   3.800  -0.146  0.00  0.00    +0.000 HD
ENDBRANCH   4  12
BRANCH   5  14
ATOM     14  O   UNL     1      -2.387   1.423  -0.310  0.00  0.00    +0.000 OA
ATOM     15  H   UNL     1      -3.250   1.081   0.042  0.00  0.00    +0.000 HD
ENDBRANCH   5  14
BRANCH   1  16
ATOM     16  O   UNL     1       0.956  -1.226  -0.793  0.00  0.00    +0.000 OA
BRANCH  16  17
ATOM     17  C   UNL     1       1.422  -1.455  -2.108  0.00  0.00    +0.000 C 
BRANCH  17  19
ATOM     18  C   UNL     1      -0.407  -2.826  -3.493  0.00  0.00    +0.000 C 
ATOM     19  C   UNL     1       0.419  -2.208  -2.870  0.00  0.00    +0.000 C 
ENDBRANCH  17  19
ENDBRANCH  16  17
ENDBRANCH   1  16
BRANCH   3  20
ATOM     20  C   UNL     1       1.531   3.429  -0.636  0.00  0.00    +0.000 C 
BRANCH  20  21
ATOM     21  O   UNL     1       2.390   3.339   0.467  0.00  0.00    +0.000 OA
ATOM     22  H   UNL     1       3.035   4.088   0.376  0.00  0.00    +0.000 HD
ENDBRANCH  20  21
ENDBRANCH   3  20
TORSDOF 8
