REMARK  Name = ZINC000616583781
REMARK  11 active torsions:
REMARK  status: ('A' for Active; 'I' for Inactive)
REMARK    1  A    between atoms: C_1  and  C_2
REMARK    2  A    between atoms: C_2  and  C_3
REMARK    3  A    between atoms: C_3  and  C_4
REMARK    4  A    between atoms: C_4  and  O_5
REMARK    5  A    between atoms: O_5  and  C_6
REMARK    6  A    between atoms: C_8  and  C_9
REMARK    7  A    between atoms: C_9  and  O_10
REMARK    8  A    between atoms: C_11  and  O_12
REMARK    9  A    between atoms: C_13  and  O_14
REMARK   10  A    between atoms: C_15  and  N_16
REMARK   11  A    between atoms: C_17  and  C_18
REMARK                            x       y       z     vdW  Elec       q    Type
REMARK                         _______ _______ _______ _____ _____    ______ ____
ROOT
ATOM      1  C   UNL     1      -0.300  -0.226   0.310  0.00  0.00    +0.000 C 
ATOM      2  O   UNL     1      -0.066  -1.297  -0.591  0.00  0.00    +0.000 OA
ATOM      3  C   UNL     1      -1.265  -1.678  -1.244  0.00  0.00    +0.000 C 
ATOM      4  C   UNL     1      -1.766  -0.526  -2.150  0.00  0.00    +0.000 C 
ATOM      5  C   UNL     1      -1.972   0.748  -1.315  0.00  0.00    +0.000 C 
ATOM      6  C   UNL     1      -0.708   1.037  -0.479  0.00  0.00    +0.000 C 
ENDROOT
BRANCH   6   7
ATOM      7  N   UNL     1      -0.934   2.168   0.429  0.00  0.00    +0.000 N 
ATOM      8  C   UNL     1      -0.980   3.525  -0.033  0.00  0.00    +0.000 C 
ATOM      9  C   UNL     1      -1.239   4.632   0.936  0.00  0.00    +0.000 C 
ATOM     10  O   UNL     1      -0.773   3.794  -1.247  0.00  0.00    +0.000 OA
ATOM     11  H   UNL     1      -1.045   1.991   1.454  0.00  0.00    +0.000 HD
ENDBRANCH   6   7
BRANCH   4  12
ATOM     12  O   UNL     1      -2.982  -0.876  -2.766  0.00  0.00    +0.000 OA
ATOM     13  H   UNL     1      -2.761  -1.262  -3.653  0.00  0.00    +0.000 HD
ENDBRANCH   4  12
BRANCH   5  14
ATOM     14  O   UNL     1      -3.090   0.587  -0.476  0.00  0.00    +0.000 OA
ATOM     15  H   UNL     1      -3.440   1.495  -0.281  0.00  0.00    +0.000 HD
ENDBRANCH   5  14
BRANCH   1  16
ATOM     16  O   UNL     1       0.897   0.056   1.008  0.00  0.00    +0.000 OA
BRANCH  16  17
ATOM     17  C   UNL     1       1.113  -0.905   2.021  0.00  0.00    +0.000 C 
BRANCH  17  18
ATOM     18  C   UNL     1       2.520  -0.737   2.603  0.00  0.00    +0.000 C 
BRANCH  18  20
ATOM     19  C   UNL     1       3.821  -0.533   0.409  0.00  0.00    +0.000 C 
ATOM     20  C   UNL     1       3.625  -1.319   1.704  0.00  0.00    +0.000 C 
ENDBRANCH  18  20
ENDBRANCH  17  18
ENDBRANCH  16  17
ENDBRANCH   1  16
BRANCH   3  21
ATOM     21  C   UNL     1      -0.985  -2.944  -2.067  0.00  0.00    +0.000 C 
BRANCH  21  22
ATOM     22  O   UNL     1      -0.470  -3.957  -1.247  0.00  0.00    +0.000 OA
ATOM     23  H   UNL     1      -1.232  -4.310  -0.718  0.00  0.00    +0.000 HD
ENDBRANCH  21  22
ENDBRANCH   3  21
TORSDOF 9
