REMARK  Name = ZINC000616583781
REMARK  12 active torsions:
REMARK  status: ('A' for Active; 'I' for Inactive)
REMARK    1  A    between atoms: O_2  and  C_3
REMARK    2  A    between atoms: C_3  and  C_39
REMARK    3  A    between atoms: N_4  and  C_5
REMARK    4  A    between atoms: C_7  and  O_9
REMARK    5  A    between atoms: C_11  and  O_13
REMARK    6  A    between atoms: C_15  and  C_17
REMARK    7  A    between atoms: C_17  and  O_20
REMARK    8  A    between atoms: C_23  and  O_25
REMARK    9  A    between atoms: O_25  and  C_26
REMARK   10  A    between atoms: C_26  and  C_29
REMARK   11  A    between atoms: C_29  and  C_32
REMARK   12  A    between atoms: C_32  and  C_35
REMARK                            x       y       z     vdW  Elec       q    Type
REMARK                         _______ _______ _______ _____ _____    ______ ____
ROOT
ATOM      1  C   UNL     1      -0.026  -0.139  -1.430  0.00  0.00    +0.000 C 
ATOM      2  C   UNL     1      -1.377   0.141  -2.119  0.00  0.00    +0.000 C 
ATOM      3  C   UNL     1      -2.396  -0.949  -1.730  0.00  0.00    +0.000 C 
ATOM      4  C   UNL     1      -2.427  -1.116  -0.192  0.00  0.00    +0.000 C 
ATOM      5  O   UNL     1      -1.133  -1.431   0.297  0.00  0.00    +0.000 OA
ATOM      6  C   UNL     1      -0.238  -0.352   0.080  0.00  0.00    +0.000 C 
ENDROOT
BRANCH   1   8
ATOM      7  C   UNL     1       1.533   1.205  -2.751  0.00  0.00    +0.000 C 
ATOM      8  N   UNL     1       0.901   0.975  -1.640  0.00  0.00    +0.000 NA
ATOM      9  C   UNL     1       2.466   2.370  -2.836  0.00  0.00    +0.000 C 
BRANCH   7  11
ATOM     10  H   UNL     1       1.885   0.513  -4.709  0.00  0.00    +0.000 HD
ATOM     11  O   UNL     1       1.381   0.354  -3.845  0.00  0.00    +0.000 OA
ENDBRANCH   7  11
ENDBRANCH   1   8
BRANCH   2  12
ATOM     12  O   UNL     1      -1.849   1.411  -1.739  0.00  0.00    +0.000 OA
ATOM     13  H   UNL     1      -2.456   1.723  -2.459  0.00  0.00    +0.000 HD
ENDBRANCH   2  12
BRANCH   3  14
ATOM     14  O   UNL     1      -3.675  -0.610  -2.203  0.00  0.00    +0.000 OA
ATOM     15  H   UNL     1      -3.664  -0.759  -3.185  0.00  0.00    +0.000 HD
ENDBRANCH   3  14
BRANCH   4  16
ATOM     16  C   UNL     1      -3.392  -2.231   0.233  0.00  0.00    +0.000 C 
BRANCH  16  17
ATOM     17  O   UNL     1      -2.968  -3.466  -0.275  0.00  0.00    +0.000 OA
ATOM     18  H   UNL     1      -3.634  -4.134   0.035  0.00  0.00    +0.000 HD
ENDBRANCH  16  17
ENDBRANCH   4  16
BRANCH   6  19
ATOM     19  O   UNL     1       1.013  -0.673   0.660  0.00  0.00    +0.000 OA
BRANCH  19  20
ATOM     20  C   UNL     1       0.995  -0.478   2.062  0.00  0.00    +0.000 C 
BRANCH  20  21
ATOM     21  C   UNL     1       1.526   0.914   2.437  0.00  0.00    +0.000 C 
BRANCH  21  22
ATOM     22  C   UNL     1       3.041   1.073   2.217  0.00  0.00    +0.000 C 
ATOM     23  C   UNL     1       3.416   1.267   0.748  0.00  0.00    +0.000 C 
ENDBRANCH  21  22
ENDBRANCH  20  21
ENDBRANCH  19  20
ENDBRANCH   6  19
TORSDOF 10
