REMARK  Name = ZINC000616589990
REMARK  7 active torsions:
REMARK  status: ('A' for Active; 'I' for Inactive)
REMARK    1  A    between atoms: C_1  and  C_2
REMARK    2  A    between atoms: C_2  and  O_3
REMARK    3  A    between atoms: O_3  and  C_4
REMARK    4  A    between atoms: C_6  and  C_7
REMARK    5  A    between atoms: C_10  and  O_11
REMARK    6  A    between atoms: C_12  and  O_13
REMARK    7  A    between atoms: C_14  and  N_15
REMARK                            x       y       z     vdW  Elec       q    Type
REMARK                         _______ _______ _______ _____ _____    ______ ____
ROOT
ATOM      1  C   UNL     1       1.064   0.809   0.615  0.00  0.00    +0.000 C 
ATOM      2  O   UNL     1      -0.228   0.228   0.645  0.00  0.00    +0.000 OA
ATOM      3  C   UNL     1      -1.228   1.236   0.705  0.00  0.00    +0.000 C 
ATOM      4  C   UNL     1      -1.019   2.373  -0.349  0.00  0.00    +0.000 C 
ATOM      5  C   UNL     1      -0.004   1.932  -1.423  0.00  0.00    +0.000 C 
ATOM      6  C   UNL     1       1.318   1.409  -0.787  0.00  0.00    +0.000 C 
ENDROOT
BRANCH   3   7
ATOM      7  C   UNL     1      -2.565   0.584   0.505  0.00  0.00    +0.000 C 
ATOM      8  O   UNL     1      -2.738  -0.237  -0.434  0.00  0.00    +0.000 OA
ATOM      9  O   UNL     1      -3.632   0.919   1.329  0.00  0.00    +0.000 OA
ENDBRANCH   3   7
BRANCH   6  10
ATOM     10  N   UNL     1       2.357   2.441  -0.699  0.00  0.00    +0.000 NA
ATOM     11  H   UNL     1       1.963   3.307  -0.266  0.00  0.00    +0.000 HD
ATOM     12  H   UNL     1       2.680   2.685  -1.664  0.00  0.00    +0.000 HD
ENDBRANCH   6  10
BRANCH   4  13
ATOM     13  O   UNL     1      -0.555   3.538   0.284  0.00  0.00    +0.000 OA
ATOM     14  H   UNL     1      -1.332   3.936   0.757  0.00  0.00    +0.000 HD
ENDBRANCH   4  13
BRANCH   5  15
ATOM     15  O   UNL     1       0.249   2.980  -2.325  0.00  0.00    +0.000 OA
ATOM     16  H   UNL     1      -0.563   3.078  -2.888  0.00  0.00    +0.000 HD
ENDBRANCH   5  15
BRANCH   1  17
ATOM     17  O   UNL     1       2.035  -0.190   0.861  0.00  0.00    +0.000 OA
BRANCH  17  19
ATOM     18  C   UNL     1       3.024  -1.677   2.451  0.00  0.00    +0.000 C 
ATOM     19  C   UNL     1       2.051  -0.529   2.232  0.00  0.00    +0.000 C 
ENDBRANCH  17  19
ENDBRANCH   1  17
TORSDOF 6
