REMARK  Name = ZINC000616591357
REMARK  7 active torsions:
REMARK  status: ('A' for Active; 'I' for Inactive)
REMARK    1  A    between atoms: O_2  and  C_3
REMARK    2  A    between atoms: C_3  and  C_41
REMARK    3  A    between atoms: N_4  and  C_5
REMARK    4  A    between atoms: C_7  and  O_9
REMARK    5  A    between atoms: C_14  and  C_16
REMARK    6  A    between atoms: C_34  and  O_36
REMARK    7  A    between atoms: O_36  and  C_37
REMARK                            x       y       z     vdW  Elec       q    Type
REMARK                         _______ _______ _______ _____ _____    ______ ____
ROOT
ATOM      1  C   UNL     1      -2.397  -0.262  -0.151  0.00  0.00    +0.000 C 
ATOM      2  C   UNL     1      -1.105  -0.526   0.663  0.00  0.00    +0.000 C 
ATOM      3  C   UNL     1       0.111  -0.233  -0.224  0.00  0.00    +0.000 C 
ATOM      4  O   UNL     1       1.310  -0.337   0.517  0.00  0.00    +0.000 OA
ATOM      5  C   UNL     1       2.417  -0.086  -0.340  0.00  0.00    +0.000 C 
ATOM      6  O   UNL     1       2.387   1.244  -0.841  0.00  0.00    +0.000 OA
ATOM      7  C   UNL     1       1.234   1.438  -1.637  0.00  0.00    +0.000 C 
ATOM      8  C   UNL     1      -0.021   1.179  -0.809  0.00  0.00    +0.000 C 
ATOM      9  O   UNL     1      -1.180   1.266  -1.617  0.00  0.00    +0.000 OA
ATOM     10  C   UNL     1      -2.344   1.138  -0.808  0.00  0.00    +0.000 C 
ENDROOT
BRANCH   5  11
ATOM     11  C   UNL     1       3.682  -0.263   0.459  0.00  0.00    +0.000 A 
ATOM     12  C   UNL     1       3.916   0.537   1.592  0.00  0.00    +0.000 A 
ATOM     13  C   UNL     1       5.088   0.378   2.338  0.00  0.00    +0.000 A 
ATOM     14  C   UNL     1       6.034  -0.577   1.961  0.00  0.00    +0.000 A 
ATOM     15  C   UNL     1       5.811  -1.377   0.837  0.00  0.00    +0.000 A 
ATOM     16  C   UNL     1       4.641  -1.222   0.087  0.00  0.00    +0.000 A 
ENDBRANCH   5  11
BRANCH   1  18
ATOM     17  C   UNL     1      -4.237  -1.426   1.032  0.00  0.00    +0.000 C 
ATOM     18  N   UNL     1      -3.579  -0.347   0.713  0.00  0.00    +0.000 NA
ATOM     19  C   UNL     1      -3.874  -2.781   0.498  0.00  0.00    +0.000 C 
BRANCH  17  21
ATOM     20  H   UNL     1      -5.615  -0.428   2.267  0.00  0.00    +0.000 HD
ATOM     21  O   UNL     1      -5.330  -1.323   1.887  0.00  0.00    +0.000 OA
ENDBRANCH  17  21
ENDBRANCH   1  18
BRANCH   2  22
ATOM     22  O   UNL     1      -1.065   0.289   1.809  0.00  0.00    +0.000 OA
ATOM     23  H   UNL     1      -1.590  -0.173   2.513  0.00  0.00    +0.000 HD
ENDBRANCH   2  22
BRANCH  10  24
ATOM     24  O   UNL     1      -3.491   1.285  -1.625  0.00  0.00    +0.000 OA
ATOM     25  C   UNL     1      -3.684   2.645  -1.950  0.00  0.00    +0.000 C 
ENDBRANCH  10  24
TORSDOF 5
