REMARK  Name = 45933887
REMARK  6 active torsions:
REMARK  status: ('A' for Active; 'I' for Inactive)
REMARK    1  A    between atoms: N_1  and  C_2
REMARK    2  A    between atoms: C_3  and  O_4
REMARK    3  A    between atoms: C_6  and  C_7
REMARK    4  A    between atoms: C_7  and  O_8
REMARK    5  A    between atoms: C_9  and  O_10
REMARK    6  A    between atoms: C_11  and  O_12
REMARK                            x       y       z     vdW  Elec       q    Type
REMARK                         _______ _______ _______ _____ _____    ______ ____
ROOT
ATOM      1  C   UNL     1       0.127   0.346   1.838  0.00  0.00    +0.000 C 
ATOM      2  C   UNL     1      -1.260   0.475   1.167  0.00  0.00    +0.000 C 
ATOM      3  O   UNL     1      -1.150   0.270  -0.231  0.00  0.00    +0.000 OA
ATOM      4  C   UNL     1      -0.766  -1.064  -0.514  0.00  0.00    +0.000 C 
ATOM      5  C   UNL     1       0.666  -1.324   0.010  0.00  0.00    +0.000 C 
ATOM      6  C   UNL     1       0.728  -1.043   1.522  0.00  0.00    +0.000 C 
ENDROOT
BRANCH   1   7
ATOM      7  N   UNL     1       0.024   0.550   3.290  0.00  0.00    +0.000 N 
ATOM      8  H   UNL     1       0.972   0.499   3.728  0.00  0.00    +0.000 HD
ATOM      9  H   UNL     1      -0.594  -0.175   3.721  0.00  0.00    +0.000 HD
ATOM     10  H   UNL     1      -0.366   1.498   3.494  0.00  0.00    +0.000 HD
ENDBRANCH   1   7
BRANCH   2  11
ATOM     11  O   UNL     1      -1.762   1.764   1.391  0.00  0.00    +0.000 OA
ATOM     12  H   UNL     1      -2.693   1.767   1.045  0.00  0.00    +0.000 HD
ENDBRANCH   2  11
BRANCH   5  13
ATOM     13  O   UNL     1       1.029  -2.660  -0.232  0.00  0.00    +0.000 OA
ATOM     14  H   UNL     1       2.021  -2.697  -0.217  0.00  0.00    +0.000 HD
ENDBRANCH   5  13
BRANCH   6  15
ATOM     15  O   UNL     1       2.068  -1.093   1.942  0.00  0.00    +0.000 OA
ATOM     16  H   UNL     1       2.075  -1.474   2.858  0.00  0.00    +0.000 HD
ENDBRANCH   6  15
BRANCH   4  17
ATOM     17  C   UNL     1      -0.853  -1.267  -2.034  0.00  0.00    +0.000 C 
BRANCH  17  18
ATOM     18  O   UNL     1      -0.708  -2.622  -2.357  0.00  0.00    +0.000 OA
ATOM     19  H   UNL     1      -0.760  -2.676  -3.347  0.00  0.00    +0.000 HD
ENDBRANCH  17  18
ENDBRANCH   4  17
TORSDOF 6
