REMARK  Name = 45266741
REMARK  6 active torsions:
REMARK  status: ('A' for Active; 'I' for Inactive)
REMARK    1  A    between atoms: N_1  and  C_2
REMARK    2  A    between atoms: C_3  and  O_4
REMARK    3  A    between atoms: C_6  and  C_7
REMARK    4  A    between atoms: C_7  and  O_8
REMARK    5  A    between atoms: C_9  and  O_10
REMARK    6  A    between atoms: C_11  and  O_12
REMARK                            x       y       z     vdW  Elec       q    Type
REMARK                         _______ _______ _______ _____ _____    ______ ____
ROOT
ATOM      1  C   UNL     1       1.695   1.384  -0.158  0.00  0.00    +0.000 C 
ATOM      2  C   UNL     1       1.933   0.025   0.535  0.00  0.00    +0.000 C 
ATOM      3  O   UNL     1       1.338  -1.038  -0.195  0.00  0.00    +0.000 OA
ATOM      4  C   UNL     1      -0.071  -0.890  -0.285  0.00  0.00    +0.000 C 
ATOM      5  C   UNL     1      -0.442   0.398  -1.060  0.00  0.00    +0.000 C 
ATOM      6  C   UNL     1       0.188   1.617  -0.367  0.00  0.00    +0.000 C 
ENDROOT
BRANCH   1   7
ATOM      7  N   UNL     1       2.273   2.467   0.642  0.00  0.00    +0.000 NA
ATOM      8  H   UNL     1       2.187   3.360   0.104  0.00  0.00    +0.000 HD
ATOM      9  H   UNL     1       3.300   2.293   0.740  0.00  0.00    +0.000 HD
ENDBRANCH   1   7
BRANCH   2  10
ATOM     10  O   UNL     1       1.473   0.051   1.864  0.00  0.00    +0.000 OA
ATOM     11  H   UNL     1       1.759  -0.806   2.275  0.00  0.00    +0.000 HD
ENDBRANCH   2  10
BRANCH   5  12
ATOM     12  O   UNL     1      -1.838   0.560  -1.088  0.00  0.00    +0.000 OA
ATOM     13  H   UNL     1      -2.163   0.155  -1.934  0.00  0.00    +0.000 HD
ENDBRANCH   5  12
BRANCH   6  14
ATOM     14  O   UNL     1      -0.001   2.763  -1.159  0.00  0.00    +0.000 OA
ATOM     15  H   UNL     1      -0.928   3.079  -0.994  0.00  0.00    +0.000 HD
ENDBRANCH   6  14
BRANCH   4  16
ATOM     16  C   UNL     1      -0.650  -2.144  -0.960  0.00  0.00    +0.000 C 
BRANCH  16  17
ATOM     17  O   UNL     1      -0.190  -2.271  -2.279  0.00  0.00    +0.000 OA
ATOM     18  H   UNL     1       0.731  -2.639  -2.228  0.00  0.00    +0.000 HD
ENDBRANCH  16  17
ENDBRANCH   4  16
TORSDOF 6
