REMARK  Name = 45266822
REMARK  15 active torsions:
REMARK  status: ('A' for Active; 'I' for Inactive)
REMARK    1  A    between atoms: C_1  and  C_2
REMARK    2  A    between atoms: N_4  and  C_5
REMARK    3  A    between atoms: C_6  and  O_7
REMARK    4  A    between atoms: C_9  and  C_10
REMARK    5  A    between atoms: C_10  and  O_11
REMARK    6  A    between atoms: O_11  and  P_12
REMARK    7  A    between atoms: P_12  and  O_15
REMARK    8  A    between atoms: O_15  and  C_16
REMARK    9  A    between atoms: C_16  and  C_17
REMARK   10  A    between atoms: C_17  and  N_18
REMARK   11  A    between atoms: N_18  and  C_19
REMARK   12  A    between atoms: N_18  and  C_20
REMARK   13  A    between atoms: N_18  and  C_21
REMARK   14  A    between atoms: C_22  and  O_23
REMARK   15  A    between atoms: C_24  and  O_25
REMARK                            x       y       z     vdW  Elec       q    Type
REMARK                         _______ _______ _______ _____ _____    ______ ____
ROOT
ATOM      1  C   UNL     1       2.339   1.688   0.348  0.00  0.00    +0.000 C 
ATOM      2  C   UNL     1       1.710   1.244  -0.994  0.00  0.00    +0.000 C 
ATOM      3  O   UNL     1       2.538   0.345  -1.720  0.00  0.00    +0.000 OA
ATOM      4  C   UNL     1       2.907  -0.827  -0.999  0.00  0.00    +0.000 C 
ATOM      5  C   UNL     1       3.541  -0.519   0.385  0.00  0.00    +0.000 C 
ATOM      6  C   UNL     1       2.696   0.466   1.208  0.00  0.00    +0.000 C 
ENDROOT
BRANCH   1  10
ATOM      7  C   UNL     1       5.331   4.150   0.802  0.00  0.00    +0.000 C 
ATOM      8  C   UNL     1       4.086   3.379   1.097  0.00  0.00    +0.000 C 
ATOM      9  O   UNL     1       3.527   3.503   2.221  0.00  0.00    +0.000 OA
ATOM     10  N   UNL     1       3.534   2.506   0.102  0.00  0.00    +0.000 N 
ATOM     11  H   UNL     1       4.000   2.470  -0.834  0.00  0.00    +0.000 HD
ENDBRANCH   1  10
BRANCH   2  12
ATOM     12  O   UNL     1       0.429   0.701  -0.809  0.00  0.00    +0.000 OA
ATOM     13  H   UNL     1      -0.167   1.451  -0.546  0.00  0.00    +0.000 HD
ENDBRANCH   2  12
BRANCH   5  14
ATOM     14  O   UNL     1       3.756  -1.697   1.121  0.00  0.00    +0.000 OA
ATOM     15  H   UNL     1       4.506  -2.177   0.681  0.00  0.00    +0.000 HD
ENDBRANCH   5  14
BRANCH   6  16
ATOM     16  O   UNL     1       1.519  -0.141   1.679  0.00  0.00    +0.000 OA
ATOM     17  H   UNL     1       1.765  -0.673   2.480  0.00  0.00    +0.000 HD
ENDBRANCH   6  16
BRANCH   4  18
ATOM     18  C   UNL     1       1.789  -1.891  -0.975  0.00  0.00    +0.000 C 
BRANCH  18  19
ATOM     19  O   UNL     1       1.250  -2.029  -2.269  0.00  0.00    +0.000 OA
BRANCH  19  20
ATOM     20  P   UNL     1       0.173  -3.353  -2.272  0.00  0.00    +0.000 P 
ATOM     21  O   UNL     1       0.946  -4.634  -2.054  0.00  0.00    +0.000 OA
ATOM     22  O   UNL     1      -0.591  -3.437  -3.779  0.00  0.00    +0.000 OA
BRANCH  20  23
ATOM     23  O   UNL     1      -0.989  -3.188  -1.032  0.00  0.00    +0.000 OA
BRANCH  23  24
ATOM     24  C   UNL     1      -1.865  -2.141  -1.376  0.00  0.00    +0.000 C 
BRANCH  24  25
ATOM     25  C   UNL     1      -2.829  -1.904  -0.197  0.00  0.00    +0.000 C 
BRANCH  25  26
ATOM     26  N   UNL     1      -3.818  -0.798  -0.388  0.00  0.00    +0.000 N 
ATOM     27  C   UNL     1      -3.141   0.515  -0.512  0.00  0.00    +0.000 C 
ATOM     28  C   UNL     1      -4.691  -0.756   0.811  0.00  0.00    +0.000 C 
ATOM     29  C   UNL     1      -4.672  -1.033  -1.577  0.00  0.00    +0.000 C 
ENDBRANCH  25  26
ENDBRANCH  24  25
ENDBRANCH  23  24
ENDBRANCH  20  23
ENDBRANCH  19  20
ENDBRANCH  18  19
ENDBRANCH   4  18
TORSDOF 11
