REMARK  Name = 44630437
REMARK  9 active torsions:
REMARK  status: ('A' for Active; 'I' for Inactive)
REMARK    1  A    between atoms: O_2  and  C_3
REMARK    2  A    between atoms: C_3  and  C_27
REMARK    3  A    between atoms: N_4  and  C_5
REMARK    4  A    between atoms: C_7  and  O_9
REMARK    5  A    between atoms: C_12  and  C_14
REMARK    6  A    between atoms: C_14  and  O_17
REMARK    7  A    between atoms: C_19  and  O_21
REMARK    8  A    between atoms: C_23  and  O_25
REMARK    9  A    between atoms: C_27  and  C_30
REMARK                            x       y       z     vdW  Elec       q    Type
REMARK                         _______ _______ _______ _____ _____    ______ ____
ROOT
ATOM      1  C   UNL     1       1.126  -0.790   0.656  0.00  0.00    +0.000 C 
ATOM      2  C   UNL     1       2.211  -0.438  -0.376  0.00  0.00    +0.000 C 
ATOM      3  O   UNL     1       3.107   0.518   0.164  0.00  0.00    +0.000 OA
ATOM      4  C   UNL     1       2.449   1.755   0.380  0.00  0.00    +0.000 C 
ATOM      5  C   UNL     1       1.355   1.595   1.463  0.00  0.00    +0.000 C 
ATOM      6  C   UNL     1       0.364   0.494   1.046  0.00  0.00    +0.000 C 
ENDROOT
BRANCH   1   8
ATOM      7  C   UNL     1      -0.523  -2.643   0.692  0.00  0.00    +0.000 C 
ATOM      8  N   UNL     1       0.209  -1.768   0.063  0.00  0.00    +0.000 NA
BRANCH   7  10
ATOM      9  H   UNL     1       0.073  -2.222   2.696  0.00  0.00    +0.000 HD
ATOM     10  O   UNL     1      -0.512  -2.773   2.084  0.00  0.00    +0.000 OA
ENDBRANCH   7  10
BRANCH   7  11
ATOM     11  C   UNL     1      -1.435  -3.527  -0.099  0.00  0.00    +0.000 C 
ATOM     12  C   UNL     1      -2.789  -2.856  -0.299  0.00  0.00    +0.000 C 
ENDBRANCH   7  11
ENDBRANCH   1   8
BRANCH   2  13
ATOM     13  O   UNL     1       2.929  -1.599  -0.696  0.00  0.00    +0.000 OA
ATOM     14  H   UNL     1       3.544  -1.353  -1.436  0.00  0.00    +0.000 HD
ENDBRANCH   2  13
BRANCH   5  15
ATOM     15  O   UNL     1       0.664   2.808   1.626  0.00  0.00    +0.000 OA
ATOM     16  H   UNL     1       0.245   2.783   2.526  0.00  0.00    +0.000 HD
ENDBRANCH   5  15
BRANCH   6  17
ATOM     17  O   UNL     1      -0.514   0.239   2.112  0.00  0.00    +0.000 OA
ATOM     18  H   UNL     1      -1.377  -0.050   1.717  0.00  0.00    +0.000 HD
ENDBRANCH   6  17
BRANCH   4  19
ATOM     19  C   UNL     1       3.511   2.786   0.801  0.00  0.00    +0.000 C 
BRANCH  19  20
ATOM     20  O   UNL     1       2.972   4.080   0.856  0.00  0.00    +0.000 OA
ATOM     21  H   UNL     1       2.866   4.384  -0.083  0.00  0.00    +0.000 HD
ENDBRANCH  19  20
ENDBRANCH   4  19
TORSDOF 8
