REMARK  Name = 44119773
REMARK  8 active torsions:
REMARK  status: ('A' for Active; 'I' for Inactive)
REMARK    1  A    between atoms: O_2  and  C_3
REMARK    2  A    between atoms: C_3  and  C_27
REMARK    3  A    between atoms: N_4  and  C_5
REMARK    4  A    between atoms: C_7  and  O_9
REMARK    5  A    between atoms: C_12  and  C_14
REMARK    6  A    between atoms: C_14  and  O_17
REMARK    7  A    between atoms: C_19  and  O_21
REMARK    8  A    between atoms: C_23  and  O_25
REMARK                            x       y       z     vdW  Elec       q    Type
REMARK                         _______ _______ _______ _____ _____    ______ ____
ROOT
ATOM      1  C   UNL     1      -0.511   0.470  -0.488  0.00  0.00    +0.000 C 
ATOM      2  C   UNL     1      -1.348  -0.227   0.606  0.00  0.00    +0.000 C 
ATOM      3  O   UNL     1      -1.319  -1.636   0.439  0.00  0.00    +0.000 OA
ATOM      4  C   UNL     1      -0.005  -2.137   0.629  0.00  0.00    +0.000 C 
ATOM      5  C   UNL     1       0.948  -1.585  -0.461  0.00  0.00    +0.000 C 
ATOM      6  C   UNL     1       0.942  -0.045  -0.432  0.00  0.00    +0.000 C 
ENDROOT
BRANCH   1   8
ATOM      7  C   UNL     1      -0.242   2.837  -1.153  0.00  0.00    +0.000 C 
ATOM      8  N   UNL     1      -0.553   1.920  -0.281  0.00  0.00    +0.000 NA
ATOM      9  C   UNL     1      -0.333   4.271  -0.752  0.00  0.00    +0.000 C 
BRANCH   7  11
ATOM     10  H   UNL     1       0.199   1.585  -2.820  0.00  0.00    +0.000 HD
ATOM     11  O   UNL     1       0.150   2.528  -2.458  0.00  0.00    +0.000 OA
ENDBRANCH   7  11
ENDBRANCH   1   8
BRANCH   2  12
ATOM     12  O   UNL     1      -2.679   0.218   0.549  0.00  0.00    +0.000 OA
ATOM     13  H   UNL     1      -3.072  -0.138  -0.291  0.00  0.00    +0.000 HD
ENDBRANCH   2  12
BRANCH   5  14
ATOM     14  O   UNL     1       2.259  -2.049  -0.253  0.00  0.00    +0.000 OA
ATOM     15  H   UNL     1       2.366  -2.876  -0.792  0.00  0.00    +0.000 HD
ENDBRANCH   5  14
BRANCH   6  16
ATOM     16  O   UNL     1       1.566   0.426   0.739  0.00  0.00    +0.000 OA
ATOM     17  H   UNL     1       2.543   0.438   0.563  0.00  0.00    +0.000 HD
ENDBRANCH   6  16
BRANCH   4  18
ATOM     18  C   UNL     1      -0.065  -3.670   0.609  0.00  0.00    +0.000 C 
BRANCH  18  19
ATOM     19  O   UNL     1      -0.547  -4.125  -0.625  0.00  0.00    +0.000 OA
ATOM     20  H   UNL     1      -0.554  -5.116  -0.570  0.00  0.00    +0.000 HD
ENDBRANCH  18  19
ENDBRANCH   4  18
TORSDOF 7
