REMARK  Name = 24847493
REMARK  9 active torsions:
REMARK  status: ('A' for Active; 'I' for Inactive)
REMARK    1  A    between atoms: N_2  and  N_3
REMARK    2  A    between atoms: N_3  and  C_4
REMARK    3  A    between atoms: C_4  and  C_5
REMARK    4  A    between atoms: N_9  and  C_10
REMARK    5  A    between atoms: C_11  and  O_12
REMARK    6  A    between atoms: C_14  and  C_15
REMARK    7  A    between atoms: C_15  and  O_16
REMARK    8  A    between atoms: C_17  and  O_18
REMARK    9  A    between atoms: C_19  and  O_20
REMARK                            x       y       z     vdW  Elec       q    Type
REMARK                         _______ _______ _______ _____ _____    ______ ____
ROOT
ATOM      1  C   UNL     1       0.436  -1.126  -0.108  0.00  0.00    +0.000 C 
ATOM      2  C   UNL     1      -1.090  -1.432  -0.265  0.00  0.00    +0.000 C 
ATOM      3  O   UNL     1      -1.660  -1.987   0.910  0.00  0.00    +0.000 OA
ATOM      4  C   UNL     1      -1.377  -1.175   2.033  0.00  0.00    +0.000 C 
ATOM      5  C   UNL     1       0.118  -1.309   2.435  0.00  0.00    +0.000 C 
ATOM      6  C   UNL     1       1.003  -1.683   1.218  0.00  0.00    +0.000 C 
ENDROOT
BRANCH   1  10
ATOM      7  N   UNL     1       2.110   2.304  -0.745  0.00  0.00    +0.000 N 
ATOM      8  C   UNL     1       1.890   0.880  -0.701  0.00  0.00    +0.000 C 
ATOM      9  O   UNL     1       2.796   0.109  -1.122  0.00  0.00    +0.000 OA
ATOM     10  N   UNL     1       0.672   0.322  -0.174  0.00  0.00    +0.000 N 
ATOM     11  H   UNL     1       0.015   0.940   0.348  0.00  0.00    +0.000 HD
BRANCH   7  13
ATOM     12  O   UNL     1       3.694   3.977  -1.022  0.00  0.00    +0.000 OA
ATOM     13  N   UNL     1       3.414   2.760  -1.014  0.00  0.00    +0.000 NA
ENDBRANCH   7  13
BRANCH   7  14
ATOM     14  C   UNL     1       1.034   3.268  -0.474  0.00  0.00    +0.000 C 
BRANCH  14  15
ATOM     15  C   UNL     1       1.012   3.638   1.008  0.00  0.00    +0.000 C 
ATOM     16 CL   UNL     1      -0.336   4.754   1.341  0.00  0.00    +0.000 Cl
ENDBRANCH  14  15
ENDBRANCH   7  14
ENDBRANCH   1  10
BRANCH   2  17
ATOM     17  O   UNL     1      -1.280  -2.350  -1.309  0.00  0.00    +0.000 OA
ATOM     18  H   UNL     1      -1.144  -1.854  -2.158  0.00  0.00    +0.000 HD
ENDBRANCH   2  17
BRANCH   5  19
ATOM     19  O   UNL     1       0.572  -0.094   2.977  0.00  0.00    +0.000 OA
ATOM     20  H   UNL     1       0.208  -0.034   3.898  0.00  0.00    +0.000 HD
ENDBRANCH   5  19
BRANCH   6  21
ATOM     21  O   UNL     1       1.189  -3.076   1.133  0.00  0.00    +0.000 OA
ATOM     22  H   UNL     1       0.299  -3.506   1.049  0.00  0.00    +0.000 HD
ENDBRANCH   6  21
BRANCH   4  23
ATOM     23  C   UNL     1      -2.295  -1.594   3.190  0.00  0.00    +0.000 C 
BRANCH  23  24
ATOM     24  O   UNL     1      -3.641  -1.436   2.829  0.00  0.00    +0.000 OA
ATOM     25  H   UNL     1      -3.836  -0.464   2.877  0.00  0.00    +0.000 HD
ENDBRANCH  23  24
ENDBRANCH   4  23
TORSDOF 9
