REMARK  Name = 22833605
REMARK  9 active torsions:
REMARK  status: ('A' for Active; 'I' for Inactive)
REMARK    1  A    between atoms: C_1  and  C_2
REMARK    2  A    between atoms: C_2  and  O_3
REMARK    3  A    between atoms: C_2  and  C_15
REMARK    4  A    between atoms: O_3  and  C_4
REMARK    5  A    between atoms: C_5  and  O_6
REMARK    6  A    between atoms: C_7  and  C_8
REMARK    7  A    between atoms: C_8  and  O_9
REMARK    8  A    between atoms: C_11  and  O_12
REMARK    9  A    between atoms: C_13  and  N_14
REMARK                            x       y       z     vdW  Elec       q    Type
REMARK                         _______ _______ _______ _____ _____    ______ ____
ROOT
ATOM      1  C   UNL     1      -0.667  -1.198  -1.116  0.00  0.00    +0.000 C 
ATOM      2  C   UNL     1      -0.763  -2.358  -0.100  0.00  0.00    +0.000 C 
ATOM      3  C   UNL     1       0.109  -2.047   1.139  0.00  0.00    +0.000 C 
ATOM      4  O   UNL     1       1.460  -1.853   0.754  0.00  0.00    +0.000 OA
ATOM      5  C   UNL     1       1.588  -0.707  -0.072  0.00  0.00    +0.000 C 
ATOM      6  C   UNL     1       0.823  -0.907  -1.405  0.00  0.00    +0.000 C 
ENDROOT
BRANCH   6   7
ATOM      7  N   UNL     1       0.975   0.259  -2.286  0.00  0.00    +0.000 N 
ATOM      8  H   UNL     1       1.979   0.375  -2.553  0.00  0.00    +0.000 HD
ATOM      9  H   UNL     1       0.425   0.115  -3.164  0.00  0.00    +0.000 HD
ATOM     10  H   UNL     1       0.648   1.132  -1.811  0.00  0.00    +0.000 HD
ENDBRANCH   6   7
BRANCH   2  11
ATOM     11  O   UNL     1      -2.098  -2.555   0.291  0.00  0.00    +0.000 OA
ATOM     12  H   UNL     1      -2.542  -3.050  -0.447  0.00  0.00    +0.000 HD
ENDBRANCH   2  11
BRANCH   5  13
ATOM     13  O   UNL     1       2.950  -0.472  -0.322  0.00  0.00    +0.000 OA
ATOM     14  H   UNL     1       3.329  -1.314  -0.689  0.00  0.00    +0.000 HD
ENDBRANCH   5  13
BRANCH   1  15
ATOM     15  O   UNL     1      -1.278  -0.031  -0.579  0.00  0.00    +0.000 OA
BRANCH  15  17
ATOM     16  C   UNL     1      -2.529   1.054  -2.341  0.00  0.00    +0.000 C 
ATOM     17  C   UNL     1      -2.586   0.179  -1.086  0.00  0.00    +0.000 C 
BRANCH  17  18
ATOM     18  C   UNL     1      -3.394   0.875  -0.033  0.00  0.00    +0.000 C 
ATOM     19  O   UNL     1      -4.589   0.535   0.177  0.00  0.00    +0.000 OA
ATOM     20  O   UNL     1      -2.843   1.925   0.692  0.00  0.00    +0.000 OA
ENDBRANCH  17  18
ENDBRANCH  15  17
ENDBRANCH   1  15
BRANCH   3  21
ATOM     21  C   UNL     1       0.055  -3.207   2.146  0.00  0.00    +0.000 C 
BRANCH  21  22
ATOM     22  O   UNL     1       0.870  -2.932   3.254  0.00  0.00    +0.000 OA
ATOM     23  H   UNL     1       0.382  -2.266   3.806  0.00  0.00    +0.000 HD
ENDBRANCH  21  22
ENDBRANCH   3  21
TORSDOF 8
