@<TRIPOS>MOLECULE
MOL
   57    60     1     0     0
SMALL
bcc


@<TRIPOS>ATOM
      1 H1          88.6830    17.7760  -102.4820 h2         1 MOL       0.047700
      2 H2          90.6460    16.3650  -107.1170 h2         1 MOL       0.066700
      3 H3          88.2890    21.8750  -104.9980 h1         1 MOL       0.129367
      4 H4          89.7240    14.9980  -105.5270 h1         1 MOL       0.069200
      5 H5          91.6890    19.6640  -103.9140 h1         1 MOL       0.095700
      6 H6          89.4450    24.8540  -100.8630 ha         1 MOL       0.137000
      7 H7          92.3080    18.5920  -108.2380 ha         1 MOL       0.152500
      8 H8          90.0170    23.3620   -96.8650 ha         1 MOL       0.137000
      9 H9          93.5440    14.7160  -106.7630 ha         1 MOL       0.152500
     10 H10         89.9200    15.6620   -99.4310 h1         1 MOL       0.040700
     11 H11         95.5630    14.8150  -108.2090 ha         1 MOL       0.131500
     12 H12         88.5680    15.4570  -100.5700 h1         1 MOL       0.040700
     13 H13         89.1910    16.8960  -104.4440 h1         1 MOL       0.062700
     14 H14         90.0480    22.6290  -101.7880 ha         1 MOL       0.145000
     15 H15         90.6190    21.1310   -97.7770 ha         1 MOL       0.145000
     16 H16         91.5960    18.4090  -101.8170 h1         1 MOL       0.125700
     17 H17         89.1020    22.4900  -106.4560 h1         1 MOL       0.129367
     18 H18         94.3200    18.6680  -109.6980 ha         1 MOL       0.131500
     19 H19         89.8690    22.6820  -104.8610 h1         1 MOL       0.129367
     20 H20         92.2090    17.2940  -104.0870 h1         1 MOL       0.087700
     21 H21         90.7290    14.4750  -104.1350 h1         1 MOL       0.069200
     22 H22         95.9410    16.7790  -109.6860 ha         1 MOL       0.129000
     23 H23         90.2470    15.3740  -101.1570 h1         1 MOL       0.040700
     24 H24         89.4160    25.2180   -98.4040 ha         1 MOL       0.136000
     25 C1          89.6560    17.5100  -102.0680 c3         1 MOL       0.319900
     26 O1          90.1310    16.3430  -102.7270 os         1 MOL      -0.427600
     27 C2          90.1780    16.5600  -104.1260 c3         1 MOL       0.088100
     28 C3          90.5500    15.2620  -104.8670 c3         1 MOL       0.132400
     29 O2          91.7130    15.4280  -105.6580 os         1 MOL      -0.427600
     30 C4          91.5500    16.5390  -106.5340 c3         1 MOL       0.387200
     31 O3          91.3330    17.7830  -105.8610 os         1 MOL      -0.444600
     32 C5          91.2380    17.6210  -104.4600 c3         1 MOL       0.088100
     33 C6          90.8770    18.9490  -103.7780 c3         1 MOL       0.172100
     34 C7          90.6450    18.6860  -102.2720 c3         1 MOL       0.088700
     35 C8          92.7680    16.6280  -107.4270 ca         1 MOL      -0.091300
     36 C9          93.0090    17.7570  -108.2430 ca         1 MOL      -0.094500
     37 C10         94.1450    17.8040  -109.0560 ca         1 MOL      -0.142000
     38 C11         95.0590    16.7420  -109.0470 ca         1 MOL      -0.118000
     39 C12         94.8440    15.6340  -108.2210 ca         1 MOL      -0.142000
     40 C13         93.7060    15.5780  -107.4110 ca         1 MOL      -0.094500
     41 N1          90.1520    19.9010  -101.6140 n          1 MOL      -0.557900
     42 C14         90.7140    20.3810  -100.3800 c          1 MOL       0.680700
     43 O4          91.5130    19.6500   -99.7330 o          1 MOL      -0.587100
     44 H25         89.3280    20.3980  -102.0220 hn         1 MOL       0.311500
     45 C15         90.3550    21.7150   -99.8470 ca         1 MOL      -0.140600
     46 C16         90.3550    21.9410   -98.4570 ca         1 MOL      -0.091500
     47 C17         90.0190    23.1980   -97.9430 ca         1 MOL      -0.138000
     48 C18         89.6860    24.2420   -98.8070 ca         1 MOL      -0.109000
     49 C19         89.6980    24.0360  -100.1890 ca         1 MOL      -0.138000
     50 C20         90.0340    22.7820  -100.7090 ca         1 MOL      -0.091500
     51 C21         89.5750    15.8560  -100.4470 c3         1 MOL       0.119700
     52 O5          89.5620    17.2480  -100.6810 os         1 MOL      -0.402600
     53 O6          89.6960    19.4810  -104.3510 os         1 MOL      -0.589500
     54 S1          90.0690    20.4630  -105.6840 s6         1 MOL       1.612500
     55 C22         89.2540    22.0290  -105.4800 c3         1 MOL      -0.394300
     56 O7          89.5840    19.8230  -106.9580 o          1 MOL      -0.655300
     57 O8          91.5540    20.6950  -105.7660 o          1 MOL      -0.655300
@<TRIPOS>BOND
     1     1    25 1   
     2    25    52 1   
     3    25    26 1   
     4    13    27 1   
     5    26    27 1   
     6     4    28 1   
     7    21    28 1   
     8    27    28 1   
     9    28    29 1   
    10     2    30 1   
    11    29    30 1   
    12    30    31 1   
    13    31    32 1   
    14    20    32 1   
    15    27    32 1   
    16    32    33 1   
    17     5    33 1   
    18    33    34 1   
    19    16    34 1   
    20    25    34 1   
    21    34    41 1   
    22    30    35 1   
    23    35    40 ar  
    24     7    36 1   
    25    35    36 ar  
    26    18    37 1   
    27    36    37 ar  
    28    37    38 ar  
    29    22    38 1   
    30    38    39 ar  
    31    11    39 1   
    32    39    40 ar  
    33     9    40 1   
    34    41    42 1   
    35    42    43 2   
    36    42    45 1   
    37    41    44 1   
    38    45    46 ar  
    39    15    46 1   
    40    46    47 ar  
    41     8    47 1   
    42    24    48 1   
    43    47    48 ar  
    44     6    49 1   
    45    48    49 ar  
    46    14    50 1   
    47    45    50 ar  
    48    49    50 ar  
    49    10    51 1   
    50    12    51 1   
    51    23    51 1   
    52    51    52 1   
    53    33    53 1   
    54    53    54 1   
    55    54    55 1   
    56     3    55 1   
    57    17    55 1   
    58    19    55 1   
    59    54    56 2   
    60    54    57 2   
@<TRIPOS>SUBSTRUCTURE
     1 MOL         1 TEMP              0 ****  ****    0 ROOT
