134695375
  rDOCK(R)          3D
libRbt.so/2013.1/901 2013/11/27
 24 24  0  0  0  0  0  0  0  0999 V2000
   31.4942   -3.6498  -66.8997 H   0  0  0  0  0  0
   31.1020   -3.4950  -65.9798 O   0  0  0  0  0  0
   31.4268   -2.3569  -65.2753 N   0  0  0  0  0  0
   32.5328   -2.2360  -64.6479 N   0  3  0  0  0  0
   32.8055   -0.9920  -63.9765 C   0  0  0  0  0  0
   31.8493   -0.2197  -63.6898 O   0  0  0  0  0  0
   34.1513   -0.6087  -63.6451 N   0  0  0  0  0  0
   34.9475   -1.1490  -64.0518 H   0  0  0  0  0  0
   34.4405    0.5662  -62.8122 C   0  0  0  0  0  0
   35.2317    0.1719  -61.5208 C   0  0  0  0  0  0
   35.9223   -1.0368  -61.7059 O   0  0  0  0  0  0
   35.2414   -1.7595  -61.7152 H   0  0  0  0  0  0
   36.1609    1.1652  -61.0958 O   0  0  0  0  0  0
   35.6120    2.4636  -61.2204 C   0  0  0  0  0  0
   36.4347    3.4504  -60.3781 C   0  0  0  0  0  0
   37.7894    3.3853  -60.7349 O   0  0  0  0  0  0
   37.8491    3.6684  -61.6846 H   0  0  0  0  0  0
   35.5460    2.8651  -62.7215 C   0  0  0  0  0  0
   36.7643    3.4208  -63.1547 O   0  0  0  0  0  0
   36.6654    4.4084  -63.1257 H   0  0  0  0  0  0
   35.2316    1.6302  -63.6039 C   0  0  0  0  0  0
   34.5483    2.0138  -64.7722 O   0  0  0  0  0  0
   35.0524    2.7636  -65.1842 H   0  0  0  0  0  0
   33.5275   -3.3160  -64.6565 C   0  0  0  0  0  0
  1  2  1  0  0  0
  2  3  1  0  0  0
  3  4  2  0  0  0
  4  5  1  0  0  0
  4 24  1  0  0  0
  5  6  2  0  0  0
  5  7  1  0  0  0
  7  8  1  0  0  0
  7  9  1  0  0  0
  9 10  1  0  0  0
 10 11  1  0  0  0
 10 13  1  0  0  0
 11 12  1  0  0  0
 13 14  1  0  0  0
 14 15  1  0  0  0
 14 18  1  0  0  0
 15 16  1  0  0  0
 16 17  1  0  0  0
 18 19  1  0  0  0
 18 21  1  0  0  0
 19 20  1  0  0  0
 21 22  1  0  0  0
 21  9  1  0  0  0
 22 23  1  0  0  0
M  END
>  <CHROM.0>
-176.46329137,-59.68039126,62.87294660

>  <CHROM.1>
-78.87420283,120.64894883,-72.10442895,54.69230871,62.86279457,-98.07563502
173.98282321,34.53575170,0.38324264,-63.11282775,2.67608359,0.86841867,2.73241181

>  <Energy>
40.92309084294866

>  <Genealogy>
C[NH+](N=O)C(=O)N[C@H]1[C@@H](O)OC(CO)C(O)[C@@H]1O (protonated)
C[N+](=NO)C(=O)N[C@H]1[C@@H](O)OC(CO)C(O)[C@@H]1O (tautomer)
C[N+](=NO)C(=O)N[C@H]1[C@@H](O)O[C@@H](CO)[C@@H](O)[C@@H]1O (chirality)
C/[N+](=N/O)C(=O)N[C@H]1[C@@H](O)O[C@@H](CO)[C@@H](O)[C@@H]1O (cis-trans isomerization)
C/[N+](=N/O)C(=O)N[C@H]1[C@@H](O)O[C@@H](CO)[C@@H](O)[C@@H]1O (3D coordinates assigned)
C/[N+](=N/O)C(=O)N[C@H]1[C@@H](O)O[C@@H](CO)[C@@H](O)[C@@H]1O (nonaromatic ring conformer: 40.92309084294866 kcal/mol)

>  <Name>
134695375

>  <RI>
2.59779e+07

>  <Rbt.Current_Directory>
/home/edward/Documentos/Virtual_Screening/rDock/N-terminal/2

>  <Rbt.Executable>
rbdock ($Id: //depot/dev/client3/rdock/2013.1/src/exe/rbdock.cxx#4 $)

>  <Rbt.Library>
libRbt.so (2013.1, Build901 2013/11/27)

>  <Rbt.Parameter_File>
/home/edward/anaconda3/envs/MD/share/rdock-2013.1-1/data/scripts/dock.prm

>  <Rbt.Receptor>
parameters.prm

>  <SCORE>
-27.5986

>  <SCORE.INTER>
-24.9502

>  <SCORE.INTER.CONST>
1

>  <SCORE.INTER.POLAR>
-4.87306

>  <SCORE.INTER.REPUL>
0.0690407

>  <SCORE.INTER.ROT>
2

>  <SCORE.INTER.VDW>
-16.127

>  <SCORE.INTER.norm>
-1.38612

>  <SCORE.INTRA>
-1.52638

>  <SCORE.INTRA.DIHEDRAL>
-2.20921

>  <SCORE.INTRA.DIHEDRAL.0>
9.72609

>  <SCORE.INTRA.POLAR>
-0.241253

>  <SCORE.INTRA.POLAR.0>
-0.158008

>  <SCORE.INTRA.REPUL>
0

>  <SCORE.INTRA.REPUL.0>
0

>  <SCORE.INTRA.VDW>
0.398481

>  <SCORE.INTRA.VDW.0>
-1.67705

>  <SCORE.INTRA.norm>
-0.0847989

>  <SCORE.RESTR>
0

>  <SCORE.RESTR.CAVITY>
0

>  <SCORE.RESTR.norm>
0

>  <SCORE.SYSTEM>
-1.12207

>  <SCORE.SYSTEM.CONST>
0

>  <SCORE.SYSTEM.DIHEDRAL>
0.102708

>  <SCORE.SYSTEM.REPUL>
0.0302619

>  <SCORE.SYSTEM.VDW>
-1.32473

>  <SCORE.SYSTEM.norm>
-0.062337

>  <SCORE.heavy>
18

>  <SCORE.norm>
-1.53326

>  <SMILES>
C/[N+](=N/O)C(=O)N[C@H]1[C@@H](O)O[C@@H](CO)[C@@H](O)[C@@H]1O

>  <UniqueID>
2

$$$$
129878031
  rDOCK(R)          3D
libRbt.so/2013.1/901 2013/11/27
 23 23  0  0  0  0  0  0  0  0999 V2000
   30.5629    1.0780  -63.4663 H   0  0  0  0  0  0
   30.7274    0.1142  -63.2022 O   0  0  0  0  0  0
   32.0194   -0.3691  -62.9978 C   0  0  0  0  0  0
   32.1954   -1.6707  -62.7133 C   0  0  0  0  0  0
   31.0487   -2.6386  -62.6198 C   0  0  0  0  0  0
   31.2103   -3.7870  -63.6121 C   0  0  0  0  0  0
   33.1228    0.5548  -63.0856 N   0  0  0  0  0  0
   32.8836    1.5698  -63.0293 H   0  0  0  0  0  0
   34.5429    0.1740  -63.1507 C   0  0  0  0  0  0
   35.1274    0.1189  -61.7132 C   0  0  0  0  0  0
   36.3039   -0.6511  -61.6072 O   0  0  0  0  0  0
   36.9322   -0.3854  -62.3246 H   0  0  0  0  0  0
   35.3016    1.4103  -61.1515 O   0  0  0  0  0  0
   36.1954    2.2092  -61.9103 C   0  0  0  0  0  0
   36.4323    3.5228  -61.1492 C   0  0  0  0  0  0
   37.1266    3.2775  -59.9554 O   0  0  0  0  0  0
   38.0098    2.9017  -60.2088 H   0  0  0  0  0  0
   35.6163    2.4930  -63.3136 C   0  0  0  0  0  0
   36.5353    3.2507  -64.0592 O   0  0  0  0  0  0
   36.5167    4.1716  -63.6888 H   0  0  0  0  0  0
   35.3443    1.1573  -64.0375 C   0  0  0  0  0  0
   34.7133    1.3524  -65.2809 O   0  0  0  0  0  0
   35.2831    1.9512  -65.8294 H   0  0  0  0  0  0
  1  2  1  0  0  0
  2  3  1  0  0  0
  3  4  2  0  0  0
  3  7  1  0  0  0
  4  5  1  0  0  0
  5  6  1  0  0  0
  7  8  1  0  0  0
  7  9  1  0  0  0
  9 10  1  0  0  0
 10 11  1  0  0  0
 10 13  1  0  0  0
 11 12  1  0  0  0
 13 14  1  0  0  0
 14 15  1  0  0  0
 14 18  1  0  0  0
 15 16  1  0  0  0
 16 17  1  0  0  0
 18 19  1  0  0  0
 18 21  1  0  0  0
 19 20  1  0  0  0
 21 22  1  0  0  0
 21  9  1  0  0  0
 22 23  1  0  0  0
M  END
>  <CHROM.0>
-73.73637108,-61.19959879,60.27423424

>  <CHROM.1>
-176.72472196,121.43500244,-91.35274868,48.38913068,66.76937897,62.54521647
-73.30605553,-177.23303998,34.37567714,0.67634275,-62.68152187,2.96108651
0.74694425,2.09947581

>  <Energy>
34.93432541755163

>  <Genealogy>
[2H]CCC=C(O)N[C@@H]1C(O)O[C@H](CO)[C@@H](O)[C@@H]1O (tautomer)
[2H]CCC=C(O)N[C@@H]1[C@@H](O)O[C@H](CO)[C@@H](O)[C@@H]1O (chirality)
[2H]CC/C=C(/O)N[C@@H]1[C@@H](O)O[C@H](CO)[C@@H](O)[C@@H]1O (cis-trans isomerization)
[2H]CC/C=C(/O)N[C@@H]1[C@@H](O)O[C@H](CO)[C@@H](O)[C@@H]1O (3D coordinates assigned)
[2H]CC/C=C(/O)N[C@@H]1[C@@H](O)O[C@H](CO)[C@@H](O)[C@@H]1O (nonaromatic ring conformer: 34.93432541755163 kcal/mol)

>  <Name>
129878031

>  <RI>
2.59779e+07

>  <Rbt.Current_Directory>
/home/edward/Documentos/Virtual_Screening/rDock/N-terminal/2

>  <Rbt.Executable>
rbdock ($Id: //depot/dev/client3/rdock/2013.1/src/exe/rbdock.cxx#4 $)

>  <Rbt.Library>
libRbt.so (2013.1, Build901 2013/11/27)

>  <Rbt.Parameter_File>
/home/edward/anaconda3/envs/MD/share/rdock-2013.1-1/data/scripts/dock.prm

>  <Rbt.Receptor>
parameters.prm

>  <SCORE>
-28.7725

>  <SCORE.INTER>
-24.8201

>  <SCORE.INTER.CONST>
1

>  <SCORE.INTER.POLAR>
-4.87538

>  <SCORE.INTER.REPUL>
0.0350712

>  <SCORE.INTER.ROT>
3

>  <SCORE.INTER.VDW>
-16.8191

>  <SCORE.INTER.norm>
-1.46001

>  <SCORE.INTRA>
-3.80193

>  <SCORE.INTRA.DIHEDRAL>
-7.86441

>  <SCORE.INTRA.DIHEDRAL.0>
12.6578

>  <SCORE.INTRA.POLAR>
0

>  <SCORE.INTRA.POLAR.0>
0

>  <SCORE.INTRA.REPUL>
0

>  <SCORE.INTRA.REPUL.0>
0

>  <SCORE.INTRA.VDW>
0.13027

>  <SCORE.INTRA.VDW.0>
-1.83381

>  <SCORE.INTRA.norm>
-0.223643

>  <SCORE.RESTR>
0

>  <SCORE.RESTR.CAVITY>
0

>  <SCORE.RESTR.norm>
0

>  <SCORE.SYSTEM>
-0.150452

>  <SCORE.SYSTEM.CONST>
0

>  <SCORE.SYSTEM.DIHEDRAL>
0.899154

>  <SCORE.SYSTEM.VDW>
-0.600029

>  <SCORE.SYSTEM.norm>
-0.00885012

>  <SCORE.heavy>
17

>  <SCORE.norm>
-1.6925

>  <SMILES>
[2H]CC/C=C(/O)N[C@@H]1[C@@H](O)O[C@H](CO)[C@@H](O)[C@@H]1O

>  <UniqueID>
3

$$$$
118707521
  rDOCK(R)          3D
libRbt.so/2013.1/901 2013/11/27
 39 43  0  0  0  0  0  0  0  0999 V2000
   30.6908   -1.7957  -64.8886 C   0  0  0  0  0  0
   31.9667   -2.4911  -65.0779 N   0  0  0  0  0  0
   33.1680   -2.1584  -64.5447 C   0  0  0  0  0  0
   33.4386   -0.9649  -63.7207 C   0  0  0  0  0  0
   34.6774   -0.4365  -63.4401 C   0  0  0  0  0  0
   34.4644    0.6457  -62.6662 N   0  0  0  0  0  0
   35.4436    1.6221  -62.1665 C   0  0  0  0  0  0
   35.2782    3.0227  -62.8325 C   0  0  0  0  0  0
   36.3605    3.2495  -63.6951 O   0  0  0  0  0  0
   35.2486    4.0554  -61.8602 O   0  0  0  0  0  0
   34.1233    3.8957  -61.0138 C   0  0  0  0  0  0
   33.9709    5.1723  -60.1722 C   0  0  0  0  0  0
   32.7873    5.1446  -59.4210 O   0  0  0  0  0  0
   34.2785    2.6336  -60.1131 C   0  0  0  0  0  0
   33.0673    1.9227  -60.0663 O   0  0  0  0  0  0
   35.4002    1.6992  -60.6226 C   0  0  0  0  0  0
   36.6453    2.1666  -60.1612 O   0  0  0  0  0  0
   33.1573    0.7789  -62.5023 N   0  0  0  0  0  0
   32.5060   -0.1904  -63.1293 N   0  0  0  0  0  0
   34.1354   -3.0513  -64.8431 N   0  0  0  0  0  0
   33.5247   -3.9794  -65.6059 C   0  0  0  0  0  0
   34.2358   -5.1491  -66.1663 C   0  0  0  0  0  0
   33.5394   -6.1902  -66.8062 C   0  0  0  0  0  0
   34.2326   -7.2869  -67.3286 C   0  0  0  0  0  0
   35.6251   -7.3475  -67.2317 C   0  0  0  0  0  0
   36.2950   -8.4110  -67.7403 F   0  0  0  0  0  0
   36.3273   -6.3073  -66.6171 C   0  0  0  0  0  0
   35.6378   -5.2101  -66.0912 C   0  0  0  0  0  0
   32.1876   -3.6387  -65.7575 C   0  0  0  0  0  0
   31.1499   -4.4289  -66.4527 C   0  0  0  0  0  0
   30.7301   -5.6617  -65.9329 C   0  0  0  0  0  0
   29.7655   -6.4035  -66.6186 C   0  0  0  0  0  0
   29.2409   -5.9314  -67.7803 N   0  0  0  0  0  0
   29.6332   -4.7416  -68.3078 C   0  0  0  0  0  0
   30.5970   -3.9689  -67.6556 C   0  0  0  0  0  0
   36.2623    4.1773  -64.0356 H   0  0  0  0  0  0
   32.7491    5.9984  -58.9171 H   0  0  0  0  0  0
   32.8482    1.6620  -60.9987 H   0  0  0  0  0  0
   36.7656    3.0825  -60.5269 H   0  0  0  0  0  0
  1  2  1  0  0  0
  2  3  1  0  0  0
  3  4  1  0  0  0
  3 20  2  0  0  0
  4  5  2  0  0  0
  5  6  1  0  0  0
  6  7  1  0  0  0
  6 18  1  0  0  0
  7  8  1  0  0  0
  8  9  1  0  0  0
  8 10  1  0  0  0
  9 36  1  0  0  0
 10 11  1  0  0  0
 11 12  1  0  0  0
 11 14  1  0  0  0
 12 13  1  0  0  0
 13 37  1  0  0  0
 14 15  1  0  0  0
 14 16  1  0  0  0
 15 38  1  0  0  0
 16 17  1  0  0  0
 16  7  1  0  0  0
 17 39  1  0  0  0
 18 19  2  0  0  0
 19  4  1  0  0  0
 20 21  1  0  0  0
 21 22  1  0  0  0
 21 29  2  0  0  0
 22 23  2  0  0  0
 23 24  1  0  0  0
 24 25  2  0  0  0
 25 26  1  0  0  0
 25 27  1  0  0  0
 27 28  2  0  0  0
 28 22  1  0  0  0
 29 30  1  0  0  0
 29  2  1  0  0  0
 30 31  2  0  0  0
 31 32  1  0  0  0
 32 33  2  0  0  0
 33 34  1  0  0  0
 34 35  2  0  0  0
 35 30  1  0  0  0
M  END
>  <CHROM.0>
-170.77722388,-56.22218486,63.74616335

>  <CHROM.1>
-163.34222995,110.68930333,-175.09599988,173.24813382,-179.19851911,59.76397553
62.51719365,171.41644576,-108.16235702,33.59330419,-1.54262990,-64.15034994
1.71766488,0.12128941,-2.58694765

>  <Energy>
149.1680216850647

>  <Genealogy>
Cn1c(-c2cn([C@H]3[C@H](O)O[C@H](CO)[C@@H](O)[C@@H]3O)nn2)nc(-c2ccc(F)cc2)c1-c1ccncc1 (3D coordinates assigned)
Cn1c(-c2cn([C@H]3[C@H](O)O[C@H](CO)[C@@H](O)[C@@H]3O)nn2)nc(-c2ccc(F)cc2)c1-c1ccncc1 (nonaromatic ring conformer: 149.1680216850647 kcal/mol)

>  <Name>
118707521

>  <RI>
2.59779e+07

>  <Rbt.Current_Directory>
/home/edward/Documentos/Virtual_Screening/rDock/N-terminal/2

>  <Rbt.Executable>
rbdock ($Id: //depot/dev/client3/rdock/2013.1/src/exe/rbdock.cxx#4 $)

>  <Rbt.Library>
libRbt.so (2013.1, Build901 2013/11/27)

>  <Rbt.Parameter_File>
/home/edward/anaconda3/envs/MD/share/rdock-2013.1-1/data/scripts/dock.prm

>  <Rbt.Receptor>
parameters.prm

>  <SCORE>
-25.541

>  <SCORE.INTER>
-18.7828

>  <SCORE.INTER.CONST>
1

>  <SCORE.INTER.POLAR>
-2.26451

>  <SCORE.INTER.REPUL>
0.123678

>  <SCORE.INTER.ROT>
5

>  <SCORE.INTER.VDW>
-22.1018

>  <SCORE.INTER.norm>
-0.53665

>  <SCORE.INTRA>
-5.79318

>  <SCORE.INTRA.DIHEDRAL>
-4.73692

>  <SCORE.INTRA.DIHEDRAL.0>
20.2116

>  <SCORE.INTRA.POLAR>
-1.17086

>  <SCORE.INTRA.POLAR.0>
0

>  <SCORE.INTRA.REPUL>
0

>  <SCORE.INTRA.REPUL.0>
0

>  <SCORE.INTRA.VDW>
0.556218

>  <SCORE.INTRA.VDW.0>
-4.11239

>  <SCORE.INTRA.norm>
-0.165519

>  <SCORE.RESTR>
0

>  <SCORE.RESTR.CAVITY>
0

>  <SCORE.RESTR.norm>
0

>  <SCORE.SYSTEM>
-0.965099

>  <SCORE.SYSTEM.CONST>
0

>  <SCORE.SYSTEM.DIHEDRAL>
0.55089

>  <SCORE.SYSTEM.REPUL>
0.0141413

>  <SCORE.SYSTEM.VDW>
-1.31125

>  <SCORE.SYSTEM.norm>
-0.0275743

>  <SCORE.heavy>
35

>  <SCORE.norm>
-0.729744

>  <SMILES>
Cn1c(-c2cn([C@H]3[C@H](O)O[C@H](CO)[C@@H](O)[C@@H]3O)nn2)nc(-c2ccc(F)cc2)c1-c1ccncc1

>  <UniqueID>
10

$$$$
91820057
  rDOCK(R)          3D
libRbt.so/2013.1/901 2013/11/27
 23 23  0  0  0  0  0  0  0  0999 V2000
   38.1616    3.6630  -61.2981 H   0  0  0  0  0  0
   37.2671    4.0531  -61.0252 O   0  0  0  0  0  0
   36.0721    3.4662  -61.4314 C   0  0  0  0  0  0
   36.1130    2.3707  -62.1370 N   0  0  0  0  0  0
   34.9699    1.6184  -62.6669 C   0  0  0  0  0  0
   35.3538    0.9593  -64.0095 C   0  0  0  0  0  0
   35.6440    1.9581  -64.9482 O   0  0  0  0  0  0
   35.6880    1.5087  -65.8323 H   0  0  0  0  0  0
   34.2827    0.1691  -64.5009 O   0  0  0  0  0  0
   34.0333   -0.9232  -63.6316 C   0  0  0  0  0  0
   33.0191   -1.8653  -64.2898 C   0  0  0  0  0  0
   32.6500   -2.8627  -63.3678 O   0  0  0  0  0  0
   31.9556   -4.1497  -64.2225 S   0  0  0  0  0  0
   31.1143   -3.5937  -65.3358 O   0  0  0  0  0  0
   33.0310   -5.0201  -64.8108 O   0  0  0  0  0  0
   30.9764   -5.0668  -63.2095 O   0  5  0  0  0  0
   33.5180   -0.4132  -62.2679 C   0  0  0  0  0  0
   32.3000    0.2687  -62.4440 O   0  0  0  0  0  0
   32.4665    0.9948  -63.1001 H   0  0  0  0  0  0
   34.5706    0.5274  -61.6536 C   0  0  0  0  0  0
   34.0547    1.1119  -60.4846 O   0  0  0  0  0  0
   34.0122    0.3967  -59.7975 H   0  0  0  0  0  0
   34.7837    4.1118  -61.0129 C   0  0  0  0  0  0
  1  2  1  0  0  0
  2  3  1  0  0  0
  3  4  2  0  0  0
  3 23  1  0  0  0
  4  5  1  0  0  0
  5  6  1  0  0  0
  6  7  1  0  0  0
  6  9  1  0  0  0
  7  8  1  0  0  0
  9 10  1  0  0  0
 10 11  1  0  0  0
 10 17  1  0  0  0
 11 12  1  0  0  0
 12 13  1  0  0  0
 13 14  2  0  0  0
 13 15  2  0  0  0
 13 16  1  0  0  0
 17 18  1  0  0  0
 17 20  1  0  0  0
 18 19  1  0  0  0
 20 21  1  0  0  0
 20  5  1  0  0  0
 21 22  1  0  0  0
M  END
>  <CHROM.0>
70.24167591,-59.88804162,-178.67360497

>  <CHROM.1>
2.32365144,147.40003359,-167.86528220,-173.07703432,-161.77825308,-38.54408618
-56.50078446,-167.18212524,33.82779282,-0.45500052,-63.11487314,-0.75202427
-0.89339493,-2.11371511

>  <Energy>
29.896683021282357

>  <Genealogy>
CC(O)=N[C@H]1C(O)O[C@H](COS(=O)(=O)[O-])[C@H](O)[C@@H]1O (tautomer)
CC(O)=N[C@H]1[C@H](O)O[C@H](COS(=O)(=O)[O-])[C@H](O)[C@@H]1O (chirality)
C/C(O)=N/[C@H]1[C@H](O)O[C@H](COS(=O)(=O)[O-])[C@H](O)[C@@H]1O (cis-trans isomerization)
C/C(O)=N/[C@H]1[C@H](O)O[C@H](COS(=O)(=O)[O-])[C@H](O)[C@@H]1O (3D coordinates assigned)
C/C(O)=N/[C@H]1[C@H](O)O[C@H](COS(=O)(=O)[O-])[C@H](O)[C@@H]1O (nonaromatic ring conformer: 29.896683021282357 kcal/mol)

>  <Name>
91820057

>  <RI>
2.59779e+07

>  <Rbt.Current_Directory>
/home/edward/Documentos/Virtual_Screening/rDock/N-terminal/2

>  <Rbt.Executable>
rbdock ($Id: //depot/dev/client3/rdock/2013.1/src/exe/rbdock.cxx#4 $)

>  <Rbt.Library>
libRbt.so (2013.1, Build901 2013/11/27)

>  <Rbt.Parameter_File>
/home/edward/anaconda3/envs/MD/share/rdock-2013.1-1/data/scripts/dock.prm

>  <Rbt.Receptor>
parameters.prm

>  <SCORE>
-18.6047

>  <SCORE.INTER>
-19.5619

>  <SCORE.INTER.CONST>
1

>  <SCORE.INTER.POLAR>
-4.15045

>  <SCORE.INTER.REPUL>
0.305213

>  <SCORE.INTER.ROT>
4

>  <SCORE.INTER.VDW>
-16.3764

>  <SCORE.INTER.norm>
-1.02957

>  <SCORE.INTRA>
0.944459

>  <SCORE.INTRA.DIHEDRAL>
-0.494264

>  <SCORE.INTRA.DIHEDRAL.0>
5.14056

>  <SCORE.INTRA.POLAR>
-0.00331161

>  <SCORE.INTRA.POLAR.0>
0

>  <SCORE.INTRA.REPUL>
0

>  <SCORE.INTRA.REPUL.0>
0

>  <SCORE.INTRA.VDW>
1.20285

>  <SCORE.INTRA.VDW.0>
-2.1436

>  <SCORE.INTRA.norm>
0.0497083

>  <SCORE.RESTR>
0

>  <SCORE.RESTR.CAVITY>
0

>  <SCORE.RESTR.norm>
0

>  <SCORE.SYSTEM>
0.0127384

>  <SCORE.SYSTEM.CONST>
0

>  <SCORE.SYSTEM.DIHEDRAL>
0.514075

>  <SCORE.SYSTEM.POLAR>
-0.0256861

>  <SCORE.SYSTEM.REPUL>
0.000247924

>  <SCORE.SYSTEM.VDW>
-0.158206

>  <SCORE.SYSTEM.norm>
0.00067044

>  <SCORE.heavy>
19

>  <SCORE.norm>
-0.979194

>  <SMILES>
C/C(O)=N/[C@H]1[C@H](O)O[C@H](COS(=O)(=O)[O-])[C@H](O)[C@@H]1O

>  <UniqueID>
11

$$$$
90659182
  rDOCK(R)          3D
libRbt.so/2013.1/901 2013/11/27
 22 22  0  0  0  0  0  0  0  0999 V2000
   32.3693    2.5999  -57.3316 H   0  0  0  0  0  0
   31.4083    2.4295  -57.6028 O   0  0  0  0  0  0
   30.9820    2.6210  -58.9127 C   0  0  0  0  0  0
   31.8112    2.9560  -59.8586 N   0  0  0  0  0  0
   33.2543    3.2402  -59.7808 C   0  0  0  0  0  0
   33.6820    4.4707  -60.6148 C   0  0  0  0  0  0
   34.8409    5.0483  -60.0669 O   0  0  0  0  0  0
   35.0967    5.7923  -60.6723 H   0  0  0  0  0  0
   33.8758    4.1584  -61.9854 O   0  0  0  0  0  0
   34.8756    3.1698  -62.1702 C   0  0  0  0  0  0
   35.1316    3.0455  -63.6824 C   0  0  0  0  0  0
   36.4923    3.1987  -63.9862 O   0  0  0  0  0  0
   36.7170    4.1505  -63.8153 H   0  0  0  0  0  0
   34.4246    1.8197  -61.5650 C   0  0  0  0  0  0
   35.4682    0.8559  -61.7312 O   0  0  0  0  0  0
   35.2727   -0.5276  -61.6521 C   0  0  0  0  0  0
   34.1250   -1.0097  -61.4511 O   0  0  0  0  0  0
   36.4285   -1.4429  -61.8701 C   0  0  0  0  0  0
   34.1268    1.9987  -60.0654 C   0  0  0  0  0  0
   33.5020    0.8508  -59.5472 O   0  0  0  0  0  0
   34.1778    0.1236  -59.5447 H   0  0  0  0  0  0
   29.5450    2.3919  -59.2551 C   0  0  0  0  0  0
  1  2  1  0  0  0
  2  3  1  0  0  0
  3  4  2  0  0  0
  3 22  1  0  0  0
  4  5  1  0  0  0
  5  6  1  0  0  0
  6  7  1  0  0  0
  6  9  1  0  0  0
  7  8  1  0  0  0
  9 10  1  0  0  0
 10 11  1  0  0  0
 10 14  1  0  0  0
 11 12  1  0  0  0
 12 13  1  0  0  0
 14 15  1  0  0  0
 14 19  1  0  0  0
 15 16  1  0  0  0
 16 17  2  0  0  0
 16 18  1  0  0  0
 19 20  1  0  0  0
 19  5  1  0  0  0
 20 21  1  0  0  0
M  END
>  <CHROM.0>
-75.82917960,-60.87122242,179.19584542

>  <CHROM.1>
3.77868026,-137.29504788,176.57770568,126.33142247,-69.39496817,-161.19347907
1.52150078,-166.24702324,33.87955272,2.18870566,-60.87866508,2.96530152,0.72488757
-0.14608190

>  <Energy>
34.726609832045696

>  <Genealogy>
CC(=O)O[C@@H]1[C@@H](CO)O[C@H](O)[C@@H](N=C(C)O)[C@H]1O (tautomer)
CC(=O)O[C@@H]1[C@@H](CO)O[C@H](O)[C@@H](/N=C(/C)O)[C@H]1O (cis-trans isomerization)
CC(=O)O[C@@H]1[C@@H](CO)O[C@H](O)[C@@H](/N=C(/C)O)[C@H]1O (3D coordinates assigned)
CC(=O)O[C@@H]1[C@@H](CO)O[C@H](O)[C@@H](/N=C(/C)O)[C@H]1O (nonaromatic ring conformer: 34.726609832045696 kcal/mol)

>  <Name>
90659182

>  <RI>
2.59779e+07

>  <Rbt.Current_Directory>
/home/edward/Documentos/Virtual_Screening/rDock/N-terminal/2

>  <Rbt.Executable>
rbdock ($Id: //depot/dev/client3/rdock/2013.1/src/exe/rbdock.cxx#4 $)

>  <Rbt.Library>
libRbt.so (2013.1, Build901 2013/11/27)

>  <Rbt.Parameter_File>
/home/edward/anaconda3/envs/MD/share/rdock-2013.1-1/data/scripts/dock.prm

>  <Rbt.Receptor>
parameters.prm

>  <SCORE>
-21.2167

>  <SCORE.INTER>
-20.5705

>  <SCORE.INTER.CONST>
1

>  <SCORE.INTER.POLAR>
-4.96187

>  <SCORE.INTER.REPUL>
0.225793

>  <SCORE.INTER.ROT>
4

>  <SCORE.INTER.VDW>
-14.2291

>  <SCORE.INTER.norm>
-1.14281

>  <SCORE.INTRA>
-0.588757

>  <SCORE.INTRA.DIHEDRAL>
-2.38718

>  <SCORE.INTRA.DIHEDRAL.0>
11.24

>  <SCORE.INTRA.POLAR>
0

>  <SCORE.INTRA.POLAR.0>
0

>  <SCORE.INTRA.REPUL>
0

>  <SCORE.INTRA.REPUL.0>
0

>  <SCORE.INTRA.VDW>
0.604831

>  <SCORE.INTRA.VDW.0>
-2.94013

>  <SCORE.INTRA.norm>
-0.0327087

>  <SCORE.RESTR>
0

>  <SCORE.RESTR.CAVITY>
0

>  <SCORE.RESTR.norm>
0

>  <SCORE.SYSTEM>
-0.0574151

>  <SCORE.SYSTEM.CONST>
0

>  <SCORE.SYSTEM.DIHEDRAL>
1.17423

>  <SCORE.SYSTEM.VDW>
-0.644532

>  <SCORE.SYSTEM.norm>
-0.00318973

>  <SCORE.heavy>
18

>  <SCORE.norm>
-1.17871

>  <SMILES>
CC(=O)O[C@@H]1[C@@H](CO)O[C@H](O)[C@@H](/N=C(/C)O)[C@H]1O

>  <UniqueID>
14

$$$$
76325328
  rDOCK(R)          3D
libRbt.so/2013.1/901 2013/11/27
 39 43  0  0  0  0  0  0  0  0999 V2000
   34.4100    8.3982  -60.2520 C   0  0  0  0  0  0
   34.6131    8.5937  -58.8145 N   0  0  0  0  0  0
   34.9279    7.6488  -57.8949 C   0  0  0  0  0  0
   35.0458    6.2017  -58.1602 C   0  0  0  0  0  0
   35.0700    5.6021  -59.4012 C   0  0  0  0  0  0
   35.2099    4.2845  -59.1779 N   0  0  0  0  0  0
   35.3450    3.2394  -60.1968 C   0  0  0  0  0  0
   33.9675    2.8546  -60.7685 C   0  0  0  0  0  0
   33.2908    3.9813  -61.2690 O   0  0  0  0  0  0
   34.0944    1.8482  -61.7627 O   0  0  0  0  0  0
   34.8559    2.2960  -62.8763 C   0  0  0  0  0  0
   34.8259    1.1880  -63.9389 C   0  0  0  0  0  0
   35.8256    1.3984  -64.8978 O   0  0  0  0  0  0
   36.3081    2.6292  -62.4509 C   0  0  0  0  0  0
   37.0269    3.1279  -63.5502 O   0  0  0  0  0  0
   36.2872    3.6870  -61.3301 C   0  0  0  0  0  0
   37.5828    3.9271  -60.8383 O   0  0  0  0  0  0
   35.2853    4.0879  -57.8702 N   0  0  0  0  0  0
   35.1849    5.2406  -57.2244 N   0  0  0  0  0  0
   35.1235    8.1663  -56.6634 N   0  0  0  0  0  0
   34.9092    9.4893  -56.8074 C   0  0  0  0  0  0
   34.9935   10.4420  -55.6785 C   0  0  0  0  0  0
   34.8781    9.9688  -54.3605 C   0  0  0  0  0  0
   34.9458   10.8561  -53.2820 C   0  0  0  0  0  0
   35.1160   12.2243  -53.5097 C   0  0  0  0  0  0
   35.1803   13.0833  -52.4629 F   0  0  0  0  0  0
   35.2109   12.7073  -54.8173 C   0  0  0  0  0  0
   35.1437   11.8234  -55.8985 C   0  0  0  0  0  0
   34.5898    9.7595  -58.1309 C   0  0  0  0  0  0
   34.3562   11.0914  -58.7281 C   0  0  0  0  0  0
   33.3457   11.9247  -58.2282 C   0  0  0  0  0  0
   33.1269   13.1706  -58.8202 C   0  0  0  0  0  0
   33.8876   13.5674  -59.8750 N   0  0  0  0  0  0
   34.8714   12.7774  -60.3812 C   0  0  0  0  0  0
   35.1231   11.5239  -59.8188 C   0  0  0  0  0  0
   32.6412    3.6425  -61.9382 H   0  0  0  0  0  0
   35.6372    2.2849  -65.3023 H   0  0  0  0  0  0
   36.5592    3.9495  -63.8512 H   0  0  0  0  0  0
   37.9287    3.0735  -60.4675 H   0  0  0  0  0  0
  1  2  1  0  0  0
  2  3  1  0  0  0
  3  4  1  0  0  0
  3 20  2  0  0  0
  4  5  2  0  0  0
  5  6  1  0  0  0
  6  7  1  0  0  0
  6 18  1  0  0  0
  7  8  1  0  0  0
  8  9  1  0  0  0
  8 10  1  0  0  0
  9 36  1  0  0  0
 10 11  1  0  0  0
 11 12  1  0  0  0
 11 14  1  0  0  0
 12 13  1  0  0  0
 13 37  1  0  0  0
 14 15  1  0  0  0
 14 16  1  0  0  0
 15 38  1  0  0  0
 16 17  1  0  0  0
 16  7  1  0  0  0
 17 39  1  0  0  0
 18 19  2  0  0  0
 19  4  1  0  0  0
 20 21  1  0  0  0
 21 22  1  0  0  0
 21 29  2  0  0  0
 22 23  2  0  0  0
 23 24  1  0  0  0
 24 25  2  0  0  0
 25 26  1  0  0  0
 25 27  1  0  0  0
 27 28  2  0  0  0
 28 22  1  0  0  0
 29 30  1  0  0  0
 29  2  1  0  0  0
 30 31  2  0  0  0
 31 32  1  0  0  0
 32 33  2  0  0  0
 33 34  1  0  0  0
 34 35  2  0  0  0
 35 30  1  0  0  0
M  END
>  <CHROM.0>
-177.10719896,61.90594746,-177.46384013

>  <CHROM.1>
11.12893492,-80.86102232,156.33056413,-164.34574015,-59.51899892,60.27998484
61.84509651,-20.37324624,125.97698715,34.99531148,7.35690052,-58.96330761
1.96949925,-1.41058468,0.99742654

>  <Energy>
140.71225602157318

>  <Genealogy>
Cn1c(-c2cn([C@H]3[C@@H](O)O[C@H](CO)[C@@H](O)[C@@H]3O)nn2)nc(-c2ccc(F)cc2)c1-c1ccncc1 (chirality)
Cn1c(-c2cn([C@H]3[C@@H](O)O[C@H](CO)[C@@H](O)[C@@H]3O)nn2)nc(-c2ccc(F)cc2)c1-c1ccncc1 (3D coordinates assigned)
Cn1c(-c2cn([C@H]3[C@@H](O)O[C@H](CO)[C@@H](O)[C@@H]3O)nn2)nc(-c2ccc(F)cc2)c1-c1ccncc1 (nonaromatic ring conformer: 140.71225602157318 kcal/mol)

>  <Name>
76325328

>  <RI>
2.59779e+07

>  <Rbt.Current_Directory>
/home/edward/Documentos/Virtual_Screening/rDock/N-terminal/2

>  <Rbt.Executable>
rbdock ($Id: //depot/dev/client3/rdock/2013.1/src/exe/rbdock.cxx#4 $)

>  <Rbt.Library>
libRbt.so (2013.1, Build901 2013/11/27)

>  <Rbt.Parameter_File>
/home/edward/anaconda3/envs/MD/share/rdock-2013.1-1/data/scripts/dock.prm

>  <Rbt.Receptor>
parameters.prm

>  <SCORE>
-23.3734

>  <SCORE.INTER>
-25.037

>  <SCORE.INTER.CONST>
1

>  <SCORE.INTER.POLAR>
-4.92105

>  <SCORE.INTER.REPUL>
0.596545

>  <SCORE.INTER.ROT>
5

>  <SCORE.INTER.VDW>
-21.6881

>  <SCORE.INTER.norm>
-0.715342

>  <SCORE.INTRA>
1.87892

>  <SCORE.INTRA.DIHEDRAL>
-2.38338

>  <SCORE.INTRA.DIHEDRAL.0>
18.4441

>  <SCORE.INTRA.POLAR>
0

>  <SCORE.INTRA.POLAR.0>
0

>  <SCORE.INTRA.REPUL>
0

>  <SCORE.INTRA.REPUL.0>
0

>  <SCORE.INTRA.VDW>
3.07061

>  <SCORE.INTRA.VDW.0>
-4.09433

>  <SCORE.INTRA.norm>
0.0536835

>  <SCORE.RESTR>
0

>  <SCORE.RESTR.CAVITY>
0

>  <SCORE.RESTR.norm>
0

>  <SCORE.SYSTEM>
-0.215366

>  <SCORE.SYSTEM.CONST>
0

>  <SCORE.SYSTEM.DIHEDRAL>
0.090823

>  <SCORE.SYSTEM.REPUL>
0.172158

>  <SCORE.SYSTEM.VDW>
-1.12157

>  <SCORE.SYSTEM.norm>
-0.00615332

>  <SCORE.heavy>
35

>  <SCORE.norm>
-0.667812

>  <SMILES>
Cn1c(-c2cn([C@H]3[C@@H](O)O[C@H](CO)[C@@H](O)[C@@H]3O)nn2)nc(-c2ccc(F)cc2)c1-c1ccncc1

>  <UniqueID>
17

$$$$
57376616
  rDOCK(R)          3D
libRbt.so/2013.1/901 2013/11/27
 20 20  0  0  0  0  0  0  0  0999 V2000
   31.7759    5.7852  -57.7385 C   0  0  0  0  0  0
   33.0425    5.1504  -58.2126 C   0  0  0  0  0  0
   34.1435    5.5147  -57.7178 O   0  0  0  0  0  0
   33.0026    4.1655  -59.2549 N   0  0  0  0  0  0
   34.2113    3.4895  -59.7442 C   0  0  0  0  0  0
   34.8399    4.2592  -60.9253 C   0  0  0  0  0  0
   33.9104    4.4680  -61.9575 O   0  0  0  0  0  0
   36.0193    3.6296  -61.4110 O   0  0  0  0  0  0
   35.8273    2.2818  -61.8306 C   0  0  0  0  0  0
   35.1768    2.1952  -63.2289 C   0  0  0  0  0  0
   35.9862    2.8339  -64.1784 O   0  0  0  0  0  0
   35.1647    1.3965  -60.7375 C   0  0  0  0  0  0
   34.8647    0.1146  -61.2279 O   0  0  0  0  0  0
   33.9015    2.0401  -60.1436 C   0  0  0  0  0  0
   32.8317    2.0053  -61.0549 O   0  0  0  0  0  0
   32.0792    3.9659  -59.7026 H   0  0  0  0  0  0
   34.4168    4.8591  -62.7163 H   0  0  0  0  0  0
   36.1015    3.7672  -63.8611 H   0  0  0  0  0  0
   34.5905   -0.4341  -60.4471 H   0  0  0  0  0  0
   33.0495    2.6428  -61.7839 H   0  0  0  0  0  0
  1  2  1  0  0  0
  2  3  2  0  0  0
  2  4  1  0  0  0
  4  5  1  0  0  0
  4 16  1  0  0  0
  5  6  1  0  0  0
  6  7  1  0  0  0
  6  8  1  0  0  0
  7 17  1  0  0  0
  8  9  1  0  0  0
  9 10  1  0  0  0
  9 12  1  0  0  0
 10 11  1  0  0  0
 11 18  1  0  0  0
 12 13  1  0  0  0
 12 14  1  0  0  0
 13 19  1  0  0  0
 14 15  1  0  0  0
 14  5  1  0  0  0
 15 20  1  0  0  0
M  END
>  <CHROM.0>
-74.55522102,62.55458847,-59.81426697

>  <CHROM.1>
-90.67982782,-172.91482927,59.68189056,-57.28839217,170.74500068,51.29787463
34.31319224,3.27864308,-60.69047724,-2.48866374,-1.02059005,-3.04190572

>  <Energy>
31.811300309657906

>  <Genealogy>
CC(=O)N[C@@H]1[C@H](O)O[C@H](CO)[C@H](O)[C@@H]1O (chirality)
CC(=O)N[C@@H]1[C@H](O)O[C@H](CO)[C@H](O)[C@@H]1O (3D coordinates assigned)
CC(=O)N[C@@H]1[C@H](O)O[C@H](CO)[C@H](O)[C@@H]1O (nonaromatic ring conformer: 31.811300309657906 kcal/mol)

>  <Name>
57376616

>  <RI>
2.59779e+07

>  <Rbt.Current_Directory>
/home/edward/Documentos/Virtual_Screening/rDock/N-terminal/2

>  <Rbt.Executable>
rbdock ($Id: //depot/dev/client3/rdock/2013.1/src/exe/rbdock.cxx#4 $)

>  <Rbt.Library>
libRbt.so (2013.1, Build901 2013/11/27)

>  <Rbt.Parameter_File>
/home/edward/anaconda3/envs/MD/share/rdock-2013.1-1/data/scripts/dock.prm

>  <Rbt.Receptor>
parameters.prm

>  <SCORE>
-22.7765

>  <SCORE.INTER>
-19.6722

>  <SCORE.INTER.CONST>
1

>  <SCORE.INTER.POLAR>
-4.42007

>  <SCORE.INTER.REPUL>
0.0302251

>  <SCORE.INTER.ROT>
2

>  <SCORE.INTER.VDW>
-12.1951

>  <SCORE.INTER.norm>
-1.31148

>  <SCORE.INTRA>
-3.90675

>  <SCORE.INTRA.DIHEDRAL>
-4.05538

>  <SCORE.INTRA.DIHEDRAL.0>
6.72284

>  <SCORE.INTRA.POLAR>
-0.751222

>  <SCORE.INTRA.POLAR.0>
0

>  <SCORE.INTRA.REPUL>
-0.000298249

>  <SCORE.INTRA.REPUL.0>
0.00295975

>  <SCORE.INTRA.VDW>
0.676588

>  <SCORE.INTRA.VDW.0>
-1.81544

>  <SCORE.INTRA.norm>
-0.26045

>  <SCORE.RESTR>
0

>  <SCORE.RESTR.CAVITY>
0

>  <SCORE.RESTR.norm>
0

>  <SCORE.SYSTEM>
0.802437

>  <SCORE.SYSTEM.CONST>
0

>  <SCORE.SYSTEM.DIHEDRAL>
1.02815

>  <SCORE.SYSTEM.REPUL>
0.140108

>  <SCORE.SYSTEM.VDW>
-0.412182

>  <SCORE.SYSTEM.norm>
0.0534958

>  <SCORE.heavy>
15

>  <SCORE.norm>
-1.51843

>  <SMILES>
CC(=O)N[C@@H]1[C@H](O)O[C@H](CO)[C@H](O)[C@@H]1O

>  <UniqueID>
22

$$$$
57339292
  rDOCK(R)          3D
libRbt.so/2013.1/901 2013/11/27
 25 25  0  0  0  0  0  0  0  0999 V2000
   35.1922    4.0577  -59.0186 N   0  0  0  0  0  0
   35.7289    3.0197  -59.9061 C   0  0  0  0  0  0
   34.5867    2.1953  -60.5556 C   0  0  0  0  0  0
   33.5247    2.0222  -59.6351 O   0  0  0  0  0  0
   32.6708    0.9546  -60.0198 C   0  0  0  0  0  0
   31.7272    0.6244  -58.8572 C   0  0  0  0  0  0
   30.9277   -0.6063  -59.1547 C   0  0  0  0  0  0
   31.5084   -1.6765  -59.4755 O   0  0  0  0  0  0
   29.5447   -0.5855  -59.0268 O   0  5  0  0  0  0
   31.8650    1.3782  -61.2133 C   0  0  0  0  0  0
   31.2410    2.4722  -61.2008 O   0  0  0  0  0  0
   31.8321    0.5827  -62.3524 O   0  5  0  0  0  0
   34.1168    2.8625  -61.7165 O   0  0  0  0  0  0
   35.0543    2.7925  -62.7878 C   0  0  0  0  0  0
   34.7847    1.5417  -63.6398 C   0  0  0  0  0  0
   35.6704    1.4947  -64.7239 O   0  0  0  0  0  0
   36.5426    2.8954  -62.3281 C   0  0  0  0  0  0
   37.3079    3.5629  -63.2996 O   0  0  0  0  0  0
   36.6143    3.6763  -61.0030 C   0  0  0  0  0  0
   37.9436    3.8073  -60.5630 O   0  0  0  0  0  0
   35.8770    4.2154  -58.2436 H   0  0  0  0  0  0
   34.3326    3.6858  -58.5526 H   0  0  0  0  0  0
   35.5176    2.3276  -65.2413 H   0  0  0  0  0  0
   36.9108    4.4652  -63.4125 H   0  0  0  0  0  0
   38.2522    2.9113  -60.2662 H   0  0  0  0  0  0
  1  2  1  0  0  0
  1 21  1  0  0  0
  1 22  1  0  0  0
  2  3  1  0  0  0
  3  4  1  0  0  0
  3 13  1  0  0  0
  4  5  1  0  0  0
  5  6  1  0  0  0
  5 10  1  0  0  0
  6  7  1  0  0  0
  7  8  2  0  0  0
  7  9  1  0  0  0
 10 11  2  0  0  0
 10 12  1  0  0  0
 13 14  1  0  0  0
 14 15  1  0  0  0
 14 17  1  0  0  0
 15 16  1  0  0  0
 16 23  1  0  0  0
 17 18  1  0  0  0
 17 19  1  0  0  0
 18 24  1  0  0  0
 19 20  1  0  0  0
 19  2  1  0  0  0
 20 25  1  0  0  0
M  END
>  <CHROM.0>
73.14001014,-59.25680100,-59.50761256

>  <CHROM.1>
148.98997370,-161.72721698,168.28589248,-172.84162932,-50.29946550,54.21284959
177.74696863,-59.09783163,59.38981239,54.01803028,33.94882646,1.87271909
-61.05474146,-0.24652049,0.58935654,1.35666000

>  <Energy>
40.568492244804474

>  <Genealogy>
N[C@H]1[C@@H](O[C@@H](CC(=O)[O-])C(=O)[O-])O[C@H](CO)[C@@H](O)[C@@H]1O (protonated)
N[C@H]1[C@@H](O[C@@H](CC(=O)[O-])C(=O)[O-])O[C@H](CO)[C@@H](O)[C@@H]1O (3D coordinates assigned)
N[C@H]1[C@@H](O[C@@H](CC(=O)[O-])C(=O)[O-])O[C@H](CO)[C@@H](O)[C@@H]1O (nonaromatic ring conformer: 40.568492244804474 kcal/mol)

>  <Name>
57339292

>  <RI>
2.59779e+07

>  <Rbt.Current_Directory>
/home/edward/Documentos/Virtual_Screening/rDock/N-terminal/2

>  <Rbt.Executable>
rbdock ($Id: //depot/dev/client3/rdock/2013.1/src/exe/rbdock.cxx#4 $)

>  <Rbt.Library>
libRbt.so (2013.1, Build901 2013/11/27)

>  <Rbt.Parameter_File>
/home/edward/anaconda3/envs/MD/share/rdock-2013.1-1/data/scripts/dock.prm

>  <Rbt.Receptor>
parameters.prm

>  <SCORE>
-20.6413

>  <SCORE.INTER>
-17.805

>  <SCORE.INTER.CONST>
1

>  <SCORE.INTER.POLAR>
-4.54306

>  <SCORE.INTER.REPUL>
0.125183

>  <SCORE.INTER.ROT>
7

>  <SCORE.INTER.VDW>
-15.3845

>  <SCORE.INTER.norm>
-0.890249

>  <SCORE.INTRA>
-2.89837

>  <SCORE.INTRA.DIHEDRAL>
-6.31393

>  <SCORE.INTRA.DIHEDRAL.0>
12.528

>  <SCORE.INTRA.POLAR>
-0.222905

>  <SCORE.INTRA.POLAR.0>
0

>  <SCORE.INTRA.REPUL>
0

>  <SCORE.INTRA.REPUL.0>
0

>  <SCORE.INTRA.VDW>
1.01648

>  <SCORE.INTRA.VDW.0>
-3.05028

>  <SCORE.INTRA.norm>
-0.144918

>  <SCORE.RESTR>
0

>  <SCORE.RESTR.CAVITY>
0

>  <SCORE.RESTR.norm>
0

>  <SCORE.SYSTEM>
0.0620375

>  <SCORE.SYSTEM.CONST>
0

>  <SCORE.SYSTEM.DIHEDRAL>
0.82288

>  <SCORE.SYSTEM.POLAR>
-0.0159046

>  <SCORE.SYSTEM.REPUL>
0.00872867

>  <SCORE.SYSTEM.VDW>
-0.33897

>  <SCORE.SYSTEM.norm>
0.00310187

>  <SCORE.heavy>
20

>  <SCORE.norm>
-1.03207

>  <SMILES>
N[C@H]1[C@@H](O[C@@H](CC(=O)[O-])C(=O)[O-])O[C@H](CO)[C@@H](O)[C@@H]1O

>  <UniqueID>
24

$$$$
57339290
  rDOCK(R)          3D
libRbt.so/2013.1/901 2013/11/27
 27 27  0  0  0  0  0  0  0  0999 V2000
   31.8073   -4.5006  -63.4611 H   0  0  0  0  0  0
   32.4296   -4.5289  -64.2599 O   0  0  0  0  0  0
   33.2976   -3.4782  -64.5451 C   0  0  0  0  0  0
   33.2634   -2.4268  -63.7762 N   0  0  0  0  0  0
   34.0536   -1.1960  -63.8991 C   0  0  0  0  0  0
   33.1404    0.0473  -63.8223 C   0  0  0  0  0  0
   32.3199   -0.0180  -62.6603 O   0  0  0  0  0  0
   31.1458   -0.7835  -62.8775 C   0  0  0  0  0  0
   30.1013    0.0478  -63.5768 C   0  0  0  0  0  0
   29.3220   -0.4861  -64.4092 O   0  0  0  0  0  0
   29.9935    1.4075  -63.3106 O   0  5  0  0  0  0
   30.6260   -1.2571  -61.5119 C   0  0  0  0  0  0
   31.5122   -2.3060  -60.9099 C   0  0  0  0  0  0
   32.1418   -2.0683  -59.8457 O   0  0  0  0  0  0
   31.6744   -3.5296  -61.5468 O   0  5  0  0  0  0
   33.9064    1.2424  -63.8454 O   0  0  0  0  0  0
   34.7762    1.3400  -62.7284 C   0  0  0  0  0  0
   35.4489    2.7200  -62.7825 C   0  0  0  0  0  0
   36.1725    2.8777  -63.9752 O   0  0  0  0  0  0
   36.5226    3.8064  -63.9848 H   0  0  0  0  0  0
   35.8185    0.1987  -62.7549 C   0  0  0  0  0  0
   36.6403    0.2749  -61.6180 O   0  0  0  0  0  0
   36.0441    0.2211  -60.8260 H   0  0  0  0  0  0
   35.0969   -1.1577  -62.7691 C   0  0  0  0  0  0
   36.0421   -2.1805  -62.9560 O   0  0  0  0  0  0
   35.5347   -3.0196  -63.1110 H   0  0  0  0  0  0
   34.2080   -3.5891  -65.7387 C   0  0  0  0  0  0
  1  2  1  0  0  0
  2  3  1  0  0  0
  3  4  2  0  0  0
  3 27  1  0  0  0
  4  5  1  0  0  0
  5  6  1  0  0  0
  6  7  1  0  0  0
  6 16  1  0  0  0
  7  8  1  0  0  0
  8  9  1  0  0  0
  8 12  1  0  0  0
  9 10  2  0  0  0
  9 11  1  0  0  0
 12 13  1  0  0  0
 13 14  2  0  0  0
 13 15  1  0  0  0
 16 17  1  0  0  0
 17 18  1  0  0  0
 17 21  1  0  0  0
 18 19  1  0  0  0
 19 20  1  0  0  0
 21 22  1  0  0  0
 21 24  1  0  0  0
 22 23  1  0  0  0
 24 25  1  0  0  0
 24  5  1  0  0  0
 25 26  1  0  0  0
M  END
>  <CHROM.0>
71.93413356,60.54494703,62.77635189

>  <CHROM.1>
-2.06731473,130.31375730,-84.56825509,-81.03593888,145.47264550,-70.88736753
114.81116253,-59.43014390,175.67805266,57.90898554,-49.69608854,33.21048058
-0.81185405,-63.04115592,-2.48141959,0.07439854,0.05267760

>  <Energy>
38.7358732712402

>  <Genealogy>
CC(O)=N[C@H]1[C@@H](O[C@@H](CC(=O)[O-])C(=O)[O-])O[C@H](CO)[C@@H](O)[C@@H]1O (tautomer)
C/C(O)=N/[C@H]1[C@@H](O[C@@H](CC(=O)[O-])C(=O)[O-])O[C@H](CO)[C@@H](O)[C@@H]1O (cis-trans isomerization)
C/C(O)=N/[C@H]1[C@@H](O[C@@H](CC(=O)[O-])C(=O)[O-])O[C@H](CO)[C@@H](O)[C@@H]1O (3D coordinates assigned)
C/C(O)=N/[C@H]1[C@@H](O[C@@H](CC(=O)[O-])C(=O)[O-])O[C@H](CO)[C@@H](O)[C@@H]1O (nonaromatic ring conformer: 38.7358732712402 kcal/mol)

>  <Name>
57339290

>  <RI>
2.59779e+07

>  <Rbt.Current_Directory>
/home/edward/Documentos/Virtual_Screening/rDock/N-terminal/2

>  <Rbt.Executable>
rbdock ($Id: //depot/dev/client3/rdock/2013.1/src/exe/rbdock.cxx#4 $)

>  <Rbt.Library>
libRbt.so (2013.1, Build901 2013/11/27)

>  <Rbt.Parameter_File>
/home/edward/anaconda3/envs/MD/share/rdock-2013.1-1/data/scripts/dock.prm

>  <Rbt.Receptor>
parameters.prm

>  <SCORE>
-17.9651

>  <SCORE.INTER>
-9.21311

>  <SCORE.INTER.CONST>
1

>  <SCORE.INTER.POLAR>
-2.50775

>  <SCORE.INTER.REPUL>
0.245819

>  <SCORE.INTER.ROT>
7

>  <SCORE.INTER.VDW>
-14.3158

>  <SCORE.INTER.norm>
-0.40057

>  <SCORE.INTRA>
-9.48363

>  <SCORE.INTRA.DIHEDRAL>
-12.2194

>  <SCORE.INTRA.DIHEDRAL.0>
20.3774

>  <SCORE.INTRA.POLAR>
-0.968571

>  <SCORE.INTRA.POLAR.0>
0

>  <SCORE.INTRA.REPUL>
0

>  <SCORE.INTRA.REPUL.0>
0

>  <SCORE.INTRA.VDW>
-0.0807833

>  <SCORE.INTRA.VDW.0>
-4.19562

>  <SCORE.INTRA.norm>
-0.412332

>  <SCORE.RESTR>
0

>  <SCORE.RESTR.CAVITY>
0

>  <SCORE.RESTR.norm>
0

>  <SCORE.SYSTEM>
0.731619

>  <SCORE.SYSTEM.CONST>
0

>  <SCORE.SYSTEM.DIHEDRAL>
0.719695

>  <SCORE.SYSTEM.POLAR>
-0.0198516

>  <SCORE.SYSTEM.REPUL>
0.145321

>  <SCORE.SYSTEM.VDW>
-0.287338

>  <SCORE.SYSTEM.norm>
0.0318095

>  <SCORE.heavy>
23

>  <SCORE.norm>
-0.781092

>  <SMILES>
C/C(O)=N/[C@H]1[C@@H](O[C@@H](CC(=O)[O-])C(=O)[O-])O[C@H](CO)[C@@H](O)[C@@H]1O

>  <UniqueID>
26

$$$$
54758653
  rDOCK(R)          3D
libRbt.so/2013.1/901 2013/11/27
 23 23  0  0  0  0  0  0  0  0999 V2000
   34.1308    5.1525  -57.1254 C   0  0  0  0  0  0
   33.9666    4.1864  -58.2530 C   0  0  0  0  0  0
   32.9626    3.4242  -58.2791 O   0  0  0  0  0  0
   34.9565    4.1231  -59.2893 N   0  0  0  0  0  0
   34.8280    3.2211  -60.4418 C   0  0  0  0  0  0
   34.7580    1.7288  -59.9974 C   0  0  0  0  0  0
   33.4211    1.3575  -59.7840 O   0  0  0  0  0  0
   35.3732    0.8344  -60.9200 O   0  0  0  0  0  0
   35.0743    1.1789  -62.2612 C   0  0  0  0  0  0
   35.4888    0.0111  -63.1648 C   0  0  0  0  0  0
   36.8931   -0.0827  -63.2090 O   0  0  0  0  0  0
   37.3584   -1.5223  -62.4241 P   0  0  0  0  0  0
   38.8362   -1.4580  -62.1143 O   0  0  0  0  0  0
   37.0618   -2.8541  -63.4251 O   0  5  0  0  0  0
   36.4987   -1.7007  -60.9774 O   0  5  0  0  0  0
   35.8024    2.4983  -62.6551 C   0  0  0  0  0  0
   35.0417    3.1837  -63.6192 O   0  0  0  0  0  0
   35.9971    3.4165  -61.4270 C   0  0  0  0  0  0
   37.2167    3.1040  -60.7991 O   0  0  0  0  0  0
   35.8030    4.7279  -59.1892 H   0  0  0  0  0  0
   33.0419    2.0219  -59.1514 H   0  0  0  0  0  0
   35.5719    3.9719  -63.9066 H   0  0  0  0  0  0
   37.1714    2.1474  -60.5372 H   0  0  0  0  0  0
  1  2  1  0  0  0
  2  3  2  0  0  0
  2  4  1  0  0  0
  4  5  1  0  0  0
  4 20  1  0  0  0
  5  6  1  0  0  0
  6  7  1  0  0  0
  6  8  1  0  0  0
  7 21  1  0  0  0
  8  9  1  0  0  0
  9 10  1  0  0  0
  9 16  1  0  0  0
 10 11  1  0  0  0
 11 12  1  0  0  0
 12 13  2  0  0  0
 12 14  1  0  0  0
 12 15  1  0  0  0
 16 17  1  0  0  0
 16 18  1  0  0  0
 17 22  1  0  0  0
 18 19  1  0  0  0
 18  5  1  0  0  0
 19 23  1  0  0  0
M  END
>  <CHROM.0>
-177.49781686,-179.87251089,-59.54576706

>  <CHROM.1>
-60.18670893,-53.36791232,-70.10050498,112.31766782,-164.17823499,-174.91267501
61.68799963,35.69290232,1.34102116,-61.15802728,2.79917167,1.11116980,-0.57454017

>  <Energy>
34.203499741926336

>  <Genealogy>
CC(=O)N[C@@H]1[C@@H](O)O[C@H](COP(=O)([O-])[O-])[C@@H](O)[C@@H]1O (chirality)
CC(=O)N[C@@H]1[C@@H](O)O[C@H](COP(=O)([O-])[O-])[C@@H](O)[C@@H]1O (3D coordinates assigned)
CC(=O)N[C@@H]1[C@@H](O)O[C@H](COP(=O)([O-])[O-])[C@@H](O)[C@@H]1O (nonaromatic ring conformer: 34.203499741926336 kcal/mol)

>  <Name>
54758653

>  <RI>
2.59779e+07

>  <Rbt.Current_Directory>
/home/edward/Documentos/Virtual_Screening/rDock/N-terminal/2

>  <Rbt.Executable>
rbdock ($Id: //depot/dev/client3/rdock/2013.1/src/exe/rbdock.cxx#4 $)

>  <Rbt.Library>
libRbt.so (2013.1, Build901 2013/11/27)

>  <Rbt.Parameter_File>
/home/edward/anaconda3/envs/MD/share/rdock-2013.1-1/data/scripts/dock.prm

>  <Rbt.Receptor>
parameters.prm

>  <SCORE>
-19.4563

>  <SCORE.INTER>
-17.3268

>  <SCORE.INTER.CONST>
1

>  <SCORE.INTER.POLAR>
-1.6166

>  <SCORE.INTER.REPUL>
0.228651

>  <SCORE.INTER.ROT>
4

>  <SCORE.INTER.VDW>
-22.3736

>  <SCORE.INTER.norm>
-0.911935

>  <SCORE.INTRA>
-1.7423

>  <SCORE.INTRA.DIHEDRAL>
2.34793

>  <SCORE.INTRA.DIHEDRAL.0>
6.9837

>  <SCORE.INTRA.POLAR>
-1.10355

>  <SCORE.INTRA.POLAR.0>
0

>  <SCORE.INTRA.REPUL>
0

>  <SCORE.INTRA.REPUL.0>
0

>  <SCORE.INTRA.VDW>
0.835819

>  <SCORE.INTRA.VDW.0>
-2.2385

>  <SCORE.INTRA.norm>
-0.0916998

>  <SCORE.RESTR>
0

>  <SCORE.RESTR.CAVITY>
0

>  <SCORE.RESTR.norm>
0

>  <SCORE.SYSTEM>
-0.387201

>  <SCORE.SYSTEM.CONST>
0

>  <SCORE.SYSTEM.DIHEDRAL>
0.0319506

>  <SCORE.SYSTEM.REPUL>
0.0919985

>  <SCORE.SYSTEM.VDW>
-0.863169

>  <SCORE.SYSTEM.norm>
-0.020379

>  <SCORE.heavy>
19

>  <SCORE.norm>
-1.02401

>  <SMILES>
CC(=O)N[C@@H]1[C@@H](O)O[C@H](COP(=O)([O-])[O-])[C@@H](O)[C@@H]1O

>  <UniqueID>
28

$$$$
54758613
  rDOCK(R)          3D
libRbt.so/2013.1/901 2013/11/27
 23 23  0  0  0  0  0  0  0  0999 V2000
   32.1852    4.4585  -59.5925 C   0  0  0  0  0  0
   33.6291    4.3970  -59.9698 C   0  0  0  0  0  0
   34.4996    4.8582  -59.1829 O   0  0  0  0  0  0
   34.0162    3.8187  -61.2242 N   0  0  0  0  0  0
   35.4206    3.7441  -61.6504 C   0  0  0  0  0  0
   36.2495    2.8660  -60.6593 C   0  0  0  0  0  0
   37.4061    3.5690  -60.2924 O   0  0  0  0  0  0
   36.6378    1.6173  -61.2189 O   0  0  0  0  0  0
   35.5261    0.9732  -61.8111 C   0  0  0  0  0  0
   35.8464   -0.5169  -61.9867 C   0  0  0  0  0  0
   34.8256   -1.2916  -61.4038 O   0  0  0  0  0  0
   33.4361   -1.1494  -62.3608 S   0  0  0  0  0  0
   32.6610   -2.4338  -62.2835 O   0  0  0  0  0  0
   32.5743   -0.0268  -61.8536 O   0  0  0  0  0  0
   33.8527   -0.8628  -63.9639 O   0  5  0  0  0  0
   35.1525    1.6843  -63.1429 C   0  0  0  0  0  0
   35.7846    1.0726  -64.2411 O   0  0  0  0  0  0
   35.5243    3.1896  -63.0906 C   0  0  0  0  0  0
   36.8371    3.3700  -63.5636 O   0  0  0  0  0  0
   33.2577    3.4957  -61.8667 H   0  0  0  0  0  0
   38.0092    2.9132  -59.8545 H   0  0  0  0  0  0
   35.3500    0.1885  -64.3656 H   0  0  0  0  0  0
   36.9721    4.3476  -63.6760 H   0  0  0  0  0  0
  1  2  1  0  0  0
  2  3  2  0  0  0
  2  4  1  0  0  0
  4  5  1  0  0  0
  4 20  1  0  0  0
  5  6  1  0  0  0
  6  7  1  0  0  0
  6  8  1  0  0  0
  7 21  1  0  0  0
  8  9  1  0  0  0
  9 10  1  0  0  0
  9 16  1  0  0  0
 10 11  1  0  0  0
 11 12  1  0  0  0
 12 13  2  0  0  0
 12 14  2  0  0  0
 12 15  1  0  0  0
 16 17  1  0  0  0
 16 18  1  0  0  0
 17 22  1  0  0  0
 18 19  1  0  0  0
 18  5  1  0  0  0
 19 23  1  0  0  0
M  END
>  <CHROM.0>
-174.39779892,-62.20362835,60.56707430

>  <CHROM.1>
62.00650699,-166.31596132,127.13271520,70.80835039,148.30632406,70.44380718
-68.28159297,34.77168949,1.53328772,-61.82143498,1.30002571,0.48960857,0.49001127

>  <Energy>
36.86157415015704

>  <Genealogy>
CC(=O)N[C@H]1[C@H](O)O[C@H](COS(=O)(=O)[O-])[C@H](O)[C@@H]1O (3D coordinates assigned)
CC(=O)N[C@H]1[C@H](O)O[C@H](COS(=O)(=O)[O-])[C@H](O)[C@@H]1O (nonaromatic ring conformer: 36.86157415015704 kcal/mol)

>  <Name>
54758613

>  <RI>
2.59779e+07

>  <Rbt.Current_Directory>
/home/edward/Documentos/Virtual_Screening/rDock/N-terminal/2

>  <Rbt.Executable>
rbdock ($Id: //depot/dev/client3/rdock/2013.1/src/exe/rbdock.cxx#4 $)

>  <Rbt.Library>
libRbt.so (2013.1, Build901 2013/11/27)

>  <Rbt.Parameter_File>
/home/edward/anaconda3/envs/MD/share/rdock-2013.1-1/data/scripts/dock.prm

>  <Rbt.Receptor>
parameters.prm

>  <SCORE>
-25.1033

>  <SCORE.INTER>
-23.0114

>  <SCORE.INTER.CONST>
1

>  <SCORE.INTER.POLAR>
-4.34752

>  <SCORE.INTER.REPUL>
0.131408

>  <SCORE.INTER.ROT>
4

>  <SCORE.INTER.VDW>
-18.2868

>  <SCORE.INTER.norm>
-1.21112

>  <SCORE.INTRA>
-0.987111

>  <SCORE.INTRA.DIHEDRAL>
5.12158

>  <SCORE.INTRA.DIHEDRAL.0>
4.19491

>  <SCORE.INTRA.POLAR>
-1.05552

>  <SCORE.INTRA.POLAR.0>
0

>  <SCORE.INTRA.REPUL>
0

>  <SCORE.INTRA.REPUL.0>
0

>  <SCORE.INTRA.VDW>
0.0408695

>  <SCORE.INTRA.VDW.0>
-1.91057

>  <SCORE.INTRA.norm>
-0.0519532

>  <SCORE.RESTR>
0

>  <SCORE.RESTR.CAVITY>
0

>  <SCORE.RESTR.norm>
0

>  <SCORE.SYSTEM>
-1.10484

>  <SCORE.SYSTEM.CONST>
0

>  <SCORE.SYSTEM.DIHEDRAL>
0.179293

>  <SCORE.SYSTEM.REPUL>
0.024472

>  <SCORE.SYSTEM.VDW>
-1.31685

>  <SCORE.SYSTEM.norm>
-0.0581496

>  <SCORE.heavy>
19

>  <SCORE.norm>
-1.32123

>  <SMILES>
CC(=O)N[C@H]1[C@H](O)O[C@H](COS(=O)(=O)[O-])[C@H](O)[C@@H]1O

>  <UniqueID>
30

$$$$
52948856
  rDOCK(R)          3D
libRbt.so/2013.1/901 2013/11/27
 41 44  0  0  0  0  0  0  0  0999 V2000
   29.5974    5.1335  -59.8975 C   0  0  0  0  0  0
   30.1830    6.4135  -59.8179 O   0  0  0  0  0  0
   31.0257    6.5038  -58.6824 C   0  0  0  0  0  0
   31.5577    7.9360  -58.4970 C   0  0  0  0  0  0
   32.0059    8.3941  -59.7626 O   0  0  0  0  0  0
   32.6354    9.6655  -59.6794 C   0  0  0  0  0  0
   33.7887    9.6207  -58.8542 O   0  0  0  0  0  0
   34.7368    8.7168  -59.3801 C   0  0  0  0  0  0
   35.7144    8.3088  -58.2795 C   0  0  0  0  0  0
   34.9860    7.8072  -57.0603 C   0  0  0  0  0  0
   34.9378    8.5887  -55.8936 C   0  0  0  0  0  0
   34.2684    8.1201  -54.7593 C   0  0  0  0  0  0
   33.6570    6.8637  -54.7768 C   0  0  0  0  0  0
   33.7186    6.0721  -55.9260 C   0  0  0  0  0  0
   34.3813    6.5394  -57.0649 C   0  0  0  0  0  0
   31.6412   10.7461  -59.1706 C   0  0  0  0  0  0
   32.2697   12.0830  -59.0401 N   0  3  0  0  0  0
   32.6034   12.6869  -60.3446 C   0  0  0  0  0  0
   33.9334   12.1500  -60.9033 C   0  0  0  0  0  0
   35.1495   12.6594  -60.1201 C   0  0  0  0  0  0
   35.0997   12.1762  -58.7437 N   0  0  0  0  0  0
   31.0189   10.3091  -57.8232 C   0  0  0  0  0  0
   32.0104   10.3365  -56.8058 O   0  0  0  0  0  0
   32.0212   11.5753  -56.1314 C   0  0  0  0  0  0
   33.2488   11.6357  -55.2727 C   0  0  0  0  0  0
   34.5189   11.6705  -55.8682 C   0  0  0  0  0  0
   35.6719   11.6478  -55.0793 C   0  0  0  0  0  0
   35.5694   11.5800  -53.6826 C   0  0  0  0  0  0
   36.7209   11.5402  -52.8810 C   0  0  0  0  0  0
   36.6051   11.4596  -51.4903 C   0  0  0  0  0  0
   35.3435   11.4191  -50.8911 C   0  0  0  0  0  0
   34.1890   11.4584  -51.6777 C   0  0  0  0  0  0
   34.2911   11.5393  -53.0751 C   0  0  0  0  0  0
   33.1393   11.5594  -53.8756 C   0  0  0  0  0  0
   30.4637    8.8797  -57.9441 C   0  0  0  0  0  0
   30.0306    8.4354  -56.6835 O   0  0  0  0  0  0
   31.5950   12.7150  -58.5476 H   0  0  0  0  0  0
   33.1379   12.0108  -58.4606 H   0  0  0  0  0  0
   36.0566   12.2670  -58.3297 H   0  0  0  0  0  0
   34.8878   11.1522  -58.7745 H   0  0  0  0  0  0
   29.5682    7.5691  -56.8286 H   0  0  0  0  0  0
  1  2  1  0  0  0
  2  3  1  0  0  0
  3  4  1  0  0  0
  4  5  1  0  0  0
  5  6  1  0  0  0
  6  7  1  0  0  0
  6 16  1  0  0  0
  7  8  1  0  0  0
  8  9  1  0  0  0
  9 10  1  0  0  0
 10 11  2  0  0  0
 11 12  1  0  0  0
 12 13  2  0  0  0
 13 14  1  0  0  0
 14 15  2  0  0  0
 15 10  1  0  0  0
 16 17  1  0  0  0
 16 22  1  0  0  0
 17 18  1  0  0  0
 17 37  1  0  0  0
 17 38  1  0  0  0
 18 19  1  0  0  0
 19 20  1  0  0  0
 20 21  1  0  0  0
 21 39  1  0  0  0
 21 40  1  0  0  0
 22 23  1  0  0  0
 22 35  1  0  0  0
 23 24  1  0  0  0
 24 25  1  0  0  0
 25 26  2  0  0  0
 26 27  1  0  0  0
 27 28  2  0  0  0
 28 29  1  0  0  0
 29 30  2  0  0  0
 30 31  1  0  0  0
 31 32  2  0  0  0
 32 33  1  0  0  0
 33 34  2  0  0  0
 33 28  1  0  0  0
 34 25  1  0  0  0
 35 36  1  0  0  0
 35  4  1  0  0  0
 36 41  1  0  0  0
M  END
>  <CHROM.0>
-177.09962234,65.27134722,175.75253759

>  <CHROM.1>
-174.08087990,-46.14495938,60.83019369,-160.21639503,52.60796361,-107.72864436
69.48278303,-81.61614152,-70.95028045,63.36609418,162.01470739,92.76263823
-168.93154227,66.21665357,-66.73320327,33.33052461,9.75544730,-56.95942824
2.74731844,-1.03883184,-0.91421660

>  <Energy>
74.4083140286943

>  <Genealogy>
COC[C@H]1OC(OCCc2ccccc2)[C@H]([NH2+]CCCN)C(OCc2ccc3ccccc3c2)[C@@H]1O (protonated)
COC[C@H]1O[C@H](OCCc2ccccc2)[C@H]([NH2+]CCCN)[C@H](OCc2ccc3ccccc3c2)[C@@H]1O (chirality)
COC[C@H]1O[C@H](OCCc2ccccc2)[C@H]([NH2+]CCCN)[C@H](OCc2ccc3ccccc3c2)[C@@H]1O (3D coordinates assigned)
COC[C@H]1O[C@H](OCCc2ccccc2)[C@H]([NH2+]CCCN)[C@H](OCc2ccc3ccccc3c2)[C@@H]1O (nonaromatic ring conformer: 74.4083140286943 kcal/mol)

>  <Name>
52948856

>  <RI>
2.59779e+07

>  <Rbt.Current_Directory>
/home/edward/Documentos/Virtual_Screening/rDock/N-terminal/2

>  <Rbt.Executable>
rbdock ($Id: //depot/dev/client3/rdock/2013.1/src/exe/rbdock.cxx#4 $)

>  <Rbt.Library>
libRbt.so (2013.1, Build901 2013/11/27)

>  <Rbt.Parameter_File>
/home/edward/anaconda3/envs/MD/share/rdock-2013.1-1/data/scripts/dock.prm

>  <Rbt.Receptor>
parameters.prm

>  <SCORE>
-15.4085

>  <SCORE.INTER>
-3.56157

>  <SCORE.INTER.CONST>
1

>  <SCORE.INTER.POLAR>
-1.31403

>  <SCORE.INTER.REPUL>
0.0607824

>  <SCORE.INTER.ROT>
14

>  <SCORE.INTER.VDW>
-18.7978

>  <SCORE.INTER.norm>
-0.0989324

>  <SCORE.INTRA>
-11.669

>  <SCORE.INTRA.DIHEDRAL>
-6.05702

>  <SCORE.INTRA.DIHEDRAL.0>
17.3258

>  <SCORE.INTRA.POLAR>
-1.93023

>  <SCORE.INTRA.POLAR.0>
0

>  <SCORE.INTRA.REPUL>
-0.244439

>  <SCORE.INTRA.REPUL.0>
0.244439

>  <SCORE.INTRA.VDW>
-0.855557

>  <SCORE.INTRA.VDW.0>
-6.89097

>  <SCORE.INTRA.norm>
-0.32414

>  <SCORE.RESTR>
0

>  <SCORE.RESTR.CAVITY>
0

>  <SCORE.RESTR.norm>
0

>  <SCORE.SYSTEM>
-0.177915

>  <SCORE.SYSTEM.CONST>
0

>  <SCORE.SYSTEM.DIHEDRAL>
0.26635

>  <SCORE.SYSTEM.REPUL>
0.172137

>  <SCORE.SYSTEM.VDW>
-1.17178

>  <SCORE.SYSTEM.norm>
-0.00494209

>  <SCORE.heavy>
36

>  <SCORE.norm>
-0.428015

>  <SMILES>
COC[C@H]1O[C@H](OCCc2ccccc2)[C@H]([NH2+]CCCN)[C@H](OCc2ccc3ccccc3c2)[C@@H]1O

>  <UniqueID>
31

$$$$
52944904
  rDOCK(R)          3D
libRbt.so/2013.1/901 2013/11/27
 39 42  0  0  0  0  0  0  0  0999 V2000
   27.7617    1.3855  -62.0741 C   0  0  0  0  0  0
   28.8858    0.6842  -62.5554 O   0  0  0  0  0  0
   30.0636    1.2924  -62.0675 C   0  0  0  0  0  0
   31.2804    0.5326  -62.6068 C   0  0  0  0  0  0
   32.4543    1.1748  -62.1370 O   0  0  0  0  0  0
   33.6119    0.6076  -62.7275 C   0  0  0  0  0  0
   34.7365    1.3565  -62.2937 O   0  0  0  0  0  0
   34.8911    2.5570  -63.0276 C   0  0  0  0  0  0
   35.7942    3.5546  -62.2907 C   0  0  0  0  0  0
   35.2129    3.8970  -60.9459 C   0  0  0  0  0  0
   35.9717    3.7218  -59.7767 C   0  0  0  0  0  0
   35.4419    4.0819  -58.5331 C   0  0  0  0  0  0
   34.1581    4.6288  -58.4499 C   0  0  0  0  0  0
   33.4022    4.8175  -59.6103 C   0  0  0  0  0  0
   33.9272    4.4573  -60.8552 C   0  0  0  0  0  0
   33.7795   -0.8579  -62.2498 C   0  0  0  0  0  0
   34.9786   -1.4942  -62.8354 N   0  0  0  0  0  0
   36.2071   -1.2590  -62.0601 C   0  0  0  0  0  0
   37.4245   -1.7588  -62.8395 C   0  0  0  0  0  0
   37.2727   -3.1653  -63.1989 N   0  0  0  0  0  0
   32.5304   -1.6809  -62.6280 C   0  0  0  0  0  0
   32.4693   -1.8426  -64.0406 O   0  0  0  0  0  0
   31.9549   -3.1103  -64.4051 C   0  0  0  0  0  0
   31.6141   -3.1372  -65.8708 C   0  0  0  0  0  0
   32.1828   -4.1031  -66.7156 C   0  0  0  0  0  0
   31.8330   -4.1559  -68.0671 C   0  0  0  0  0  0
   30.9086   -3.2421  -68.5930 C   0  0  0  0  0  0
   30.5492   -3.2877  -69.9491 C   0  0  0  0  0  0
   29.6285   -2.3694  -70.4616 C   0  0  0  0  0  0
   29.0591   -1.4036  -69.6275 C   0  0  0  0  0  0
   29.4061   -1.3498  -68.2741 C   0  0  0  0  0  0
   30.3303   -2.2649  -67.7468 C   0  0  0  0  0  0
   30.6839   -2.2233  -66.3898 C   0  0  0  0  0  0
   31.2650   -0.9459  -62.1389 C   0  0  0  0  0  0
   30.1021   -1.6192  -62.5582 O   0  0  0  0  0  0
   35.1211   -1.1718  -63.8218 H   0  0  0  0  0  0
   36.5873   -3.5958  -62.5356 H   0  0  0  0  0  0
   38.1889   -3.6388  -63.0264 H   0  0  0  0  0  0
   29.3228   -1.0403  -62.3536 H   0  0  0  0  0  0
  1  2  1  0  0  0
  2  3  1  0  0  0
  3  4  1  0  0  0
  4  5  1  0  0  0
  5  6  1  0  0  0
  6  7  1  0  0  0
  6 16  1  0  0  0
  7  8  1  0  0  0
  8  9  1  0  0  0
  9 10  1  0  0  0
 10 11  2  0  0  0
 11 12  1  0  0  0
 12 13  2  0  0  0
 13 14  1  0  0  0
 14 15  2  0  0  0
 15 10  1  0  0  0
 16 17  1  0  0  0
 16 21  1  0  0  0
 17 18  1  0  0  0
 17 36  1  0  0  0
 18 19  1  0  0  0
 19 20  1  0  0  0
 20 37  1  0  0  0
 20 38  1  0  0  0
 21 22  1  0  0  0
 21 34  1  0  0  0
 22 23  1  0  0  0
 23 24  1  0  0  0
 24 25  2  0  0  0
 25 26  1  0  0  0
 26 27  2  0  0  0
 27 28  1  0  0  0
 28 29  2  0  0  0
 29 30  1  0  0  0
 30 31  2  0  0  0
 31 32  1  0  0  0
 32 33  2  0  0  0
 32 27  1  0  0  0
 33 24  1  0  0  0
 34 35  1  0  0  0
 34  4  1  0  0  0
 35 39  1  0  0  0
M  END
>  <CHROM.0>
71.62078140,177.54732548,174.90186591

>  <CHROM.1>
-179.43109348,178.51346679,-80.19477428,161.72446413,-59.60921481,124.65983763
86.80837305,-171.21089439,-55.75217639,-22.59167928,144.25248744,167.30409386
123.59928172,-46.99105177,32.63406173,-0.18913313,-63.65421948,1.13341429
-0.30087337,0.77339339

>  <Energy>
80.57119762461986

>  <Genealogy>
COC[C@H]1O[C@@H](OCCc2ccccc2)[C@H](NCCN)[C@H](OCc2ccc3ccccc3c2)[C@@H]1O (chirality)
COC[C@H]1O[C@@H](OCCc2ccccc2)[C@H](NCCN)[C@H](OCc2ccc3ccccc3c2)[C@@H]1O (3D coordinates assigned)
COC[C@H]1O[C@@H](OCCc2ccccc2)[C@H](NCCN)[C@H](OCc2ccc3ccccc3c2)[C@@H]1O (nonaromatic ring conformer: 80.57119762461986 kcal/mol)

>  <Name>
52944904

>  <RI>
2.59779e+07

>  <Rbt.Current_Directory>
/home/edward/Documentos/Virtual_Screening/rDock/N-terminal/2

>  <Rbt.Executable>
rbdock ($Id: //depot/dev/client3/rdock/2013.1/src/exe/rbdock.cxx#4 $)

>  <Rbt.Library>
libRbt.so (2013.1, Build901 2013/11/27)

>  <Rbt.Parameter_File>
/home/edward/anaconda3/envs/MD/share/rdock-2013.1-1/data/scripts/dock.prm

>  <Rbt.Receptor>
parameters.prm

>  <SCORE>
-16.8766

>  <SCORE.INTER>
-14.2758

>  <SCORE.INTER.CONST>
1

>  <SCORE.INTER.POLAR>
-1.97288

>  <SCORE.INTER.REPUL>
0.131983

>  <SCORE.INTER.ROT>
13

>  <SCORE.INTER.VDW>
-26.6279

>  <SCORE.INTER.norm>
-0.407879

>  <SCORE.INTRA>
-3.30111

>  <SCORE.INTRA.DIHEDRAL>
-7.54924

>  <SCORE.INTRA.DIHEDRAL.0>
21.6092

>  <SCORE.INTRA.POLAR>
-0.73853

>  <SCORE.INTRA.POLAR.0>
0

>  <SCORE.INTRA.REPUL>
0

>  <SCORE.INTRA.REPUL.0>
0

>  <SCORE.INTRA.VDW>
2.98452

>  <SCORE.INTRA.VDW.0>
-4.80616

>  <SCORE.INTRA.norm>
-0.0943173

>  <SCORE.RESTR>
0

>  <SCORE.RESTR.CAVITY>
0

>  <SCORE.RESTR.norm>
0

>  <SCORE.SYSTEM>
0.700265

>  <SCORE.SYSTEM.CONST>
0

>  <SCORE.SYSTEM.DIHEDRAL>
0.803246

>  <SCORE.SYSTEM.POLAR>
-0.0209088

>  <SCORE.SYSTEM.REPUL>
0.0682439

>  <SCORE.SYSTEM.VDW>
0.0285126

>  <SCORE.SYSTEM.norm>
0.0200076

>  <SCORE.heavy>
35

>  <SCORE.norm>
-0.482188

>  <SMILES>
COC[C@H]1O[C@@H](OCCc2ccccc2)[C@H](NCCN)[C@H](OCc2ccc3ccccc3c2)[C@@H]1O

>  <UniqueID>
34

$$$$
52944903
  rDOCK(R)          3D
libRbt.so/2013.1/901 2013/11/27
 39 42  0  0  0  0  0  0  0  0999 V2000
   27.3391    2.7540  -60.1041 C   0  0  0  0  0  0
   28.6359    2.2230  -59.9410 O   0  0  0  0  0  0
   29.6129    3.1584  -60.3606 C   0  0  0  0  0  0
   31.0261    2.5734  -60.2027 C   0  0  0  0  0  0
   31.1170    1.4096  -61.0067 O   0  0  0  0  0  0
   32.3370    0.7266  -60.7706 C   0  0  0  0  0  0
   32.3378   -0.4608  -61.5382 O   0  0  0  0  0  0
   31.4098   -1.3959  -61.0295 C   0  0  0  0  0  0
   31.4595   -2.6239  -61.8903 C   0  0  0  0  0  0
   30.5850   -3.6939  -61.6450 C   0  0  0  0  0  0
   30.5612   -4.8013  -62.4952 C   0  0  0  0  0  0
   31.4030   -4.8473  -63.6158 C   0  0  0  0  0  0
   31.3664   -5.9423  -64.4933 C   0  0  0  0  0  0
   32.1900   -5.9657  -65.6221 C   0  0  0  0  0  0
   33.0610   -4.9033  -65.8792 C   0  0  0  0  0  0
   33.1120   -3.8092  -65.0097 C   0  0  0  0  0  0
   32.2833   -3.7688  -63.8761 C   0  0  0  0  0  0
   32.3055   -2.6636  -63.0095 C   0  0  0  0  0  0
   33.5215    1.6106  -61.2360 C   0  0  0  0  0  0
   34.8289    0.9152  -61.1508 N   0  3  0  0  0  0
   35.2245    0.1682  -62.3650 C   0  0  0  0  0  0
   35.1354    1.0358  -63.6256 C   0  0  0  0  0  0
   35.9287    2.2504  -63.4654 N   0  0  0  0  0  0
   33.5057    2.9740  -60.4995 C   0  0  0  0  0  0
   34.4706    3.8235  -61.1025 O   0  0  0  0  0  0
   35.5127    4.1354  -60.2055 C   0  0  0  0  0  0
   34.9583    4.9910  -59.1075 C   0  0  0  0  0  0
   34.6370    4.4355  -57.8582 C   0  0  0  0  0  0
   34.0781    5.2362  -56.8575 C   0  0  0  0  0  0
   33.8310    6.5916  -57.0988 C   0  0  0  0  0  0
   34.1393    7.1476  -58.3423 C   0  0  0  0  0  0
   34.6986    6.3514  -59.3456 C   0  0  0  0  0  0
   32.1029    3.6028  -60.6294 C   0  0  0  0  0  0
   32.0251    4.7438  -59.8101 O   0  0  0  0  0  0
   34.7939    0.2407  -60.3520 H   0  0  0  0  0  0
   35.5605    1.6160  -60.8930 H   0  0  0  0  0  0
   35.8484    2.8075  -64.3470 H   0  0  0  0  0  0
   35.4923    2.8277  -62.7106 H   0  0  0  0  0  0
   32.1586    4.4417  -58.8746 H   0  0  0  0  0  0
  1  2  1  0  0  0
  2  3  1  0  0  0
  3  4  1  0  0  0
  4  5  1  0  0  0
  5  6  1  0  0  0
  6  7  1  0  0  0
  6 19  1  0  0  0
  7  8  1  0  0  0
  8  9  1  0  0  0
  9 10  2  0  0  0
 10 11  1  0  0  0
 11 12  2  0  0  0
 12 13  1  0  0  0
 13 14  2  0  0  0
 14 15  1  0  0  0
 15 16  2  0  0  0
 16 17  1  0  0  0
 17 18  2  0  0  0
 17 12  1  0  0  0
 18  9  1  0  0  0
 19 20  1  0  0  0
 19 24  1  0  0  0
 20 21  1  0  0  0
 20 35  1  0  0  0
 20 36  1  0  0  0
 21 22  1  0  0  0
 22 23  1  0  0  0
 23 37  1  0  0  0
 23 38  1  0  0  0
 24 25  1  0  0  0
 24 33  1  0  0  0
 25 26  1  0  0  0
 26 27  1  0  0  0
 27 28  2  0  0  0
 28 29  1  0  0  0
 29 30  2  0  0  0
 30 31  1  0  0  0
 31 32  2  0  0  0
 32 27  1  0  0  0
 33 34  1  0  0  0
 33  4  1  0  0  0
 34 39  1  0  0  0
M  END
>  <CHROM.0>
-176.98002201,-57.21831880,56.65409146

>  <CHROM.1>
-179.17114151,60.30723145,-70.20949180,179.79820962,-176.90917399,89.81563169
51.49855794,55.25402312,179.47713407,-115.04308250,-67.52946966,100.34213456
58.57031386,32.65852909,0.92700710,-61.30359159,1.40901425,0.28657966,0.52790919

>  <Energy>
82.44430888244324

>  <Genealogy>
COC[C@H]1OC(OCc2ccc3ccccc3c2)[C@H]([NH2+]CCN)C(OCc2ccccc2)[C@@H]1O (protonated)
COC[C@H]1O[C@@H](OCc2ccc3ccccc3c2)[C@H]([NH2+]CCN)[C@@H](OCc2ccccc2)[C@@H]1O (chirality)
COC[C@H]1O[C@@H](OCc2ccc3ccccc3c2)[C@H]([NH2+]CCN)[C@@H](OCc2ccccc2)[C@@H]1O (3D coordinates assigned)
COC[C@H]1O[C@@H](OCc2ccc3ccccc3c2)[C@H]([NH2+]CCN)[C@@H](OCc2ccccc2)[C@@H]1O (nonaromatic ring conformer: 82.44430888244324 kcal/mol)

>  <Name>
52944903

>  <RI>
2.59779e+07

>  <Rbt.Current_Directory>
/home/edward/Documentos/Virtual_Screening/rDock/N-terminal/2

>  <Rbt.Executable>
rbdock ($Id: //depot/dev/client3/rdock/2013.1/src/exe/rbdock.cxx#4 $)

>  <Rbt.Library>
libRbt.so (2013.1, Build901 2013/11/27)

>  <Rbt.Parameter_File>
/home/edward/anaconda3/envs/MD/share/rdock-2013.1-1/data/scripts/dock.prm

>  <Rbt.Receptor>
parameters.prm

>  <SCORE>
-23.9688

>  <SCORE.INTER>
-13.46

>  <SCORE.INTER.CONST>
1

>  <SCORE.INTER.POLAR>
-2.24764

>  <SCORE.INTER.REPUL>
0

>  <SCORE.INTER.ROT>
12

>  <SCORE.INTER.VDW>
-23.2181

>  <SCORE.INTER.norm>
-0.395883

>  <SCORE.INTRA>
-9.4825

>  <SCORE.INTRA.DIHEDRAL>
-12.0494

>  <SCORE.INTRA.DIHEDRAL.0>
23.6231

>  <SCORE.INTRA.POLAR>
-0.995808

>  <SCORE.INTRA.POLAR.0>
-0.00419156

>  <SCORE.INTRA.REPUL>
0

>  <SCORE.INTRA.REPUL.0>
0

>  <SCORE.INTRA.VDW>
-0.072045

>  <SCORE.INTRA.VDW.0>
-3.1127

>  <SCORE.INTRA.norm>
-0.278897

>  <SCORE.RESTR>
0

>  <SCORE.RESTR.CAVITY>
0

>  <SCORE.RESTR.norm>
0

>  <SCORE.SYSTEM>
-1.02625

>  <SCORE.SYSTEM.CONST>
0

>  <SCORE.SYSTEM.DIHEDRAL>
0.138134

>  <SCORE.SYSTEM.REPUL>
0.0316973

>  <SCORE.SYSTEM.VDW>
-1.2538

>  <SCORE.SYSTEM.norm>
-0.0301838

>  <SCORE.heavy>
34

>  <SCORE.norm>
-0.704964

>  <SMILES>
COC[C@H]1O[C@@H](OCc2ccc3ccccc3c2)[C@H]([NH2+]CCN)[C@@H](OCc2ccccc2)[C@@H]1O

>  <UniqueID>
35

$$$$
51351654
  rDOCK(R)          3D
libRbt.so/2013.1/901 2013/11/27
 21 21  0  0  0  0  0  0  0  0999 V2000
   33.8878    1.1247  -64.2596 O   0  0  0  0  0  0
   35.1894    1.6891  -63.7638 S   0  0  0  0  0  0
   36.1391    1.8273  -64.9197 O   0  0  0  0  0  0
   35.8533    0.6465  -62.6257 O   0  5  0  0  0  0
   34.9166    3.2534  -63.0559 N   0  0  0  0  0  0
   35.0385    3.2094  -61.5837 C   0  0  0  0  0  0
   35.9126    4.3671  -61.0445 C   0  0  0  0  0  0
   37.2095    4.2411  -61.5604 O   0  0  0  0  0  0
   35.9794    4.3120  -59.6299 O   0  0  0  0  0  0
   34.7066    4.5622  -59.0577 C   0  0  0  0  0  0
   34.8881    4.6702  -57.5341 C   0  0  0  0  0  0
   33.6615    4.8856  -56.8889 O   0  0  0  0  0  0
   33.7248    3.4253  -59.4348 C   0  0  0  0  0  0
   32.4423    3.6961  -58.9262 O   0  0  0  0  0  0
   33.6321    3.3048  -60.9638 C   0  0  0  0  0  0
   32.8844    2.1602  -61.2881 O   0  0  0  0  0  0
   35.6046    3.9166  -63.4813 H   0  0  0  0  0  0
   37.1612    4.5185  -62.5123 H   0  0  0  0  0  0
   33.8399    4.8363  -55.9135 H   0  0  0  0  0  0
   31.9187    2.8547  -58.9843 H   0  0  0  0  0  0
   32.7661    2.1608  -62.2738 H   0  0  0  0  0  0
  1  2  2  0  0  0
  2  3  2  0  0  0
  2  4  1  0  0  0
  2  5  1  0  0  0
  5  6  1  0  0  0
  5 17  1  0  0  0
  6  7  1  0  0  0
  7  8  1  0  0  0
  7  9  1  0  0  0
  8 18  1  0  0  0
  9 10  1  0  0  0
 10 11  1  0  0  0
 10 13  1  0  0  0
 11 12  1  0  0  0
 12 19  1  0  0  0
 13 14  1  0  0  0
 13 15  1  0  0  0
 14 20  1  0  0  0
 15 16  1  0  0  0
 15  6  1  0  0  0
 16 21  1  0  0  0
M  END
>  <CHROM.0>
71.66742862,-60.05379294,-177.78015156

>  <CHROM.1>
107.64949885,133.10214240,74.30924328,-178.52429604,173.41646340,-165.70367685
-64.21097634,34.77796928,3.08104415,-61.24225771,1.37398256,-0.39252334,-2.09934986

>  <Energy>
25.24663720746606

>  <Genealogy>
O=S(=O)([O-])N[C@H]1[C@H](O)O[C@H](CO)[C@@H](O)[C@@H]1O (chirality)
O=S(=O)([O-])N[C@H]1[C@H](O)O[C@H](CO)[C@@H](O)[C@@H]1O (3D coordinates assigned)
O=S(=O)([O-])N[C@H]1[C@H](O)O[C@H](CO)[C@@H](O)[C@@H]1O (nonaromatic ring conformer: 25.24663720746606 kcal/mol)

>  <Name>
51351654

>  <RI>
2.59779e+07

>  <Rbt.Current_Directory>
/home/edward/Documentos/Virtual_Screening/rDock/N-terminal/2

>  <Rbt.Executable>
rbdock ($Id: //depot/dev/client3/rdock/2013.1/src/exe/rbdock.cxx#4 $)

>  <Rbt.Library>
libRbt.so (2013.1, Build901 2013/11/27)

>  <Rbt.Parameter_File>
/home/edward/anaconda3/envs/MD/share/rdock-2013.1-1/data/scripts/dock.prm

>  <Rbt.Receptor>
parameters.prm

>  <SCORE>
-25.7905

>  <SCORE.INTER>
-24.1593

>  <SCORE.INTER.CONST>
1

>  <SCORE.INTER.POLAR>
-4.90702

>  <SCORE.INTER.REPUL>
0.0184528

>  <SCORE.INTER.ROT>
3

>  <SCORE.INTER.VDW>
-15.9677

>  <SCORE.INTER.norm>
-1.50995

>  <SCORE.INTRA>
-1.6351

>  <SCORE.INTRA.DIHEDRAL>
-4.80345

>  <SCORE.INTRA.DIHEDRAL.0>
11.3741

>  <SCORE.INTRA.POLAR>
-0.000981235

>  <SCORE.INTRA.POLAR.0>
0

>  <SCORE.INTRA.REPUL>
0

>  <SCORE.INTRA.REPUL.0>
0

>  <SCORE.INTRA.VDW>
0.769959

>  <SCORE.INTRA.VDW.0>
-2.07439

>  <SCORE.INTRA.norm>
-0.102194

>  <SCORE.RESTR>
0

>  <SCORE.RESTR.CAVITY>
0

>  <SCORE.RESTR.norm>
0

>  <SCORE.SYSTEM>
0.00388868

>  <SCORE.SYSTEM.CONST>
0

>  <SCORE.SYSTEM.DIHEDRAL>
0.675439

>  <SCORE.SYSTEM.POLAR>
-0.0207507

>  <SCORE.SYSTEM.REPUL>
0.00443233

>  <SCORE.SYSTEM.VDW>
-0.28544

>  <SCORE.SYSTEM.norm>
0.000243042

>  <SCORE.heavy>
16

>  <SCORE.norm>
-1.61191

>  <SMILES>
O=S(=O)([O-])N[C@H]1[C@H](O)O[C@H](CO)[C@@H](O)[C@@H]1O

>  <UniqueID>
37

$$$$
49859685
  rDOCK(R)          3D
libRbt.so/2013.1/901 2013/11/27
 23 23  0  0  0  0  0  0  0  0999 V2000
   32.2927   -0.7790  -56.6168 H   0  0  0  0  0  0
   32.6077   -0.8772  -57.5744 O   0  0  0  0  0  0
   32.1916   -0.0014  -58.5740 C   0  0  0  0  0  0
   32.6981   -0.1389  -59.7659 N   0  0  0  0  0  0
   32.3811    0.6681  -60.9506 C   0  0  0  0  0  0
   33.5615    1.6110  -61.2595 C   0  0  0  0  0  0
   33.8365    2.3883  -60.1076 O   0  0  0  0  0  0
   35.1650    3.4267  -60.3843 P   0  0  0  0  0  0
   34.9566    4.7100  -59.6140 O   0  0  0  0  0  0
   35.3018    3.7866  -62.0317 O   0  5  0  0  0  0
   36.5889    2.6855  -59.8499 O   0  5  0  0  0  0
   34.7306    0.8629  -61.5580 O   0  0  0  0  0  0
   34.5951    0.0704  -62.7316 C   0  0  0  0  0  0
   34.6212    0.9305  -64.0175 C   0  0  0  0  0  0
   35.8371    1.6261  -64.1190 O   0  0  0  0  0  0
   35.8563    2.2966  -63.3873 H   0  0  0  0  0  0
   33.4116   -0.9274  -62.6211 C   0  0  0  0  0  0
   33.2165   -1.6028  -63.8371 O   0  0  0  0  0  0
   32.9340   -0.9220  -64.5025 H   0  0  0  0  0  0
   32.1085   -0.2454  -62.1618 C   0  0  0  0  0  0
   31.5495    0.4951  -63.2168 O   0  0  0  0  0  0
   32.1410    1.2791  -63.3628 H   0  0  0  0  0  0
   31.2068    1.0868  -58.2398 C   0  0  0  0  0  0
  1  2  1  0  0  0
  2  3  1  0  0  0
  3  4  2  0  0  0
  3 23  1  0  0  0
  4  5  1  0  0  0
  5  6  1  0  0  0
  6  7  1  0  0  0
  6 12  1  0  0  0
  7  8  1  0  0  0
  8  9  2  0  0  0
  8 10  1  0  0  0
  8 11  1  0  0  0
 12 13  1  0  0  0
 13 14  1  0  0  0
 13 17  1  0  0  0
 14 15  1  0  0  0
 15 16  1  0  0  0
 17 18  1  0  0  0
 17 20  1  0  0  0
 18 19  1  0  0  0
 20 21  1  0  0  0
 20  5  1  0  0  0
 21 22  1  0  0  0
M  END
>  <CHROM.0>
72.01866708,61.74750991,62.97380653

>  <CHROM.1>
175.98244381,106.75369411,178.62030188,146.62162137,60.34741603,-67.57192345
-65.30621440,51.50131929,33.83531039,1.25666350,-61.15802141,2.56410178,-0.84148447
-1.99740089

>  <Energy>
36.86356290443075

>  <Genealogy>
CC(O)=N[C@H]1[C@@H](OP(=O)([O-])[O-])O[C@H](CO)[C@H](O)[C@@H]1O (tautomer)
C/C(O)=N\[C@H]1[C@@H](OP(=O)([O-])[O-])O[C@H](CO)[C@H](O)[C@@H]1O (cis-trans isomerization)
C/C(O)=N\[C@H]1[C@@H](OP(=O)([O-])[O-])O[C@H](CO)[C@H](O)[C@@H]1O (3D coordinates assigned)
C/C(O)=N\[C@H]1[C@@H](OP(=O)([O-])[O-])O[C@H](CO)[C@H](O)[C@@H]1O (nonaromatic ring conformer: 36.86356290443075 kcal/mol)

>  <Name>
49859685

>  <RI>
2.59779e+07

>  <Rbt.Current_Directory>
/home/edward/Documentos/Virtual_Screening/rDock/N-terminal/2

>  <Rbt.Executable>
rbdock ($Id: //depot/dev/client3/rdock/2013.1/src/exe/rbdock.cxx#4 $)

>  <Rbt.Library>
libRbt.so (2013.1, Build901 2013/11/27)

>  <Rbt.Parameter_File>
/home/edward/anaconda3/envs/MD/share/rdock-2013.1-1/data/scripts/dock.prm

>  <Rbt.Receptor>
parameters.prm

>  <SCORE>
-23.03

>  <SCORE.INTER>
-12.7335

>  <SCORE.INTER.CONST>
1

>  <SCORE.INTER.POLAR>
-1.76898

>  <SCORE.INTER.REPUL>
0

>  <SCORE.INTER.ROT>
4

>  <SCORE.INTER.VDW>
-16.1189

>  <SCORE.INTER.norm>
-0.670183

>  <SCORE.INTRA>
-11.0182

>  <SCORE.INTRA.DIHEDRAL>
-14.9918

>  <SCORE.INTRA.DIHEDRAL.0>
17.8684

>  <SCORE.INTRA.POLAR>
-1.33516

>  <SCORE.INTRA.POLAR.0>
0

>  <SCORE.INTRA.REPUL>
0

>  <SCORE.INTRA.REPUL.0>
0

>  <SCORE.INTRA.VDW>
1.01727

>  <SCORE.INTRA.VDW.0>
-2.90131

>  <SCORE.INTRA.norm>
-0.579904

>  <SCORE.RESTR>
0

>  <SCORE.RESTR.CAVITY>
0

>  <SCORE.RESTR.norm>
0

>  <SCORE.SYSTEM>
0.721612

>  <SCORE.SYSTEM.CONST>
0

>  <SCORE.SYSTEM.DIHEDRAL>
0.748221

>  <SCORE.SYSTEM.POLAR>
-0.0195684

>  <SCORE.SYSTEM.REPUL>
0.145568

>  <SCORE.SYSTEM.VDW>
-0.313805

>  <SCORE.SYSTEM.norm>
0.0379796

>  <SCORE.heavy>
19

>  <SCORE.norm>
-1.21211

>  <SMILES>
C/C(O)=N\[C@H]1[C@@H](OP(=O)([O-])[O-])O[C@H](CO)[C@H](O)[C@@H]1O

>  <UniqueID>
40

$$$$
49802606
  rDOCK(R)          3D
libRbt.so/2013.1/901 2013/11/27
 23 23  0  0  0  0  0  0  0  0999 V2000
   34.4323    5.7146  -60.9180 H   0  0  0  0  0  0
   33.5230    5.4448  -60.5624 O   0  0  0  0  0  0
   33.0740    4.1269  -60.6515 C   0  0  0  0  0  0
   33.8728    3.1841  -61.0558 N   0  0  0  0  0  0
   35.2637    3.3927  -61.4713 C   0  0  0  0  0  0
   36.2109    2.5776  -60.5385 C   0  0  0  0  0  0
   37.2690    3.4050  -60.1346 O   0  0  0  0  0  0
   37.9544    2.8113  -59.7298 H   0  0  0  0  0  0
   36.7563    1.4244  -61.1701 O   0  0  0  0  0  0
   35.7414    0.6795  -61.8181 C   0  0  0  0  0  0
   36.2538   -0.7396  -62.1051 C   0  0  0  0  0  0
   35.3934   -1.4049  -62.9894 O   0  0  0  0  0  0
   35.5948   -1.0452  -63.8920 H   0  0  0  0  0  0
   35.2455    1.4309  -63.0891 C   0  0  0  0  0  0
   35.8941    0.9692  -64.2487 O   0  0  0  0  0  0
   35.4745    1.4372  -65.0175 H   0  0  0  0  0  0
   35.4518    2.9589  -62.9423 C   0  0  0  0  0  0
   36.7446    3.3085  -63.3724 O   0  0  0  0  0  0
   36.7989    4.2996  -63.3443 H   0  0  0  0  0  0
   31.6654    3.7954  -60.2606 C   0  0  0  0  0  0
   31.0909    2.9274  -61.1735 F   0  0  0  0  0  0
   31.6647    3.2023  -59.0122 F   0  0  0  0  0  0
   30.9160    4.9559  -60.2129 F   0  0  0  0  0  0
  1  2  1  0  0  0
  2  3  1  0  0  0
  3  4  2  0  0  0
  3 20  1  0  0  0
  4  5  1  0  0  0
  5  6  1  0  0  0
  6  7  1  0  0  0
  6  9  1  0  0  0
  7  8  1  0  0  0
  9 10  1  0  0  0
 10 11  1  0  0  0
 10 14  1  0  0  0
 11 12  1  0  0  0
 12 13  1  0  0  0
 14 15  1  0  0  0
 14 17  1  0  0  0
 15 16  1  0  0  0
 17 18  1  0  0  0
 17  5  1  0  0  0
 18 19  1  0  0  0
 20 21  1  0  0  0
 20 22  1  0  0  0
 20 23  1  0  0  0
M  END
>  <CHROM.0>
-75.68228998,-61.53196525,-63.80623597

>  <CHROM.1>
7.85569615,136.76370118,119.10014242,-166.88770202,-167.35192341,77.49953731
175.39435511,-63.89873925,34.47638750,2.57057282,-61.46754901,-2.40699203
-0.17558942,-2.70369797

>  <Energy>
34.66129969515294

>  <Genealogy>
OC[C@H]1OC(O)[C@H](N=C(O)C(F)(F)F)[C@@H](O)[C@H]1O (tautomer)
OC[C@H]1O[C@@H](O)[C@H](N=C(O)C(F)(F)F)[C@@H](O)[C@H]1O (chirality)
OC[C@H]1O[C@@H](O)[C@H](/N=C(\O)C(F)(F)F)[C@@H](O)[C@H]1O (cis-trans isomerization)
OC[C@H]1O[C@@H](O)[C@H](/N=C(\O)C(F)(F)F)[C@@H](O)[C@H]1O (3D coordinates assigned)
OC[C@H]1O[C@@H](O)[C@H](/N=C(\O)C(F)(F)F)[C@@H](O)[C@H]1O (nonaromatic ring conformer: 34.66129969515294 kcal/mol)

>  <Name>
49802606

>  <RI>
2.59779e+07

>  <Rbt.Current_Directory>
/home/edward/Documentos/Virtual_Screening/rDock/N-terminal/2

>  <Rbt.Executable>
rbdock ($Id: //depot/dev/client3/rdock/2013.1/src/exe/rbdock.cxx#4 $)

>  <Rbt.Library>
libRbt.so (2013.1, Build901 2013/11/27)

>  <Rbt.Parameter_File>
/home/edward/anaconda3/envs/MD/share/rdock-2013.1-1/data/scripts/dock.prm

>  <Rbt.Receptor>
parameters.prm

>  <SCORE>
-26.1002

>  <SCORE.INTER>
-24.6845

>  <SCORE.INTER.CONST>
1

>  <SCORE.INTER.POLAR>
-5.3806

>  <SCORE.INTER.REPUL>
0.171102

>  <SCORE.INTER.ROT>
3

>  <SCORE.INTER.VDW>
-15.646

>  <SCORE.INTER.norm>
-1.37136

>  <SCORE.INTRA>
-1.41806

>  <SCORE.INTRA.DIHEDRAL>
-1.37837

>  <SCORE.INTRA.DIHEDRAL.0>
5.55085

>  <SCORE.INTRA.POLAR>
-0.427347

>  <SCORE.INTRA.POLAR.0>
0

>  <SCORE.INTRA.REPUL>
-0.00713832

>  <SCORE.INTRA.REPUL.0>
0.00713832

>  <SCORE.INTRA.VDW>
0.759799

>  <SCORE.INTRA.VDW.0>
-2.18596

>  <SCORE.INTRA.norm>
-0.0787811

>  <SCORE.RESTR>
0

>  <SCORE.RESTR.CAVITY>
0

>  <SCORE.RESTR.norm>
0

>  <SCORE.SYSTEM>
0.00239432

>  <SCORE.SYSTEM.CONST>
0

>  <SCORE.SYSTEM.DIHEDRAL>
1.22979

>  <SCORE.SYSTEM.VDW>
-0.612502

>  <SCORE.SYSTEM.norm>
0.000133018

>  <SCORE.heavy>
18

>  <SCORE.norm>
-1.45001

>  <SMILES>
OC[C@H]1O[C@@H](O)[C@H](/N=C(\O)C(F)(F)F)[C@@H](O)[C@H]1O

>  <UniqueID>
42

$$$$
46174147
  rDOCK(R)          3D
libRbt.so/2013.1/901 2013/11/27
 24 24  0  0  0  0  0  0  0  0999 V2000
   32.3457   -2.2804  -65.1561 C   0  0  0  0  0  0
   32.5971   -1.0531  -64.3424 C   0  0  0  0  0  0
   31.6507   -0.5332  -63.6914 O   0  0  0  0  0  0
   33.9008   -0.4550  -64.3351 N   0  0  0  0  0  0
   34.2175    0.7299  -63.5285 C   0  0  0  0  0  0
   34.7242    0.3096  -62.1339 C   0  0  0  0  0  0
   35.8226   -0.6002  -62.2455 O   0  0  0  0  0  0
   35.6951   -1.8865  -62.7778 C   0  0  0  0  0  0
   36.8471   -2.7170  -62.8902 N   0  0  0  0  0  0
   34.5733   -2.3184  -63.1582 O   0  0  0  0  0  0
   35.0685    1.4415  -61.3491 O   0  0  0  0  0  0
   36.1224    2.1888  -61.9379 C   0  0  0  0  0  0
   36.5291    3.3062  -60.9636 C   0  0  0  0  0  0
   36.9001    2.7829  -59.7155 O   0  0  0  0  0  0
   35.6957    2.7564  -63.3136 C   0  0  0  0  0  0
   36.7685    3.4431  -63.9088 O   0  0  0  0  0  0
   35.2708    1.6016  -64.2344 C   0  0  0  0  0  0
   34.7253    2.1125  -65.4240 O   0  0  0  0  0  0
   34.6378   -0.8743  -64.9473 H   0  0  0  0  0  0
   36.7697   -3.6794  -63.2874 H   0  0  0  0  0  0
   37.7785   -2.3667  -62.5750 H   0  0  0  0  0  0
   37.0950    3.5580  -59.1268 H   0  0  0  0  0  0
   36.7583    4.3687  -63.5499 H   0  0  0  0  0  0
   34.9301    1.4564  -66.1402 H   0  0  0  0  0  0
  1  2  1  0  0  0
  2  3  2  0  0  0
  2  4  1  0  0  0
  4  5  1  0  0  0
  4 19  1  0  0  0
  5  6  1  0  0  0
  6  7  1  0  0  0
  6 11  1  0  0  0
  7  8  1  0  0  0
  8  9  1  0  0  0
  8 10  2  0  0  0
  9 20  1  0  0  0
  9 21  1  0  0  0
 11 12  1  0  0  0
 12 13  1  0  0  0
 12 15  1  0  0  0
 13 14  1  0  0  0
 14 22  1  0  0  0
 15 16  1  0  0  0
 15 17  1  0  0  0
 16 23  1  0  0  0
 17 18  1  0  0  0
 17  5  1  0  0  0
 18 24  1  0  0  0
M  END
>  <CHROM.0>
-176.72891443,-173.05461685,61.37992165

>  <CHROM.1>
90.24348876,-66.15095356,178.14959827,56.85288981,-176.65727260,-85.00311853
-90.14910841,35.00414817,0.51034234,-63.05268141,2.42649877,0.83679989,2.92932817

>  <Energy>
25.16813974318025

>  <Genealogy>
CC(=O)N[C@H]1[C@@H](OC(N)=O)O[C@H](CO)[C@@H](O)[C@@H]1O (3D coordinates assigned)
CC(=O)N[C@H]1[C@@H](OC(N)=O)O[C@H](CO)[C@@H](O)[C@@H]1O (nonaromatic ring conformer: 25.16813974318025 kcal/mol)

>  <Name>
46174147

>  <RI>
2.59779e+07

>  <Rbt.Current_Directory>
/home/edward/Documentos/Virtual_Screening/rDock/N-terminal/2

>  <Rbt.Executable>
rbdock ($Id: //depot/dev/client3/rdock/2013.1/src/exe/rbdock.cxx#4 $)

>  <Rbt.Library>
libRbt.so (2013.1, Build901 2013/11/27)

>  <Rbt.Parameter_File>
/home/edward/anaconda3/envs/MD/share/rdock-2013.1-1/data/scripts/dock.prm

>  <Rbt.Receptor>
parameters.prm

>  <SCORE>
-18.5483

>  <SCORE.INTER>
-20.0554

>  <SCORE.INTER.CONST>
1

>  <SCORE.INTER.POLAR>
-3.79299

>  <SCORE.INTER.REPUL>
0.0366758

>  <SCORE.INTER.ROT>
4

>  <SCORE.INTER.VDW>
-16.7426

>  <SCORE.INTER.norm>
-1.11419

>  <SCORE.INTRA>
1.99651

>  <SCORE.INTRA.DIHEDRAL>
-1.63068

>  <SCORE.INTRA.DIHEDRAL.0>
9.54992

>  <SCORE.INTRA.POLAR>
0

>  <SCORE.INTRA.POLAR.0>
0

>  <SCORE.INTRA.REPUL>
0

>  <SCORE.INTRA.REPUL.0>
0

>  <SCORE.INTRA.VDW>
2.81185

>  <SCORE.INTRA.VDW.0>
-2.1706

>  <SCORE.INTRA.norm>
0.110917

>  <SCORE.RESTR>
0

>  <SCORE.RESTR.CAVITY>
0

>  <SCORE.RESTR.norm>
0

>  <SCORE.SYSTEM>
-0.489463

>  <SCORE.SYSTEM.CONST>
0

>  <SCORE.SYSTEM.DIHEDRAL>
0.297501

>  <SCORE.SYSTEM.REPUL>
0.0768518

>  <SCORE.SYSTEM.VDW>
-1.02247

>  <SCORE.SYSTEM.norm>
-0.0271924

>  <SCORE.heavy>
18

>  <SCORE.norm>
-1.03046

>  <SMILES>
CC(=O)N[C@H]1[C@@H](OC(N)=O)O[C@H](CO)[C@@H](O)[C@@H]1O

>  <UniqueID>
44

$$$$
45934204
  rDOCK(R)          3D
libRbt.so/2013.1/901 2013/11/27
 24 24  0  0  0  0  0  0  0  0999 V2000
   34.0671    4.4677  -55.9900 H   0  0  0  0  0  0
   33.8389    5.1371  -56.7151 O   0  0  0  0  0  0
   33.7408    4.7617  -58.0525 C   0  0  0  0  0  0
   34.0350    3.5334  -58.3711 N   0  0  0  0  0  0
   33.9803    2.9265  -59.7061 C   0  0  0  0  0  0
   35.3812    2.4033  -60.0829 C   0  0  0  0  0  0
   36.2803    3.4794  -60.1492 O   0  0  0  0  0  0
   37.1736    3.1025  -60.3633 H   0  0  0  0  0  0
   35.3436    1.7863  -61.3564 O   0  0  0  0  0  0
   34.5441    0.6159  -61.3262 C   0  0  0  0  0  0
   34.6921   -0.0903  -62.6846 C   0  0  0  0  0  0
   36.0088   -0.5267  -62.8916 O   0  0  0  0  0  0
   36.0499   -0.8792  -63.8188 H   0  0  0  0  0  0
   33.0690    0.9885  -61.0368 C   0  0  0  0  0  0
   32.2842   -0.1745  -60.9483 O   0  0  0  0  0  0
   31.5098    0.0348  -60.3633 H   0  0  0  0  0  0
   32.9757    1.7582  -59.7060 C   0  0  0  0  0  0
   31.6638    2.2807  -59.5582 O   0  0  0  0  0  0
   31.3047    2.4654  -58.1992 C   0  0  0  0  0  0
   31.0174    1.1219  -57.5998 C   0  0  0  0  0  0
   30.7895    0.1312  -58.3432 O   0  0  0  0  0  0
   31.0417    0.9530  -56.2205 O   0  5  0  0  0  0
   30.0536    3.3420  -58.0986 C   0  0  0  0  0  0
   33.3257    5.7834  -59.0763 C   0  0  0  0  0  0
  1  2  1  0  0  0
  2  3  1  0  0  0
  3  4  2  0  0  0
  3 24  1  0  0  0
  4  5  1  0  0  0
  5  6  1  0  0  0
  6  7  1  0  0  0
  6  9  1  0  0  0
  7  8  1  0  0  0
  9 10  1  0  0  0
 10 11  1  0  0  0
 10 14  1  0  0  0
 11 12  1  0  0  0
 12 13  1  0  0  0
 14 15  1  0  0  0
 14 17  1  0  0  0
 15 16  1  0  0  0
 17 18  1  0  0  0
 17  5  1  0  0  0
 18 19  1  0  0  0
 19 20  1  0  0  0
 19 23  1  0  0  0
 20 21  2  0  0  0
 20 22  1  0  0  0
M  END
>  <CHROM.0>
-174.57487578,-61.67136368,-58.91187916

>  <CHROM.1>
-4.33765138,120.87237687,178.15352710,64.13650418,-173.96929702,153.36843040
-86.25796818,-74.70028501,-17.67035022,33.29138071,2.11173368,-59.52219381
-2.27957578,-0.56928232,-2.52948763

>  <Energy>
35.06884186767618

>  <Genealogy>
CC(=O)N[C@H]1[C@H](O)O[C@H](CO)[C@@H](O)[C@@H]1OC(C)C(=O)[O-] (protonated)
CC(O)=N[C@H]1[C@H](O)O[C@H](CO)[C@@H](O)[C@@H]1OC(C)C(=O)[O-] (tautomer)
CC(O)=N[C@H]1[C@H](O)O[C@H](CO)[C@@H](O)[C@@H]1O[C@@H](C)C(=O)[O-] (chirality)
C/C(O)=N\[C@H]1[C@H](O)O[C@H](CO)[C@@H](O)[C@@H]1O[C@@H](C)C(=O)[O-] (cis-trans isomerization)
C/C(O)=N\[C@H]1[C@H](O)O[C@H](CO)[C@@H](O)[C@@H]1O[C@@H](C)C(=O)[O-] (3D coordinates assigned)
C/C(O)=N\[C@H]1[C@H](O)O[C@H](CO)[C@@H](O)[C@@H]1O[C@@H](C)C(=O)[O-] (nonaromatic ring conformer: 35.06884186767618 kcal/mol)

>  <Name>
45934204

>  <RI>
2.59779e+07

>  <Rbt.Current_Directory>
/home/edward/Documentos/Virtual_Screening/rDock/N-terminal/2

>  <Rbt.Executable>
rbdock ($Id: //depot/dev/client3/rdock/2013.1/src/exe/rbdock.cxx#4 $)

>  <Rbt.Library>
libRbt.so (2013.1, Build901 2013/11/27)

>  <Rbt.Parameter_File>
/home/edward/anaconda3/envs/MD/share/rdock-2013.1-1/data/scripts/dock.prm

>  <Rbt.Receptor>
parameters.prm

>  <SCORE>
-19.3113

>  <SCORE.INTER>
-8.98878

>  <SCORE.INTER.CONST>
1

>  <SCORE.INTER.POLAR>
-2.09881

>  <SCORE.INTER.REPUL>
0.441069

>  <SCORE.INTER.ROT>
5

>  <SCORE.INTER.VDW>
-14.4582

>  <SCORE.INTER.norm>
-0.449439

>  <SCORE.INTRA>
-9.36536

>  <SCORE.INTRA.DIHEDRAL>
-11.8553

>  <SCORE.INTRA.DIHEDRAL.0>
20.1659

>  <SCORE.INTRA.POLAR>
-1.1525

>  <SCORE.INTRA.POLAR.0>
0

>  <SCORE.INTRA.REPUL>
0

>  <SCORE.INTRA.REPUL.0>
0

>  <SCORE.INTRA.VDW>
0.480799

>  <SCORE.INTRA.VDW.0>
-3.11442

>  <SCORE.INTRA.norm>
-0.468268

>  <SCORE.RESTR>
0

>  <SCORE.RESTR.CAVITY>
0

>  <SCORE.RESTR.norm>
0

>  <SCORE.SYSTEM>
-0.957206

>  <SCORE.SYSTEM.CONST>
0

>  <SCORE.SYSTEM.DIHEDRAL>
0.163885

>  <SCORE.SYSTEM.REPUL>
0.0249715

>  <SCORE.SYSTEM.VDW>
-1.16401

>  <SCORE.SYSTEM.norm>
-0.0478603

>  <SCORE.heavy>
20

>  <SCORE.norm>
-0.965567

>  <SMILES>
C/C(O)=N\[C@H]1[C@H](O)O[C@H](CO)[C@@H](O)[C@@H]1O[C@@H](C)C(=O)[O-]

>  <UniqueID>
45

$$$$
45933887
  rDOCK(R)          3D
libRbt.so/2013.1/901 2013/11/27
 19 19  0  0  0  0  0  0  0  0999 V2000
   36.3714    3.6844  -61.7976 N   0  3  0  0  0  0
   35.9687    2.3534  -62.2751 C   0  0  0  0  0  0
   35.2168    2.4591  -63.6223 C   0  0  0  0  0  0
   36.0674    3.0262  -64.5817 O   0  0  0  0  0  0
   34.8261    1.1726  -64.0700 O   0  0  0  0  0  0
   33.8681    0.6074  -63.1919 C   0  0  0  0  0  0
   33.3485   -0.6936  -63.8148 C   0  0  0  0  0  0
   34.3594   -1.6631  -63.7928 O   0  0  0  0  0  0
   34.5071    0.3373  -61.8118 C   0  0  0  0  0  0
   33.5399   -0.1863  -60.9370 O   0  0  0  0  0  0
   35.0706    1.6473  -61.2337 C   0  0  0  0  0  0
   35.8154    1.3535  -60.0782 O   0  0  0  0  0  0
   35.5529    4.1778  -61.3734 H   0  0  0  0  0  0
   37.1315    3.6050  -61.0831 H   0  0  0  0  0  0
   36.7099    4.2656  -62.5977 H   0  0  0  0  0  0
   36.2288    3.9630  -64.2953 H   0  0  0  0  0  0
   35.1466   -1.2507  -64.2345 H   0  0  0  0  0  0
   34.0118   -0.4311  -60.0986 H   0  0  0  0  0  0
   35.1936    0.9370  -59.4261 H   0  0  0  0  0  0
  1  2  1  0  0  0
  1 13  1  0  0  0
  1 14  1  0  0  0
  1 15  1  0  0  0
  2  3  1  0  0  0
  3  4  1  0  0  0
  3  5  1  0  0  0
  4 16  1  0  0  0
  5  6  1  0  0  0
  6  7  1  0  0  0
  6  9  1  0  0  0
  7  8  1  0  0  0
  8 17  1  0  0  0
  9 10  1  0  0  0
  9 11  1  0  0  0
 10 18  1  0  0  0
 11 12  1  0  0  0
 11  2  1  0  0  0
 12 19  1  0  0  0
M  END
>  <CHROM.0>
-71.75144673,-60.61600884,62.88508598

>  <CHROM.1>
78.07180378,-66.66257918,69.82099422,-53.82294222,174.27805880,177.72266873
34.94444256,1.18164177,-62.58201440,0.07789782,1.04673335,1.64520620

>  <Energy>
21.7281730675372

>  <Genealogy>
[NH3+][C@@H]1C(O)O[C@@H](CO)[C@H](O)[C@H]1O (protonated)
[NH3+][C@@H]1[C@@H](O)O[C@@H](CO)[C@H](O)[C@H]1O (chirality)
[NH3+][C@@H]1[C@@H](O)O[C@@H](CO)[C@H](O)[C@H]1O (3D coordinates assigned)
[NH3+][C@@H]1[C@@H](O)O[C@@H](CO)[C@H](O)[C@H]1O (nonaromatic ring conformer: 21.7281730675372 kcal/mol)

>  <Name>
45933887

>  <RI>
2.59779e+07

>  <Rbt.Current_Directory>
/home/edward/Documentos/Virtual_Screening/rDock/N-terminal/2

>  <Rbt.Executable>
rbdock ($Id: //depot/dev/client3/rdock/2013.1/src/exe/rbdock.cxx#4 $)

>  <Rbt.Library>
libRbt.so (2013.1, Build901 2013/11/27)

>  <Rbt.Parameter_File>
/home/edward/anaconda3/envs/MD/share/rdock-2013.1-1/data/scripts/dock.prm

>  <Rbt.Receptor>
parameters.prm

>  <SCORE>
-25.4304

>  <SCORE.INTER>
-24.9528

>  <SCORE.INTER.CONST>
1

>  <SCORE.INTER.POLAR>
-5.74956

>  <SCORE.INTER.REPUL>
0

>  <SCORE.INTER.ROT>
1

>  <SCORE.INTER.VDW>
-11.8043

>  <SCORE.INTER.norm>
-2.0794

>  <SCORE.INTRA>
-0.34324

>  <SCORE.INTRA.DIHEDRAL>
-4.74894

>  <SCORE.INTRA.DIHEDRAL.0>
6.49925

>  <SCORE.INTRA.POLAR>
-0.0174555

>  <SCORE.INTRA.POLAR.0>
0

>  <SCORE.INTRA.REPUL>
0

>  <SCORE.INTRA.REPUL.0>
0

>  <SCORE.INTRA.VDW>
2.09058

>  <SCORE.INTRA.VDW.0>
-1.08456

>  <SCORE.INTRA.norm>
-0.0286033

>  <SCORE.RESTR>
0

>  <SCORE.RESTR.CAVITY>
0

>  <SCORE.RESTR.norm>
0

>  <SCORE.SYSTEM>
-0.134372

>  <SCORE.SYSTEM.CONST>
0

>  <SCORE.SYSTEM.DIHEDRAL>
0.703118

>  <SCORE.SYSTEM.VDW>
-0.485931

>  <SCORE.SYSTEM.norm>
-0.0111977

>  <SCORE.heavy>
12

>  <SCORE.norm>
-2.1192

>  <SMILES>
[NH3+][C@@H]1[C@@H](O)O[C@@H](CO)[C@H](O)[C@H]1O

>  <UniqueID>
47

$$$$
45357367
  rDOCK(R)          3D
libRbt.so/2013.1/901 2013/11/27
 24 24  0  0  0  0  0  0  0  0999 V2000
   36.2882   -2.9707  -64.9761 H   0  0  0  0  0  0
   35.8410   -3.8748  -65.0514 O   0  0  0  0  0  0
   34.5009   -4.0737  -64.7785 N   0  0  0  0  0  0
   33.7497   -3.2117  -64.2049 N   0  3  0  0  0  0
   34.2507   -1.9593  -63.7028 C   0  0  0  0  0  0
   35.2933   -1.9413  -62.9930 O   0  0  0  0  0  0
   33.5344   -0.7421  -63.9619 N   0  0  0  0  0  0
   32.6614   -0.7906  -64.5345 H   0  0  0  0  0  0
   33.8745    0.5312  -63.3192 C   0  0  0  0  0  0
   34.3318    0.2879  -61.8685 C   0  0  0  0  0  0
   33.2754   -0.2910  -61.1517 O   0  0  0  0  0  0
   33.5904   -0.3849  -60.2149 H   0  0  0  0  0  0
   34.6841    1.5160  -61.2533 O   0  0  0  0  0  0
   35.8261    2.0793  -61.8788 C   0  0  0  0  0  0
   36.2815    3.2944  -61.0600 C   0  0  0  0  0  0
   36.6487    2.9031  -59.7652 O   0  0  0  0  0  0
   35.8541    2.4515  -59.3784 H   0  0  0  0  0  0
   35.5062    2.4702  -63.3414 C   0  0  0  0  0  0
   36.6636    2.9695  -63.9619 O   0  0  0  0  0  0
   36.7589    3.9149  -63.6743 H   0  0  0  0  0  0
   35.0009    1.2295  -64.1059 C   0  0  0  0  0  0
   34.5701    1.5765  -65.3991 O   0  0  0  0  0  0
   35.3679    1.8637  -65.9160 H   0  0  0  0  0  0
   32.3234   -3.5063  -64.0895 C   0  0  0  0  0  0
  1  2  1  0  0  0
  2  3  1  0  0  0
  3  4  2  0  0  0
  4  5  1  0  0  0
  4 24  1  0  0  0
  5  6  2  0  0  0
  5  7  1  0  0  0
  7  8  1  0  0  0
  7  9  1  0  0  0
  9 10  1  0  0  0
 10 11  1  0  0  0
 10 13  1  0  0  0
 11 12  1  0  0  0
 13 14  1  0  0  0
 14 15  1  0  0  0
 14 18  1  0  0  0
 15 16  1  0  0  0
 16 17  1  0  0  0
 18 19  1  0  0  0
 18 21  1  0  0  0
 19 20  1  0  0  0
 21 22  1  0  0  0
 21  9  1  0  0  0
 22 23  1  0  0  0
M  END
>  <CHROM.0>
-173.87057938,-177.00706476,-178.78797284

>  <CHROM.1>
-11.84819972,-36.02675252,-176.92182559,61.89705395,-57.25594261,-80.37106039
-169.64058906,34.81162995,-0.02529530,-63.09184115,-2.29771827,1.15329305
1.10154276

>  <Energy>
35.15469687860515

>  <Genealogy>
C[NH+](N=O)C(=O)NC1[C@H](O)O[C@H](CO)[C@@H](O)[C@@H]1O (protonated)
C[N+](=NO)C(=O)NC1[C@H](O)O[C@H](CO)[C@@H](O)[C@@H]1O (tautomer)
C[N+](=NO)C(=O)N[C@H]1[C@H](O)O[C@H](CO)[C@@H](O)[C@@H]1O (chirality)
C/[N+](=N\O)C(=O)N[C@H]1[C@H](O)O[C@H](CO)[C@@H](O)[C@@H]1O (cis-trans isomerization)
C/[N+](=N\O)C(=O)N[C@H]1[C@H](O)O[C@H](CO)[C@@H](O)[C@@H]1O (3D coordinates assigned)
C/[N+](=N\O)C(=O)N[C@H]1[C@H](O)O[C@H](CO)[C@@H](O)[C@@H]1O (nonaromatic ring conformer: 35.15469687860515 kcal/mol)

>  <Name>
45357367

>  <RI>
2.59779e+07

>  <Rbt.Current_Directory>
/home/edward/Documentos/Virtual_Screening/rDock/N-terminal/2

>  <Rbt.Executable>
rbdock ($Id: //depot/dev/client3/rdock/2013.1/src/exe/rbdock.cxx#4 $)

>  <Rbt.Library>
libRbt.so (2013.1, Build901 2013/11/27)

>  <Rbt.Parameter_File>
/home/edward/anaconda3/envs/MD/share/rdock-2013.1-1/data/scripts/dock.prm

>  <Rbt.Receptor>
parameters.prm

>  <SCORE>
-30.9581

>  <SCORE.INTER>
-31.4961

>  <SCORE.INTER.CONST>
1

>  <SCORE.INTER.POLAR>
-6.55965

>  <SCORE.INTER.REPUL>
0

>  <SCORE.INTER.ROT>
2

>  <SCORE.INTER.VDW>
-16.5933

>  <SCORE.INTER.norm>
-1.74979

>  <SCORE.INTRA>
0.96757

>  <SCORE.INTRA.DIHEDRAL>
0.842052

>  <SCORE.INTRA.DIHEDRAL.0>
5.00466

>  <SCORE.INTRA.POLAR>
-0.150798

>  <SCORE.INTRA.POLAR.0>
-0.0104033

>  <SCORE.INTRA.REPUL>
0

>  <SCORE.INTRA.REPUL.0>
0

>  <SCORE.INTRA.VDW>
1.05926

>  <SCORE.INTRA.VDW.0>
-1.68936

>  <SCORE.INTRA.norm>
0.0537539

>  <SCORE.RESTR>
0

>  <SCORE.RESTR.CAVITY>
0

>  <SCORE.RESTR.norm>
0

>  <SCORE.SYSTEM>
-0.429577

>  <SCORE.SYSTEM.CONST>
0

>  <SCORE.SYSTEM.DIHEDRAL>
0.235174

>  <SCORE.SYSTEM.REPUL>
0.0763048

>  <SCORE.SYSTEM.VDW>
-0.928688

>  <SCORE.SYSTEM.norm>
-0.0238654

>  <SCORE.heavy>
18

>  <SCORE.norm>
-1.7199

>  <SMILES>
C/[N+](=N\O)C(=O)N[C@H]1[C@H](O)O[C@H](CO)[C@@H](O)[C@@H]1O

>  <UniqueID>
50

$$$$
45266822
  rDOCK(R)          3D
libRbt.so/2013.1/901 2013/11/27
 29 29  0  0  0  0  0  0  0  0999 V2000
   31.2006   -6.1779  -64.0897 C   0  0  0  0  0  0
   31.6419   -4.7691  -63.8615 C   0  0  0  0  0  0
   32.7974   -4.4150  -64.2212 O   0  0  0  0  0  0
   30.7691   -3.8450  -63.1957 N   0  0  0  0  0  0
   31.1731   -2.4774  -62.8524 C   0  0  0  0  0  0
   32.2759   -2.5042  -61.7687 C   0  0  0  0  0  0
   31.7597   -3.0681  -60.5915 O   0  0  0  0  0  0
   32.7091   -1.1879  -61.4705 O   0  0  0  0  0  0
   33.3518   -0.6064  -62.5928 C   0  0  0  0  0  0
   33.9905    0.7205  -62.1648 C   0  0  0  0  0  0
   34.6542    1.3015  -63.2624 O   0  0  0  0  0  0
   35.6064    2.6105  -62.7136 P   0  0  0  0  0  0
   36.4690    3.0864  -63.8595 O   0  0  0  0  0  0
   36.6189    2.1738  -61.4256 O   0  5  0  0  0  0
   34.5958    3.8958  -62.2288 O   0  0  0  0  0  0
   34.1723    3.6570  -60.9072 C   0  0  0  0  0  0
   33.2829    4.8333  -60.4590 C   0  0  0  0  0  0
   32.7684    4.7525  -59.0568 N   0  3  0  0  0  0
   31.9153    5.9422  -58.8161 C   0  0  0  0  0  0
   31.9403    3.5392  -58.8539 C   0  0  0  0  0  0
   33.8770    4.7685  -58.0717 C   0  0  0  0  0  0
   32.3424   -0.4092  -63.7540 C   0  0  0  0  0  0
   31.3696    0.5635  -63.4507 O   0  0  0  0  0  0
   31.6860   -1.7583  -64.1138 C   0  0  0  0  0  0
   30.6227   -1.5605  -65.0099 O   0  0  0  0  0  0
   29.8583   -4.2031  -62.8279 H   0  0  0  0  0  0
   32.4925   -3.0706  -59.9217 H   0  0  0  0  0  0
   31.8253    1.4380  -63.3465 H   0  0  0  0  0  0
   31.0168   -1.1933  -65.8441 H   0  0  0  0  0  0
  1  2  1  0  0  0
  2  3  2  0  0  0
  2  4  1  0  0  0
  4  5  1  0  0  0
  4 26  1  0  0  0
  5  6  1  0  0  0
  6  7  1  0  0  0
  6  8  1  0  0  0
  7 27  1  0  0  0
  8  9  1  0  0  0
  9 10  1  0  0  0
  9 22  1  0  0  0
 10 11  1  0  0  0
 12 11  1  0  0  0
 12 13  2  0  0  0
 12 14  1  0  0  0
 12 15  1  0  0  0
 15 16  1  0  0  0
 16 17  1  0  0  0
 17 18  1  0  0  0
 18 19  1  0  0  0
 18 20  1  0  0  0
 18 21  1  0  0  0
 22 23  1  0  0  0
 22 24  1  0  0  0
 23 28  1  0  0  0
 24 25  1  0  0  0
 24  5  1  0  0  0
 25 29  1  0  0  0
M  END
>  <CHROM.0>
-174.29397327,-60.63421761,179.06905170

>  <CHROM.1>
-67.17427433,179.89505491,178.97316638,-169.23057491,171.49605050,83.34432259
178.82870568,-178.72519023,-178.71836215,64.14016561,-173.57293595,33.07896289
0.49548079,-62.13716139,1.92988996,-0.66860260,-2.53576089

>  <Energy>
49.19629167051553

>  <Genealogy>
CC(=O)N[C@H]1C(O)O[C@H](COP(=O)([O-])OCC[N+](C)(C)C)[C@H](O)[C@@H]1O (protonated)
CC(=O)N[C@H]1[C@H](O)O[C@H](CO[P@](=O)([O-])OCC[N+](C)(C)C)[C@H](O)[C@@H]1O (chirality)
CC(=O)N[C@H]1[C@H](O)O[C@H](CO[P@](=O)([O-])OCC[N+](C)(C)C)[C@H](O)[C@@H]1O (3D coordinates assigned)
CC(=O)N[C@H]1[C@H](O)O[C@H](CO[P@](=O)([O-])OCC[N+](C)(C)C)[C@H](O)[C@@H]1O (nonaromatic ring conformer: 49.19629167051553 kcal/mol)

>  <Name>
45266822

>  <RI>
2.59779e+07

>  <Rbt.Current_Directory>
/home/edward/Documentos/Virtual_Screening/rDock/N-terminal/2

>  <Rbt.Executable>
rbdock ($Id: //depot/dev/client3/rdock/2013.1/src/exe/rbdock.cxx#4 $)

>  <Rbt.Library>
libRbt.so (2013.1, Build901 2013/11/27)

>  <Rbt.Parameter_File>
/home/edward/anaconda3/envs/MD/share/rdock-2013.1-1/data/scripts/dock.prm

>  <Rbt.Receptor>
parameters.prm

>  <SCORE>
-17.3677

>  <SCORE.INTER>
-15.2508

>  <SCORE.INTER.CONST>
1

>  <SCORE.INTER.POLAR>
-2.91212

>  <SCORE.INTER.REPUL>
0.0656781

>  <SCORE.INTER.ROT>
8

>  <SCORE.INTER.VDW>
-19.0779

>  <SCORE.INTER.norm>
-0.61003

>  <SCORE.INTRA>
-1.08936

>  <SCORE.INTRA.DIHEDRAL>
-4.18926

>  <SCORE.INTRA.DIHEDRAL.0>
6.99961

>  <SCORE.INTRA.POLAR>
0

>  <SCORE.INTRA.POLAR.0>
0

>  <SCORE.INTRA.REPUL>
0

>  <SCORE.INTRA.REPUL.0>
0

>  <SCORE.INTRA.VDW>
1.00527

>  <SCORE.INTRA.VDW.0>
-1.05697

>  <SCORE.INTRA.norm>
-0.0435744

>  <SCORE.RESTR>
0

>  <SCORE.RESTR.CAVITY>
0

>  <SCORE.RESTR.norm>
0

>  <SCORE.SYSTEM>
-1.02759

>  <SCORE.SYSTEM.CONST>
0

>  <SCORE.SYSTEM.DIHEDRAL>
0.16574

>  <SCORE.SYSTEM.REPUL>
0.0241788

>  <SCORE.SYSTEM.VDW>
-1.23136

>  <SCORE.SYSTEM.norm>
-0.0411037

>  <SCORE.heavy>
25

>  <SCORE.norm>
-0.694709

>  <SMILES>
CC(=O)N[C@H]1[C@H](O)O[C@H](CO[P@](=O)([O-])OCC[N+](C)(C)C)[C@H](O)[C@@H]1O

>  <UniqueID>
51

$$$$
45266741
  rDOCK(R)          3D
libRbt.so/2013.1/901 2013/11/27
 19 19  0  0  0  0  0  0  0  0999 V2000
   33.9234   -0.8654  -63.6719 N   0  3  0  0  0  0
   34.1945    0.4680  -63.1153 C   0  0  0  0  0  0
   34.7576    0.3598  -61.6800 C   0  0  0  0  0  0
   33.8099   -0.2685  -60.8598 O   0  0  0  0  0  0
   35.0215    1.6510  -61.1585 O   0  0  0  0  0  0
   36.0661    2.2805  -61.8805 C   0  0  0  0  0  0
   36.4285    3.5820  -61.1452 C   0  0  0  0  0  0
   37.1212    3.3188  -59.9544 O   0  0  0  0  0  0
   35.6107    2.5559  -63.3345 C   0  0  0  0  0  0
   36.6605    3.1284  -64.0742 O   0  0  0  0  0  0
   35.1928    1.2361  -64.0072 C   0  0  0  0  0  0
   34.5958    1.5061  -65.2501 O   0  0  0  0  0  0
   34.8103   -1.2946  -64.0222 H   0  0  0  0  0  0
   33.5042   -1.4902  -62.9449 H   0  0  0  0  0  0
   33.2645   -0.7898  -64.4801 H   0  0  0  0  0  0
   34.2040   -0.3007  -59.9493 H   0  0  0  0  0  0
   37.9811    2.8949  -60.2126 H   0  0  0  0  0  0
   36.7465    4.0730  -63.7812 H   0  0  0  0  0  0
   35.2832    1.9526  -65.8100 H   0  0  0  0  0  0
  1  2  1  0  0  0
  1 13  1  0  0  0
  1 14  1  0  0  0
  1 15  1  0  0  0
  2  3  1  0  0  0
  3  4  1  0  0  0
  3  5  1  0  0  0
  4 16  1  0  0  0
  5  6  1  0  0  0
  6  7  1  0  0  0
  6  9  1  0  0  0
  7  8  1  0  0  0
  8 17  1  0  0  0
  9 10  1  0  0  0
  9 11  1  0  0  0
 10 18  1  0  0  0
 11 12  1  0  0  0
 11  2  1  0  0  0
 12 19  1  0  0  0
M  END
>  <CHROM.0>
-177.46388566,-59.15567228,-61.51344793

>  <CHROM.1>
-80.27194984,-178.92897791,72.75155118,64.37762018,-74.69984081,-176.85114409
35.28745988,1.56736730,-62.50915183,2.66307201,-0.93590273,-1.46521460

>  <Energy>
22.933556962543324

>  <Genealogy>
[NH3+][C@H]1[C@H](O)O[C@H](CO)[C@@H](O)[C@@H]1O (chirality)
[NH3+][C@H]1[C@H](O)O[C@H](CO)[C@@H](O)[C@@H]1O (3D coordinates assigned)
[NH3+][C@H]1[C@H](O)O[C@H](CO)[C@@H](O)[C@@H]1O (nonaromatic ring conformer: 22.933556962543324 kcal/mol)

>  <Name>
45266741

>  <RI>
2.59779e+07

>  <Rbt.Current_Directory>
/home/edward/Documentos/Virtual_Screening/rDock/N-terminal/2

>  <Rbt.Executable>
rbdock ($Id: //depot/dev/client3/rdock/2013.1/src/exe/rbdock.cxx#4 $)

>  <Rbt.Library>
libRbt.so (2013.1, Build901 2013/11/27)

>  <Rbt.Parameter_File>
/home/edward/anaconda3/envs/MD/share/rdock-2013.1-1/data/scripts/dock.prm

>  <Rbt.Receptor>
parameters.prm

>  <SCORE>
-32.8571

>  <SCORE.INTER>
-28.9962

>  <SCORE.INTER.CONST>
1

>  <SCORE.INTER.POLAR>
-6.29288

>  <SCORE.INTER.REPUL>
0

>  <SCORE.INTER.ROT>
1

>  <SCORE.INTER.VDW>
-14.0004

>  <SCORE.INTER.norm>
-2.41635

>  <SCORE.INTRA>
-2.87208

>  <SCORE.INTRA.DIHEDRAL>
-6.56352

>  <SCORE.INTRA.DIHEDRAL.0>
9.16861

>  <SCORE.INTRA.POLAR>
-0.014187

>  <SCORE.INTRA.POLAR.0>
0

>  <SCORE.INTRA.REPUL>
0

>  <SCORE.INTRA.REPUL.0>
0

>  <SCORE.INTRA.VDW>
0.457916

>  <SCORE.INTRA.VDW.0>
-1.02208

>  <SCORE.INTRA.norm>
-0.23934

>  <SCORE.RESTR>
0

>  <SCORE.RESTR.CAVITY>
0

>  <SCORE.RESTR.norm>
0

>  <SCORE.SYSTEM>
-0.988804

>  <SCORE.SYSTEM.CONST>
0

>  <SCORE.SYSTEM.DIHEDRAL>
0.0465082

>  <SCORE.SYSTEM.REPUL>
0.0330363

>  <SCORE.SYSTEM.VDW>
-1.17724

>  <SCORE.SYSTEM.norm>
-0.0824004

>  <SCORE.heavy>
12

>  <SCORE.norm>
-2.73809

>  <SMILES>
[NH3+][C@H]1[C@H](O)O[C@H](CO)[C@@H](O)[C@@H]1O

>  <UniqueID>
54

$$$$
44630437
  rDOCK(R)          3D
libRbt.so/2013.1/901 2013/11/27
 21 21  0  0  0  0  0  0  0  0999 V2000
   33.2090   -3.6090  -65.4679 C   0  0  0  0  0  0
   32.7580   -3.3146  -64.0417 C   0  0  0  0  0  0
   32.6365   -1.8364  -63.8283 C   0  0  0  0  0  0
   31.5246   -1.3486  -63.4852 O   0  0  0  0  0  0
   33.7909   -0.9951  -63.9617 N   0  0  0  0  0  0
   33.8048    0.3988  -63.5067 C   0  0  0  0  0  0
   33.8581    0.4558  -61.9577 C   0  0  0  0  0  0
   34.8159   -0.4061  -61.3848 O   0  0  0  0  0  0
   33.9967    1.7806  -61.4689 O   0  0  0  0  0  0
   35.1619    2.4189  -61.9684 C   0  0  0  0  0  0
   35.2849    3.7900  -61.2894 C   0  0  0  0  0  0
   34.1063    4.5293  -61.4582 O   0  0  0  0  0  0
   35.1043    2.5555  -63.5081 C   0  0  0  0  0  0
   36.2753    3.1808  -63.9706 O   0  0  0  0  0  0
   34.9778    1.1619  -64.1463 C   0  0  0  0  0  0
   34.7412    1.2874  -65.5266 O   0  0  0  0  0  0
   34.6978   -1.4417  -64.2326 H   0  0  0  0  0  0
   34.6318   -0.4947  -60.4166 H   0  0  0  0  0  0
   34.3749    5.4831  -61.4554 H   0  0  0  0  0  0
   36.2364    4.1257  -63.6690 H   0  0  0  0  0  0
   35.4570    1.8706  -65.8918 H   0  0  0  0  0  0
  1  2  1  0  0  0
  2  3  1  0  0  0
  3  4  2  0  0  0
  3  5  1  0  0  0
  5  6  1  0  0  0
  5 17  1  0  0  0
  6  7  1  0  0  0
  7  8  1  0  0  0
  7  9  1  0  0  0
  8 18  1  0  0  0
  9 10  1  0  0  0
 10 11  1  0  0  0
 10 13  1  0  0  0
 11 12  1  0  0  0
 12 19  1  0  0  0
 13 14  1  0  0  0
 13 15  1  0  0  0
 14 20  1  0  0  0
 15 16  1  0  0  0
 15  6  1  0  0  0
 16 21  1  0  0  0
M  END
>  <CHROM.0>
-176.13415667,-59.06941656,179.29045875

>  <CHROM.1>
120.86406765,73.21718853,-165.18644531,-54.23890178,-150.78198574,-69.56971916
173.60458331,34.15323460,0.68617747,-63.17707744,-2.24933828,1.01769789,0.94221053

>  <Energy>
28.04225041368164

>  <Genealogy>
CCC(=O)N[C@H]1[C@@H](O)O[C@H](CO)[C@@H](O)[C@@H]1O (chirality)
CCC(=O)N[C@H]1[C@@H](O)O[C@H](CO)[C@@H](O)[C@@H]1O (3D coordinates assigned)
CCC(=O)N[C@H]1[C@@H](O)O[C@H](CO)[C@@H](O)[C@@H]1O (nonaromatic ring conformer: 28.04225041368164 kcal/mol)

>  <Name>
44630437

>  <RI>
2.59779e+07

>  <Rbt.Current_Directory>
/home/edward/Documentos/Virtual_Screening/rDock/N-terminal/2

>  <Rbt.Executable>
rbdock ($Id: //depot/dev/client3/rdock/2013.1/src/exe/rbdock.cxx#4 $)

>  <Rbt.Library>
libRbt.so (2013.1, Build901 2013/11/27)

>  <Rbt.Parameter_File>
/home/edward/anaconda3/envs/MD/share/rdock-2013.1-1/data/scripts/dock.prm

>  <Rbt.Receptor>
parameters.prm

>  <SCORE>
-27.7549

>  <SCORE.INTER>
-26.2673

>  <SCORE.INTER.CONST>
1

>  <SCORE.INTER.POLAR>
-5.97802

>  <SCORE.INTER.REPUL>
0.000711008

>  <SCORE.INTER.ROT>
3

>  <SCORE.INTER.VDW>
-14.3456

>  <SCORE.INTER.norm>
-1.64171

>  <SCORE.INTRA>
-0.451253

>  <SCORE.INTRA.DIHEDRAL>
-2.37713

>  <SCORE.INTRA.DIHEDRAL.0>
9.81054

>  <SCORE.INTRA.POLAR>
-0.00648141

>  <SCORE.INTRA.POLAR.0>
0

>  <SCORE.INTRA.REPUL>
0

>  <SCORE.INTRA.REPUL.0>
0

>  <SCORE.INTRA.VDW>
0.759347

>  <SCORE.INTRA.VDW.0>
-2.01839

>  <SCORE.INTRA.norm>
-0.0282033

>  <SCORE.RESTR>
0

>  <SCORE.RESTR.CAVITY>
0

>  <SCORE.RESTR.norm>
0

>  <SCORE.SYSTEM>
-1.03628

>  <SCORE.SYSTEM.CONST>
0

>  <SCORE.SYSTEM.DIHEDRAL>
0.0802547

>  <SCORE.SYSTEM.REPUL>
0.0293448

>  <SCORE.SYSTEM.VDW>
-1.22313

>  <SCORE.SYSTEM.norm>
-0.0647674

>  <SCORE.heavy>
16

>  <SCORE.norm>
-1.73468

>  <SMILES>
CCC(=O)N[C@H]1[C@@H](O)O[C@H](CO)[C@@H](O)[C@@H]1O

>  <UniqueID>
55

$$$$
44341508
  rDOCK(R)          3D
libRbt.so/2013.1/901 2013/11/27
 31 33  0  0  0  0  0  0  0  0999 V2000
   30.2491    3.2764  -59.2507 H   0  0  0  0  0  0
   31.1670    3.4110  -59.6575 O   0  0  0  0  0  0
   32.1603    2.4398  -59.5589 C   0  0  0  0  0  0
   33.3116    2.6790  -60.1189 N   0  0  0  0  0  0
   34.4860    1.7980  -60.1673 C   0  0  0  0  0  0
   34.3092    0.7282  -61.2710 C   0  0  0  0  0  0
   35.3902   -0.2150  -61.2696 O   0  0  0  0  0  0
   35.5771   -1.2664  -62.1817 C   0  0  0  0  0  0
   36.8210   -1.9076  -62.1963 C   0  0  0  0  0  0
   37.0703   -2.9649  -63.0747 C   0  0  0  0  0  0
   36.0725   -3.3957  -63.9597 C   0  0  0  0  0  0
   36.3106   -4.4581  -64.8448 C   0  0  0  0  0  0
   35.3135   -4.8863  -65.7295 C   0  0  0  0  0  0
   35.6044   -5.9533  -66.5928 O   0  0  0  0  0  0
   34.6376   -6.8738  -67.0879 C   0  0  0  0  0  0
   34.0628   -4.2394  -65.7255 C   0  0  0  0  0  0
   33.8169   -3.1801  -64.8478 C   0  0  0  0  0  0
   34.8145   -2.7508  -63.9608 C   0  0  0  0  0  0
   34.5753   -1.6881  -63.0761 C   0  0  0  0  0  0
   34.1970    1.3429  -62.5454 O   0  0  0  0  0  0
   35.3819    2.0426  -62.9014 C   0  0  0  0  0  0
   35.2245    2.5648  -64.3389 C   0  0  0  0  0  0
   34.9925    1.5144  -65.2398 O   0  0  0  0  0  0
   35.0384    1.9039  -66.1517 H   0  0  0  0  0  0
   35.6731    3.1942  -61.9063 C   0  0  0  0  0  0
   36.9035    3.8009  -62.2132 O   0  0  0  0  0  0
   36.7741    4.3193  -63.0498 H   0  0  0  0  0  0
   35.7389    2.6389  -60.4755 C   0  0  0  0  0  0
   35.8507    3.7029  -59.5652 O   0  0  0  0  0  0
   35.9739    3.2987  -58.6667 H   0  0  0  0  0  0
   31.8647    1.1597  -58.8263 C   0  0  0  0  0  0
  1  2  1  0  0  0
  2  3  1  0  0  0
  3  4  2  0  0  0
  3 31  1  0  0  0
  4  5  1  0  0  0
  5  6  1  0  0  0
  6  7  1  0  0  0
  6 20  1  0  0  0
  7  8  1  0  0  0
  8  9  2  0  0  0
  9 10  1  0  0  0
 10 11  2  0  0  0
 11 12  1  0  0  0
 12 13  2  0  0  0
 13 14  1  0  0  0
 13 16  1  0  0  0
 14 15  1  0  0  0
 16 17  2  0  0  0
 17 18  1  0  0  0
 18 19  2  0  0  0
 18 11  1  0  0  0
 19  8  1  0  0  0
 20 21  1  0  0  0
 21 22  1  0  0  0
 21 25  1  0  0  0
 22 23  1  0  0  0
 23 24  1  0  0  0
 25 26  1  0  0  0
 25 28  1  0  0  0
 26 27  1  0  0  0
 28 29  1  0  0  0
 28  5  1  0  0  0
 29 30  1  0  0  0
M  END
>  <CHROM.0>
-177.92000232,62.83928445,67.11078592

>  <CHROM.1>
179.33062827,79.66563356,-176.37706694,166.95340047,150.65386330,-58.62440536
-171.65086711,71.84187444,63.33588186,34.84133011,-0.26733946,-62.68607115
1.73286380,0.63591869,0.48945303

>  <Energy>
54.86279735570546

>  <Genealogy>
COc1ccc2cc(OC3OC(CO)C(O)C(O)C3N=C(C)O)ccc2c1 (tautomer)
COc1ccc2cc(O[C@@H]3O[C@@H](CO)[C@H](O)[C@@H](O)[C@H]3N=C(C)O)ccc2c1 (chirality)
COc1ccc2cc(O[C@@H]3O[C@@H](CO)[C@H](O)[C@@H](O)[C@H]3/N=C(\C)O)ccc2c1 (cis-trans isomerization)
COc1ccc2cc(O[C@@H]3O[C@@H](CO)[C@H](O)[C@@H](O)[C@H]3/N=C(\C)O)ccc2c1 (3D coordinates assigned)
COc1ccc2cc(O[C@@H]3O[C@@H](CO)[C@H](O)[C@@H](O)[C@H]3/N=C(\C)O)ccc2c1 (nonaromatic ring conformer: 54.86279735570546 kcal/mol)

>  <Name>
44341508

>  <RI>
2.59779e+07

>  <Rbt.Current_Directory>
/home/edward/Documentos/Virtual_Screening/rDock/N-terminal/2

>  <Rbt.Executable>
rbdock ($Id: //depot/dev/client3/rdock/2013.1/src/exe/rbdock.cxx#4 $)

>  <Rbt.Library>
libRbt.so (2013.1, Build901 2013/11/27)

>  <Rbt.Parameter_File>
/home/edward/anaconda3/envs/MD/share/rdock-2013.1-1/data/scripts/dock.prm

>  <Rbt.Receptor>
parameters.prm

>  <SCORE>
-22.3234

>  <SCORE.INTER>
-19.6028

>  <SCORE.INTER.CONST>
1

>  <SCORE.INTER.POLAR>
-2.00515

>  <SCORE.INTER.REPUL>
0.352786

>  <SCORE.INTER.ROT>
5

>  <SCORE.INTER.VDW>
-24.9492

>  <SCORE.INTER.norm>
-0.726028

>  <SCORE.INTRA>
-2.47797

>  <SCORE.INTRA.DIHEDRAL>
-4.5094

>  <SCORE.INTRA.DIHEDRAL.0>
8.9163

>  <SCORE.INTRA.POLAR>
0

>  <SCORE.INTRA.POLAR.0>
0

>  <SCORE.INTRA.REPUL>
0

>  <SCORE.INTRA.REPUL.0>
0

>  <SCORE.INTRA.VDW>
-0.223267

>  <SCORE.INTRA.VDW.0>
-1.42168

>  <SCORE.INTRA.norm>
-0.0917766

>  <SCORE.RESTR>
0

>  <SCORE.RESTR.CAVITY>
0

>  <SCORE.RESTR.norm>
0

>  <SCORE.SYSTEM>
-0.242686

>  <SCORE.SYSTEM.CONST>
0

>  <SCORE.SYSTEM.DIHEDRAL>
0.307688

>  <SCORE.SYSTEM.REPUL>
0.174402

>  <SCORE.SYSTEM.VDW>
-1.26854

>  <SCORE.SYSTEM.norm>
-0.00898835

>  <SCORE.heavy>
27

>  <SCORE.norm>
-0.826793

>  <SMILES>
COc1ccc2cc(O[C@@H]3O[C@@H](CO)[C@H](O)[C@@H](O)[C@H]3/N=C(\C)O)ccc2c1

>  <UniqueID>
58

$$$$
44229083
  rDOCK(R)          3D
libRbt.so/2013.1/901 2013/11/27
 23 23  0  0  0  0  0  0  0  0999 V2000
   30.7479    8.8911  -56.3755 H   0  0  0  0  0  0
   31.4901    8.3893  -56.8480 O   0  0  0  0  0  0
   32.7644    8.9405  -56.9784 C   0  0  0  0  0  0
   33.7155    8.2826  -57.5715 N   0  0  0  0  0  0
   33.5723    6.9401  -58.1411 C   0  0  0  0  0  0
   34.2523    6.9038  -59.5275 C   0  0  0  0  0  0
   33.5858    7.7811  -60.3973 O   0  0  0  0  0  0
   33.9927    7.6690  -61.2962 H   0  0  0  0  0  0
   34.1814    5.6014  -60.0815 O   0  0  0  0  0  0
   34.9504    4.6901  -59.3154 C   0  0  0  0  0  0
   35.0242    3.3539  -60.0655 C   0  0  0  0  0  0
   35.5473    3.5633  -61.3570 O   0  0  0  0  0  0
   35.5537    2.0725  -62.1848 P   0  0  0  0  0  0
   36.4324    1.0800  -61.4569 O   0  0  0  0  0  0
   36.1675    2.3131  -63.7417 O   0  5  0  0  0  0
   33.9821    1.4563  -62.3030 O   0  5  0  0  0  0
   34.3388    4.5228  -57.9007 C   0  0  0  0  0  0
   33.0922    3.8675  -57.9389 O   0  0  0  0  0  0
   32.8393    3.6291  -57.0101 H   0  0  0  0  0  0
   34.2261    5.8980  -57.2084 C   0  0  0  0  0  0
   33.4830    5.7820  -56.0227 O   0  0  0  0  0  0
   33.9300    5.0878  -55.4712 H   0  0  0  0  0  0
   33.0484   10.2944  -56.4126 C   0  0  0  0  0  0
  1  2  1  0  0  0
  2  3  1  0  0  0
  3  4  2  0  0  0
  3 23  1  0  0  0
  4  5  1  0  0  0
  5  6  1  0  0  0
  6  7  1  0  0  0
  6  9  1  0  0  0
  7  8  1  0  0  0
  9 10  1  0  0  0
 10 11  1  0  0  0
 10 17  1  0  0  0
 11 12  1  0  0  0
 12 13  1  0  0  0
 13 14  2  0  0  0
 13 15  1  0  0  0
 13 16  1  0  0  0
 17 18  1  0  0  0
 17 20  1  0  0  0
 18 19  1  0  0  0
 20 21  1  0  0  0
 20  5  1  0  0  0
 21 22  1  0  0  0
M  END
>  <CHROM.0>
-176.83803245,-60.50582985,61.17607564

>  <CHROM.1>
179.13036739,135.84543369,-174.77429244,56.05493407,-177.62900314,-61.05971914
168.86322468,178.62789840,34.24621963,5.11128843,-59.44458838,2.85393815
1.24467910,-0.58280459

>  <Energy>
27.786460812432253

>  <Genealogy>
CC(O)=N[C@H]1C(O)O[C@H](COP(=O)([O-])[O-])[C@H](O)[C@@H]1O (tautomer)
CC(O)=N[C@H]1[C@H](O)O[C@H](COP(=O)([O-])[O-])[C@H](O)[C@@H]1O (chirality)
C/C(O)=N/[C@H]1[C@H](O)O[C@H](COP(=O)([O-])[O-])[C@H](O)[C@@H]1O (cis-trans isomerization)
C/C(O)=N/[C@H]1[C@H](O)O[C@H](COP(=O)([O-])[O-])[C@H](O)[C@@H]1O (3D coordinates assigned)
C/C(O)=N/[C@H]1[C@H](O)O[C@H](COP(=O)([O-])[O-])[C@H](O)[C@@H]1O (nonaromatic ring conformer: 27.786460812432253 kcal/mol)

>  <Name>
44229083

>  <RI>
2.59779e+07

>  <Rbt.Current_Directory>
/home/edward/Documentos/Virtual_Screening/rDock/N-terminal/2

>  <Rbt.Executable>
rbdock ($Id: //depot/dev/client3/rdock/2013.1/src/exe/rbdock.cxx#4 $)

>  <Rbt.Library>
libRbt.so (2013.1, Build901 2013/11/27)

>  <Rbt.Parameter_File>
/home/edward/anaconda3/envs/MD/share/rdock-2013.1-1/data/scripts/dock.prm

>  <Rbt.Receptor>
parameters.prm

>  <SCORE>
-21.3261

>  <SCORE.INTER>
-18.4335

>  <SCORE.INTER.CONST>
1

>  <SCORE.INTER.POLAR>
-4.17778

>  <SCORE.INTER.REPUL>
0

>  <SCORE.INTER.ROT>
4

>  <SCORE.INTER.VDW>
-13.6291

>  <SCORE.INTER.norm>
-0.970185

>  <SCORE.INTRA>
-1.76309

>  <SCORE.INTRA.DIHEDRAL>
-3.7986

>  <SCORE.INTRA.DIHEDRAL.0>
5.08942

>  <SCORE.INTRA.POLAR>
0

>  <SCORE.INTRA.POLAR.0>
0

>  <SCORE.INTRA.REPUL>
0

>  <SCORE.INTRA.REPUL.0>
0

>  <SCORE.INTRA.VDW>
0.136215

>  <SCORE.INTRA.VDW.0>
-1.81046

>  <SCORE.INTRA.norm>
-0.092794

>  <SCORE.RESTR>
0

>  <SCORE.RESTR.CAVITY>
0

>  <SCORE.RESTR.norm>
0

>  <SCORE.SYSTEM>
-1.12946

>  <SCORE.SYSTEM.CONST>
0

>  <SCORE.SYSTEM.DIHEDRAL>
0.0573117

>  <SCORE.SYSTEM.REPUL>
0.0313034

>  <SCORE.SYSTEM.VDW>
-1.31464

>  <SCORE.SYSTEM.norm>
-0.0594455

>  <SCORE.heavy>
19

>  <SCORE.norm>
-1.12242

>  <SMILES>
C/C(O)=N/[C@H]1[C@H](O)O[C@H](COP(=O)([O-])[O-])[C@H](O)[C@@H]1O

>  <UniqueID>
59

$$$$
44119773
  rDOCK(R)          3D
libRbt.so/2013.1/901 2013/11/27
 20 20  0  0  0  0  0  0  0  0999 V2000
   34.5278    5.7144  -60.6176 H   0  0  0  0  0  0
   34.5547    5.8857  -59.6196 O   0  0  0  0  0  0
   34.7411    4.8424  -58.7131 C   0  0  0  0  0  0
   34.7461    3.6071  -59.1162 N   0  0  0  0  0  0
   34.5648    3.1911  -60.5092 C   0  0  0  0  0  0
   34.4780    1.6520  -60.5858 C   0  0  0  0  0  0
   33.3632    1.2094  -59.8564 O   0  0  0  0  0  0
   33.5552    0.2805  -59.5625 H   0  0  0  0  0  0
   34.3127    1.2391  -61.9305 O   0  0  0  0  0  0
   35.4599    1.5568  -62.7022 C   0  0  0  0  0  0
   35.2933    0.9386  -64.0984 C   0  0  0  0  0  0
   35.9864    1.6963  -65.0539 O   0  0  0  0  0  0
   35.7555    1.3186  -65.9426 H   0  0  0  0  0  0
   35.6286    3.0930  -62.7940 C   0  0  0  0  0  0
   36.7840    3.4215  -63.5254 O   0  0  0  0  0  0
   36.8587    4.4114  -63.5291 H   0  0  0  0  0  0
   35.7333    3.6937  -61.3802 C   0  0  0  0  0  0
   36.9563    3.3330  -60.7841 O   0  0  0  0  0  0
   37.6780    3.7406  -61.3306 H   0  0  0  0  0  0
   34.9635    5.1457  -57.2666 C   0  0  0  0  0  0
  1  2  1  0  0  0
  2  3  1  0  0  0
  3  4  2  0  0  0
  3 20  1  0  0  0
  4  5  1  0  0  0
  5  6  1  0  0  0
  6  7  1  0  0  0
  6  9  1  0  0  0
  7  8  1  0  0  0
  9 10  1  0  0  0
 10 11  1  0  0  0
 10 14  1  0  0  0
 11 12  1  0  0  0
 12 13  1  0  0  0
 14 15  1  0  0  0
 14 17  1  0  0  0
 15 16  1  0  0  0
 17 18  1  0  0  0
 17  5  1  0  0  0
 18 19  1  0  0  0
M  END
>  <CHROM.0>
-175.55268115,-58.84525094,63.87502462

>  <CHROM.1>
-7.20107253,-173.94927176,-153.88406436,151.42684763,-173.30684444,-178.27768103
-175.20308890,35.19382142,2.96110365,-61.24641027,-1.83924146,-0.91515358
-2.28941691

>  <Energy>
24.70408582433976

>  <Genealogy>
CC(O)=N[C@@H]1[C@@H](O)OC(CO)[C@H](O)[C@@H]1O (tautomer)
CC(O)=N[C@@H]1[C@@H](O)O[C@@H](CO)[C@H](O)[C@@H]1O (chirality)
C/C(O)=N/[C@@H]1[C@@H](O)O[C@@H](CO)[C@H](O)[C@@H]1O (cis-trans isomerization)
C/C(O)=N/[C@@H]1[C@@H](O)O[C@@H](CO)[C@H](O)[C@@H]1O (3D coordinates assigned)
C/C(O)=N/[C@@H]1[C@@H](O)O[C@@H](CO)[C@H](O)[C@@H]1O (nonaromatic ring conformer: 24.70408582433976 kcal/mol)

>  <Name>
44119773

>  <RI>
2.59779e+07

>  <Rbt.Current_Directory>
/home/edward/Documentos/Virtual_Screening/rDock/N-terminal/2

>  <Rbt.Executable>
rbdock ($Id: //depot/dev/client3/rdock/2013.1/src/exe/rbdock.cxx#4 $)

>  <Rbt.Library>
libRbt.so (2013.1, Build901 2013/11/27)

>  <Rbt.Parameter_File>
/home/edward/anaconda3/envs/MD/share/rdock-2013.1-1/data/scripts/dock.prm

>  <Rbt.Receptor>
parameters.prm

>  <SCORE>
-26.8841

>  <SCORE.INTER>
-25.2004

>  <SCORE.INTER.CONST>
1

>  <SCORE.INTER.POLAR>
-5.50222

>  <SCORE.INTER.REPUL>
0.179707

>  <SCORE.INTER.ROT>
2

>  <SCORE.INTER.VDW>
-14.7914

>  <SCORE.INTER.norm>
-1.68003

>  <SCORE.INTRA>
-0.582925

>  <SCORE.INTRA.DIHEDRAL>
-5.24222

>  <SCORE.INTRA.DIHEDRAL.0>
13.674

>  <SCORE.INTRA.POLAR>
0

>  <SCORE.INTRA.POLAR.0>
0

>  <SCORE.INTRA.REPUL>
0

>  <SCORE.INTRA.REPUL.0>
0

>  <SCORE.INTRA.VDW>
2.03818

>  <SCORE.INTRA.VDW.0>
-1.43609

>  <SCORE.INTRA.norm>
-0.0388617

>  <SCORE.RESTR>
0

>  <SCORE.RESTR.CAVITY>
0

>  <SCORE.RESTR.norm>
0

>  <SCORE.SYSTEM>
-1.10077

>  <SCORE.SYSTEM.CONST>
0

>  <SCORE.SYSTEM.DIHEDRAL>
0.177588

>  <SCORE.SYSTEM.REPUL>
0.0277194

>  <SCORE.SYSTEM.VDW>
-1.32816

>  <SCORE.SYSTEM.norm>
-0.0733846

>  <SCORE.heavy>
15

>  <SCORE.norm>
-1.79227

>  <SMILES>
C/C(O)=N/[C@@H]1[C@@H](O)O[C@@H](CO)[C@H](O)[C@@H]1O

>  <UniqueID>
61

$$$$
42612215
  rDOCK(R)          3D
libRbt.so/2013.1/901 2013/11/27
 24 24  0  0  0  0  0  0  0  0999 V2000
   31.5994   -2.6637  -63.2523 H   0  0  0  0  0  0
   32.2888   -1.9216  -63.2907 O   0  0  0  0  0  0
   31.9280   -0.5773  -63.4036 C   0  0  0  0  0  0
   30.6316   -0.2478  -63.4783 C   0  0  0  0  0  0
   30.2140    1.1132  -63.5912 N   0  0  0  0  0  0
   29.0209    1.3955  -63.6978 N   0  3  0  0  0  0
   27.8286    1.6783  -63.8043 N   0  5  0  0  0  0
   32.9545    0.4310  -63.4389 N   0  0  0  0  0  0
   32.6907    1.4296  -63.6002 H   0  0  0  0  0  0
   34.3841    0.0935  -63.4033 C   0  0  0  0  0  0
   34.9058    0.1132  -61.9542 C   0  0  0  0  0  0
   34.1286   -0.7553  -61.1750 O   0  0  0  0  0  0
   34.4921   -0.7056  -60.2525 H   0  0  0  0  0  0
   34.8228    1.4219  -61.4151 O   0  0  0  0  0  0
   35.7054    2.3007  -62.0942 C   0  0  0  0  0  0
   35.6923    3.6455  -61.3540 C   0  0  0  0  0  0
   34.4132    4.2161  -61.3947 O   0  0  0  0  0  0
   34.5506    5.1986  -61.4212 H   0  0  0  0  0  0
   35.2713    2.4660  -63.5731 C   0  0  0  0  0  0
   36.1964    3.2758  -64.2531 O   0  0  0  0  0  0
   36.1574    4.1744  -63.8328 H   0  0  0  0  0  0
   35.2016    1.0863  -64.2547 C   0  0  0  0  0  0
   34.6384    1.2197  -65.5344 O   0  0  0  0  0  0
   35.2019    1.8713  -66.0280 H   0  0  0  0  0  0
  1  2  1  0  0  0
  2  3  1  0  0  0
  3  4  2  0  0  0
  3  8  1  0  0  0
  4  5  1  0  0  0
  5  6  2  0  0  0
  6  7  2  0  0  0
  8  9  1  0  0  0
  8 10  1  0  0  0
 10 11  1  0  0  0
 11 12  1  0  0  0
 11 14  1  0  0  0
 12 13  1  0  0  0
 14 15  1  0  0  0
 15 16  1  0  0  0
 15 19  1  0  0  0
 16 17  1  0  0  0
 17 18  1  0  0  0
 19 20  1  0  0  0
 19 22  1  0  0  0
 20 21  1  0  0  0
 22 23  1  0  0  0
 22 10  1  0  0  0
 23 24  1  0  0  0
M  END
>  <CHROM.0>
-176.19795158,-176.24893923,-179.29504205

>  <CHROM.1>
-0.71064894,177.88265834,-92.99350719,-179.50272353,-62.66995353,-147.15460324
-63.97782901,179.63249636,33.40067178,1.19452154,-63.04764226,-2.78257798
-0.16234338,0.02185230

>  <Energy>
25.297540234277573

>  <Genealogy>
[N-]=[N+]=NC=C(O)N[C@@H]1C(O)O[C@H](CO)[C@@H](O)[C@@H]1O (tautomer)
[N-]=[N+]=NC=C(O)N[C@@H]1[C@H](O)O[C@H](CO)[C@@H](O)[C@@H]1O (chirality)
[N-]=[N+]=N/C=C(/O)N[C@@H]1[C@H](O)O[C@H](CO)[C@@H](O)[C@@H]1O (cis-trans isomerization)
[N-]=[N+]=N/C=C(/O)N[C@@H]1[C@H](O)O[C@H](CO)[C@@H](O)[C@@H]1O (3D coordinates assigned)
[N-]=[N+]=N/C=C(/O)N[C@@H]1[C@H](O)O[C@H](CO)[C@@H](O)[C@@H]1O (nonaromatic ring conformer: 25.297540234277573 kcal/mol)

>  <Name>
42612215

>  <RI>
2.59779e+07

>  <Rbt.Current_Directory>
/home/edward/Documentos/Virtual_Screening/rDock/N-terminal/2

>  <Rbt.Executable>
rbdock ($Id: //depot/dev/client3/rdock/2013.1/src/exe/rbdock.cxx#4 $)

>  <Rbt.Library>
libRbt.so (2013.1, Build901 2013/11/27)

>  <Rbt.Parameter_File>
/home/edward/anaconda3/envs/MD/share/rdock-2013.1-1/data/scripts/dock.prm

>  <Rbt.Receptor>
parameters.prm

>  <SCORE>
-27.1887

>  <SCORE.INTER>
-27.3498

>  <SCORE.INTER.CONST>
1

>  <SCORE.INTER.POLAR>
-6.17936

>  <SCORE.INTER.REPUL>
0

>  <SCORE.INTER.ROT>
3

>  <SCORE.INTER.VDW>
-14.74

>  <SCORE.INTER.norm>
-1.51943

>  <SCORE.INTRA>
0.613232

>  <SCORE.INTRA.DIHEDRAL>
0.168941

>  <SCORE.INTRA.DIHEDRAL.0>
6.14627

>  <SCORE.INTRA.POLAR>
-0.00459938

>  <SCORE.INTRA.POLAR.0>
0

>  <SCORE.INTRA.REPUL>
0

>  <SCORE.INTRA.REPUL.0>
0

>  <SCORE.INTRA.VDW>
0.544399

>  <SCORE.INTRA.VDW.0>
-2.07405

>  <SCORE.INTRA.norm>
0.0340684

>  <SCORE.RESTR>
0

>  <SCORE.RESTR.CAVITY>
0

>  <SCORE.RESTR.norm>
0

>  <SCORE.SYSTEM>
-0.452108

>  <SCORE.SYSTEM.CONST>
0

>  <SCORE.SYSTEM.DIHEDRAL>
0.142764

>  <SCORE.SYSTEM.REPUL>
0.0813967

>  <SCORE.SYSTEM.VDW>
-0.930473

>  <SCORE.SYSTEM.norm>
-0.0251171

>  <SCORE.heavy>
18

>  <SCORE.norm>
-1.51048

>  <SMILES>
[N-]=[N+]=N/C=C(/O)N[C@@H]1[C@H](O)O[C@H](CO)[C@@H](O)[C@@H]1O

>  <UniqueID>
63

$$$$
25243963
  rDOCK(R)          3D
libRbt.so/2013.1/901 2013/11/27
 23 23  0  0  0  0  0  0  0  0999 V2000
   34.8536    5.1734  -59.4533 C   0  0  0  0  0  0
   35.4381    3.9514  -60.0832 C   0  0  0  0  0  0
   36.4414    3.3996  -59.5555 O   0  0  0  0  0  0
   34.8778    3.4375  -61.2994 N   0  0  0  0  0  0
   35.4653    2.3073  -62.0285 C   0  0  0  0  0  0
   34.9461    0.9556  -61.4738 C   0  0  0  0  0  0
   34.7962    1.0057  -60.0770 O   0  0  0  0  0  0
   33.7186    0.6006  -62.0894 O   0  0  0  0  0  0
   33.8866    0.2599  -63.4650 C   0  0  0  0  0  0
   34.0891   -1.2549  -63.6179 C   0  0  0  0  0  0
   33.9071   -1.6117  -64.9681 O   0  0  0  0  0  0
   34.1312   -3.2955  -65.1121 P   0  0  0  0  0  0
   35.4992   -3.6568  -64.5816 O   0  0  0  0  0  0
   34.0295   -3.7586  -66.7365 O   0  5  0  0  0  0
   32.9563   -4.1195  -64.2154 O   0  5  0  0  0  0
   35.0011    1.0719  -64.1960 C   0  0  0  0  0  0
   34.6707    1.2346  -65.5520 O   0  0  0  0  0  0
   35.1476    2.4521  -63.5362 C   0  0  0  0  0  0
   36.1751    3.1817  -64.1581 O   0  0  0  0  0  0
   34.1237    3.9920  -61.7658 H   0  0  0  0  0  0
   34.5269    0.1015  -59.7688 H   0  0  0  0  0  0
   35.3683    1.8171  -65.9508 H   0  0  0  0  0  0
   36.1557    4.0969  -63.7739 H   0  0  0  0  0  0
  1  2  1  0  0  0
  2  3  2  0  0  0
  2  4  1  0  0  0
  4  5  1  0  0  0
  4 20  1  0  0  0
  5  6  1  0  0  0
  6  7  1  0  0  0
  6  8  1  0  0  0
  7 21  1  0  0  0
  8  9  1  0  0  0
  9 10  1  0  0  0
  9 16  1  0  0  0
 10 11  1  0  0  0
 11 12  1  0  0  0
 12 13  2  0  0  0
 12 14  1  0  0  0
 12 15  1  0  0  0
 16 17  1  0  0  0
 16 18  1  0  0  0
 17 22  1  0  0  0
 18 19  1  0  0  0
 18  5  1  0  0  0
 19 23  1  0  0  0
M  END
>  <CHROM.0>
-173.62683859,63.90542208,-179.23874650

>  <CHROM.1>
86.01103510,-175.96989400,164.94346977,-179.80919594,-56.51477845,175.40531337
-64.86392178,34.69832048,0.32071922,-63.12096488,0.88047270,1.32096598,1.26524974

>  <Energy>
35.2355897704292

>  <Genealogy>
CC(=O)N[C@H]1[C@@H](O)O[C@H](COP(=O)([O-])[O-])[C@@H](O)[C@@H]1O (chirality)
CC(=O)N[C@H]1[C@@H](O)O[C@H](COP(=O)([O-])[O-])[C@@H](O)[C@@H]1O (3D coordinates assigned)
CC(=O)N[C@H]1[C@@H](O)O[C@H](COP(=O)([O-])[O-])[C@@H](O)[C@@H]1O (nonaromatic ring conformer: 35.2355897704292 kcal/mol)

>  <Name>
25243963

>  <RI>
2.59779e+07

>  <Rbt.Current_Directory>
/home/edward/Documentos/Virtual_Screening/rDock/N-terminal/2

>  <Rbt.Executable>
rbdock ($Id: //depot/dev/client3/rdock/2013.1/src/exe/rbdock.cxx#4 $)

>  <Rbt.Library>
libRbt.so (2013.1, Build901 2013/11/27)

>  <Rbt.Parameter_File>
/home/edward/anaconda3/envs/MD/share/rdock-2013.1-1/data/scripts/dock.prm

>  <Rbt.Receptor>
parameters.prm

>  <SCORE>
-25.0641

>  <SCORE.INTER>
-22.7439

>  <SCORE.INTER.CONST>
1

>  <SCORE.INTER.POLAR>
-4.18104

>  <SCORE.INTER.REPUL>
0

>  <SCORE.INTER.ROT>
4

>  <SCORE.INTER.VDW>
-17.9283

>  <SCORE.INTER.norm>
-1.19705

>  <SCORE.INTRA>
-2.12108

>  <SCORE.INTRA.DIHEDRAL>
-5.29852

>  <SCORE.INTRA.DIHEDRAL.0>
8.08999

>  <SCORE.INTRA.POLAR>
-0.0263832

>  <SCORE.INTRA.POLAR.0>
0

>  <SCORE.INTRA.REPUL>
0

>  <SCORE.INTRA.REPUL.0>
0

>  <SCORE.INTRA.VDW>
0.617876

>  <SCORE.INTRA.VDW.0>
-2.38717

>  <SCORE.INTRA.norm>
-0.111636

>  <SCORE.RESTR>
0

>  <SCORE.RESTR.CAVITY>
0

>  <SCORE.RESTR.norm>
0

>  <SCORE.SYSTEM>
-0.199123

>  <SCORE.SYSTEM.CONST>
0

>  <SCORE.SYSTEM.DIHEDRAL>
0.276449

>  <SCORE.SYSTEM.REPUL>
0.162399

>  <SCORE.SYSTEM.VDW>
-1.14934

>  <SCORE.SYSTEM.norm>
-0.0104801

>  <SCORE.heavy>
19

>  <SCORE.norm>
-1.31916

>  <SMILES>
CC(=O)N[C@H]1[C@@H](O)O[C@H](COP(=O)([O-])[O-])[C@@H](O)[C@@H]1O

>  <UniqueID>
66

$$$$
25243937
  rDOCK(R)          3D
libRbt.so/2013.1/901 2013/11/27
 23 23  0  0  0  0  0  0  0  0999 V2000
   36.3419   -1.1197  -62.6390 H   0  0  0  0  0  0
   35.6067   -1.6871  -63.0433 O   0  0  0  0  0  0
   34.3612   -1.1421  -63.3531 C   0  0  0  0  0  0
   33.4056   -1.8909  -63.8162 N   0  0  0  0  0  0
   33.5322   -3.3244  -64.0984 C   0  0  0  0  0  0
   32.1307   -3.9804  -64.1070 C   0  0  0  0  0  0
   31.3369   -3.4030  -63.0904 O   0  0  0  0  0  0
   29.9202   -4.3334  -62.8726 P   0  0  0  0  0  0
   29.1569   -4.4373  -64.1737 O   0  0  0  0  0  0
   28.9416   -3.5720  -61.7234 O   0  5  0  0  0  0
   30.3062   -5.8851  -62.3177 O   0  5  0  0  0  0
   31.5219   -3.7739  -65.3710 O   0  0  0  0  0  0
   32.1384   -4.5518  -66.3948 C   0  0  0  0  0  0
   31.4172   -5.9024  -66.5469 C   0  0  0  0  0  0
   30.0547   -5.7046  -66.8120 O   0  0  0  0  0  0
   29.6945   -5.1642  -66.0612 H   0  0  0  0  0  0
   33.6767   -4.7337  -66.2150 C   0  0  0  0  0  0
   34.3043   -4.8399  -67.4676 O   0  0  0  0  0  0
   35.2785   -4.9179  -67.2956 H   0  0  0  0  0  0
   34.2533   -3.5282  -65.4596 C   0  0  0  0  0  0
   35.6283   -3.7299  -65.2516 O   0  0  0  0  0  0
   35.9657   -2.9428  -64.7501 H   0  0  0  0  0  0
   34.1038    0.3096  -63.1079 C   0  0  0  0  0  0
  1  2  1  0  0  0
  2  3  1  0  0  0
  3  4  2  0  0  0
  3 23  1  0  0  0
  4  5  1  0  0  0
  5  6  1  0  0  0
  6  7  1  0  0  0
  6 12  1  0  0  0
  7  8  1  0  0  0
  8  9  2  0  0  0
  8 10  1  0  0  0
  8 11  1  0  0  0
 12 13  1  0  0  0
 13 14  1  0  0  0
 13 17  1  0  0  0
 14 15  1  0  0  0
 15 16  1  0  0  0
 17 18  1  0  0  0
 17 20  1  0  0  0
 18 19  1  0  0  0
 20 21  1  0  0  0
 20  5  1  0  0  0
 21 22  1  0  0  0
M  END
>  <CHROM.0>
-172.63421088,-59.54805461,-62.44429355

>  <CHROM.1>
-176.93258412,158.50454794,-168.11883865,-57.15019068,56.64120346,-57.44374941
177.85384559,-56.93927927,32.24325638,-3.74779114,-64.38617128,0.17354260
0.44838947,0.92279602

>  <Energy>
35.51331594931614

>  <Genealogy>
CC(O)=N[C@H]1[C@@H](OP(=O)([O-])[O-])O[C@H](CO)[C@@H](O)[C@@H]1O (tautomer)
C/C(O)=N\[C@H]1[C@@H](OP(=O)([O-])[O-])O[C@H](CO)[C@@H](O)[C@@H]1O (cis-trans isomerization)
C/C(O)=N\[C@H]1[C@@H](OP(=O)([O-])[O-])O[C@H](CO)[C@@H](O)[C@@H]1O (3D coordinates assigned)
C/C(O)=N\[C@H]1[C@@H](OP(=O)([O-])[O-])O[C@H](CO)[C@@H](O)[C@@H]1O (nonaromatic ring conformer: 35.51331594931614 kcal/mol)

>  <Name>
25243937

>  <RI>
2.59779e+07

>  <Rbt.Current_Directory>
/home/edward/Documentos/Virtual_Screening/rDock/N-terminal/2

>  <Rbt.Executable>
rbdock ($Id: //depot/dev/client3/rdock/2013.1/src/exe/rbdock.cxx#4 $)

>  <Rbt.Library>
libRbt.so (2013.1, Build901 2013/11/27)

>  <Rbt.Parameter_File>
/home/edward/anaconda3/envs/MD/share/rdock-2013.1-1/data/scripts/dock.prm

>  <Rbt.Receptor>
parameters.prm

>  <SCORE>
-18.1636

>  <SCORE.INTER>
-6.81082

>  <SCORE.INTER.CONST>
1

>  <SCORE.INTER.POLAR>
-1.65449

>  <SCORE.INTER.REPUL>
0

>  <SCORE.INTER.ROT>
4

>  <SCORE.INTER.VDW>
-10.5856

>  <SCORE.INTER.norm>
-0.358464

>  <SCORE.INTRA>
-10.4103

>  <SCORE.INTRA.DIHEDRAL>
-6.37416

>  <SCORE.INTRA.DIHEDRAL.0>
9.14062

>  <SCORE.INTRA.POLAR>
-2.25438

>  <SCORE.INTRA.POLAR.0>
0

>  <SCORE.INTRA.REPUL>
0

>  <SCORE.INTRA.REPUL.0>
0

>  <SCORE.INTRA.VDW>
0.441687

>  <SCORE.INTRA.VDW.0>
-3.06425

>  <SCORE.INTRA.norm>
-0.54791

>  <SCORE.RESTR>
0

>  <SCORE.RESTR.CAVITY>
0

>  <SCORE.RESTR.norm>
0

>  <SCORE.SYSTEM>
-0.942461

>  <SCORE.SYSTEM.CONST>
0

>  <SCORE.SYSTEM.DIHEDRAL>
0.294886

>  <SCORE.SYSTEM.REPUL>
0.0194668

>  <SCORE.SYSTEM.VDW>
-1.18724

>  <SCORE.SYSTEM.norm>
-0.0496032

>  <SCORE.heavy>
19

>  <SCORE.norm>
-0.955978

>  <SMILES>
C/C(O)=N\[C@H]1[C@@H](OP(=O)([O-])[O-])O[C@H](CO)[C@@H](O)[C@@H]1O

>  <UniqueID>
68

$$$$
24847493
  rDOCK(R)          3D
libRbt.so/2013.1/901 2013/11/27
 25 25  0  0  0  0  0  0  0  0999 V2000
   34.8018   -0.9031  -64.2114 H   0  0  0  0  0  0
   33.8232   -1.0282  -63.9918 O   0  0  0  0  0  0
   33.1568   -0.2557  -63.0368 C   0  0  0  0  0  0
   33.7786    0.7282  -62.4570 N   0  0  0  0  0  0
   35.1774    1.0995  -62.6934 C   0  0  0  0  0  0
   35.2458    2.5657  -63.1460 C   0  0  0  0  0  0
   36.5266    2.8380  -63.6556 O   0  0  0  0  0  0
   36.5355    3.7957  -63.9173 H   0  0  0  0  0  0
   34.9115    3.5236  -61.9779 C   0  0  0  0  0  0
   33.5266    3.5098  -61.7369 O   0  0  0  0  0  0
   33.2441    2.5580  -61.7192 H   0  0  0  0  0  0
   35.6458    3.1302  -60.6687 C   0  0  0  0  0  0
   37.1058    3.6242  -60.5937 C   0  0  0  0  0  0
   37.6758    3.2437  -59.3713 O   0  0  0  0  0  0
   38.6586    3.2564  -59.5085 H   0  0  0  0  0  0
   35.5264    1.7451  -60.3670 O   0  0  0  0  0  0
   36.0132    0.9155  -61.4084 C   0  0  0  0  0  0
   35.9420   -0.4172  -60.9758 O   0  0  0  0  0  0
   34.9996   -0.5866  -60.7119 H   0  0  0  0  0  0
   31.7749   -0.5204  -62.7046 N   0  0  0  0  0  0
   31.2394   -0.1474  -61.4563 N   0  0  0  0  0  0
   30.0344    0.1467  -61.3139 O   0  0  0  0  0  0
   30.8603   -1.1235  -63.6797 C   0  0  0  0  0  0
   30.8557   -2.6494  -63.5708 C   0  0  0  0  0  0
   30.3522   -3.1699  -61.9408 Cl  0  0  0  0  0  0
  1  2  1  0  0  0
  2  3  1  0  0  0
  3  4  2  0  0  0
  3 20  1  0  0  0
  4  5  1  0  0  0
  5  6  1  0  0  0
  6  7  1  0  0  0
  6  9  1  0  0  0
  7  8  1  0  0  0
  9 10  1  0  0  0
  9 12  1  0  0  0
 10 11  1  0  0  0
 12 13  1  0  0  0
 12 16  1  0  0  0
 13 14  1  0  0  0
 14 15  1  0  0  0
 16 17  1  0  0  0
 17 18  1  0  0  0
 17  5  1  0  0  0
 18 19  1  0  0  0
 20 21  1  0  0  0
 20 23  1  0  0  0
 21 22  2  0  0  0
 23 24  1  0  0  0
 24 25  1  0  0  0
M  END
>  <CHROM.0>
-71.89808925,-59.63212252,62.55807369

>  <CHROM.1>
4.67143690,123.10031378,-178.78932254,46.76072428,178.93000076,158.37339491
-65.53102620,150.45075811,90.92075681,59.47359102,33.75538702,0.63232438
-62.00690723,-2.62774713,0.55570198,1.01638768

>  <Energy>
37.60914648261388

>  <Genealogy>
O=NN(CCCl)C(O)=N[C@@H]1C(O)O[C@@H](CO)[C@H](O)[C@H]1O (tautomer)
O=NN(CCCl)C(O)=N[C@H]1[C@H](O)[C@@H](O)[C@H](CO)O[C@H]1O (chirality)
O=NN(CCCl)/C(O)=N\[C@H]1[C@H](O)[C@@H](O)[C@H](CO)O[C@H]1O (cis-trans isomerization)
O=NN(CCCl)/C(O)=N\[C@H]1[C@H](O)[C@@H](O)[C@H](CO)O[C@H]1O (3D coordinates assigned)
O=NN(CCCl)/C(O)=N\[C@H]1[C@H](O)[C@@H](O)[C@H](CO)O[C@H]1O (nonaromatic ring conformer: 37.60914648261388 kcal/mol)

>  <Name>
24847493

>  <RI>
2.59779e+07

>  <Rbt.Current_Directory>
/home/edward/Documentos/Virtual_Screening/rDock/N-terminal/2

>  <Rbt.Executable>
rbdock ($Id: //depot/dev/client3/rdock/2013.1/src/exe/rbdock.cxx#4 $)

>  <Rbt.Library>
libRbt.so (2013.1, Build901 2013/11/27)

>  <Rbt.Parameter_File>
/home/edward/anaconda3/envs/MD/share/rdock-2013.1-1/data/scripts/dock.prm

>  <Rbt.Receptor>
parameters.prm

>  <SCORE>
-16.7839

>  <SCORE.INTER>
-14.6718

>  <SCORE.INTER.CONST>
1

>  <SCORE.INTER.POLAR>
-3.93197

>  <SCORE.INTER.REPUL>
0.780361

>  <SCORE.INTER.ROT>
5

>  <SCORE.INTER.VDW>
-15.6049

>  <SCORE.INTER.norm>
-0.733591

>  <SCORE.INTRA>
-1.98676

>  <SCORE.INTRA.DIHEDRAL>
-0.672951

>  <SCORE.INTRA.DIHEDRAL.0>
7.77449

>  <SCORE.INTRA.POLAR>
-0.820446

>  <SCORE.INTRA.POLAR.0>
0

>  <SCORE.INTRA.REPUL>
0

>  <SCORE.INTRA.REPUL.0>
0

>  <SCORE.INTRA.VDW>
1.13924

>  <SCORE.INTRA.VDW.0>
-3.16132

>  <SCORE.INTRA.norm>
-0.0993379

>  <SCORE.RESTR>
0.00887086

>  <SCORE.RESTR.CAVITY>
0.00887086

>  <SCORE.RESTR.norm>
0.000443543

>  <SCORE.SYSTEM>
-0.134223

>  <SCORE.SYSTEM.CONST>
0

>  <SCORE.SYSTEM.DIHEDRAL>
0.709201

>  <SCORE.SYSTEM.VDW>
-0.488823

>  <SCORE.SYSTEM.norm>
-0.00671113

>  <SCORE.heavy>
20

>  <SCORE.norm>
-0.839196

>  <SMILES>
O=NN(CCCl)/C(O)=N\[C@H]1[C@H](O)[C@@H](O)[C@H](CO)O[C@H]1O

>  <UniqueID>
70

$$$$
24779679
  rDOCK(R)          3D
libRbt.so/2013.1/901 2013/11/27
 26 26  0  0  0  0  0  0  0  0999 V2000
   36.1592    3.9065  -63.1281 H   0  0  0  0  0  0
   36.2863    2.9528  -63.4450 O   0  0  0  0  0  0
   35.5949    1.8968  -62.8518 C   0  0  0  0  0  0
   34.8804    2.0894  -61.7836 N   0  0  0  0  0  0
   34.6988    3.3886  -61.1321 C   0  0  0  0  0  0
   33.2056    3.7761  -61.1017 C   0  0  0  0  0  0
   32.4204    2.7305  -60.5212 O   0  0  0  0  0  0
   31.0695    2.8828  -60.1953 C   0  0  0  0  0  0
   30.4839    3.9835  -60.3903 O   0  0  0  0  0  0
   30.3576    1.7766  -59.6341 N   0  0  0  0  0  0
   30.8748    0.8782  -59.5006 H   0  0  0  0  0  0
   28.9445    1.8810  -59.2680 C   0  0  0  0  0  0
   28.6810    1.3195  -57.8649 C   0  0  0  0  0  0
   29.3388    2.1649  -56.7751 C   0  0  0  0  0  0
   33.0098    5.0083  -60.4238 O   0  0  0  0  0  0
   33.4026    4.9297  -59.0617 C   0  0  0  0  0  0
   33.0497    6.2698  -58.3948 C   0  0  0  0  0  0
   33.3122    6.2397  -57.0174 O   0  0  0  0  0  0
   34.2671    5.9880  -56.9151 H   0  0  0  0  0  0
   34.9199    4.6253  -58.9508 C   0  0  0  0  0  0
   35.3298    4.5338  -57.6083 O   0  0  0  0  0  0
   34.8719    3.7493  -57.2067 H   0  0  0  0  0  0
   35.2563    3.3235  -59.7042 C   0  0  0  0  0  0
   36.6488    3.1465  -59.7591 O   0  0  0  0  0  0
   36.8119    2.2919  -60.2373 H   0  0  0  0  0  0
   35.7067    0.5205  -63.4236 C   0  0  0  0  0  0
  1  2  1  0  0  0
  2  3  1  0  0  0
  3  4  2  0  0  0
  3 26  1  0  0  0
  4  5  1  0  0  0
  5  6  1  0  0  0
  6  7  1  0  0  0
  6 15  1  0  0  0
  7  8  1  0  0  0
  8  9  2  0  0  0
  8 10  1  0  0  0
 10 11  1  0  0  0
 10 12  1  0  0  0
 12 13  1  0  0  0
 13 14  1  0  0  0
 15 16  1  0  0  0
 16 17  1  0  0  0
 16 20  1  0  0  0
 17 18  1  0  0  0
 18 19  1  0  0  0
 20 21  1  0  0  0
 20 23  1  0  0  0
 21 22  1  0  0  0
 23 24  1  0  0  0
 23  5  1  0  0  0
 24 25  1  0  0  0
M  END
>  <CHROM.0>
73.72250962,65.06536160,-60.05390140

>  <CHROM.1>
-7.51568138,120.06085130,170.72444533,-0.98175276,-132.44887208,67.02721143
175.43167029,55.81103399,64.78427017,-60.31243811,33.20402704,3.33044015
-59.93363210,0.40659062,-0.36589874,-2.29122614

>  <Energy>
29.194772262382738

>  <Genealogy>
CCCNC(=O)O[C@H]1O[C@H](CO)[C@@H](O)[C@H](O)[C@H]1N=C(C)O (tautomer)
CCCNC(=O)O[C@H]1O[C@H](CO)[C@@H](O)[C@H](O)[C@H]1/N=C(\C)O (cis-trans isomerization)
CCCNC(=O)O[C@H]1O[C@H](CO)[C@@H](O)[C@H](O)[C@H]1/N=C(\C)O (3D coordinates assigned)
CCCNC(=O)O[C@H]1O[C@H](CO)[C@@H](O)[C@H](O)[C@H]1/N=C(\C)O (nonaromatic ring conformer: 29.194772262382738 kcal/mol)

>  <Name>
24779679

>  <RI>
2.59779e+07

>  <Rbt.Current_Directory>
/home/edward/Documentos/Virtual_Screening/rDock/N-terminal/2

>  <Rbt.Executable>
rbdock ($Id: //depot/dev/client3/rdock/2013.1/src/exe/rbdock.cxx#4 $)

>  <Rbt.Library>
libRbt.so (2013.1, Build901 2013/11/27)

>  <Rbt.Parameter_File>
/home/edward/anaconda3/envs/MD/share/rdock-2013.1-1/data/scripts/dock.prm

>  <Rbt.Receptor>
parameters.prm

>  <SCORE>
-14.497

>  <SCORE.INTER>
-11.6979

>  <SCORE.INTER.CONST>
1

>  <SCORE.INTER.POLAR>
-2.82512

>  <SCORE.INTER.REPUL>
0.0124361

>  <SCORE.INTER.ROT>
6

>  <SCORE.INTER.VDW>
-13.5547

>  <SCORE.INTER.norm>
-0.557043

>  <SCORE.INTRA>
-3.70259

>  <SCORE.INTRA.DIHEDRAL>
-4.61438

>  <SCORE.INTRA.DIHEDRAL.0>
7.08163

>  <SCORE.INTRA.POLAR>
-0.417885

>  <SCORE.INTRA.POLAR.0>
0

>  <SCORE.INTRA.REPUL>
0

>  <SCORE.INTRA.REPUL.0>
0

>  <SCORE.INTRA.VDW>
0.0254091

>  <SCORE.INTRA.VDW.0>
-1.92311

>  <SCORE.INTRA.norm>
-0.176314

>  <SCORE.RESTR>
0

>  <SCORE.RESTR.CAVITY>
0

>  <SCORE.RESTR.norm>
0

>  <SCORE.SYSTEM>
0.903518

>  <SCORE.SYSTEM.CONST>
0

>  <SCORE.SYSTEM.DIHEDRAL>
1.01585

>  <SCORE.SYSTEM.POLAR>
-0.014077

>  <SCORE.SYSTEM.REPUL>
0.150529

>  <SCORE.SYSTEM.VDW>
-0.309191

>  <SCORE.SYSTEM.norm>
0.0430247

>  <SCORE.heavy>
21

>  <SCORE.norm>
-0.690332

>  <SMILES>
CCCNC(=O)O[C@H]1O[C@H](CO)[C@@H](O)[C@H](O)[C@H]1/N=C(\C)O

>  <UniqueID>
72

$$$$
22833605
  rDOCK(R)          3D
libRbt.so/2013.1/901 2013/11/27
 23 23  0  0  0  0  0  0  0  0999 V2000
   30.9764    0.5826  -62.7406 C   0  0  0  0  0  0
   32.4522    0.1806  -62.7904 C   0  0  0  0  0  0
   33.2454    1.1475  -62.1209 O   0  0  0  0  0  0
   34.6125    0.7633  -62.0348 C   0  0  0  0  0  0
   35.2530    1.3729  -60.7707 C   0  0  0  0  0  0
   34.4916    1.0245  -59.6415 O   0  0  0  0  0  0
   35.3356    2.9145  -60.9129 C   0  0  0  0  0  0
   35.9839    3.5666  -59.6808 C   0  0  0  0  0  0
   37.3807    3.6149  -59.8057 O   0  0  0  0  0  0
   36.0926    3.2671  -62.0590 O   0  0  0  0  0  0
   35.4488    2.8274  -63.2442 C   0  0  0  0  0  0
   36.1609    3.3038  -64.3560 O   0  0  0  0  0  0
   35.3679    1.2795  -63.2806 C   0  0  0  0  0  0
   34.7315    0.8096  -64.5189 N   0  3  0  0  0  0
   32.6339   -1.1420  -62.1083 C   0  0  0  0  0  0
   32.3942   -2.2147  -62.7237 O   0  0  0  0  0  0
   33.1064   -1.1918  -60.8027 O   0  5  0  0  0  0
   34.3318    0.0458  -59.6847 H   0  0  0  0  0  0
   37.6891    2.6801  -59.9328 H   0  0  0  0  0  0
   36.2821    4.2813  -64.2292 H   0  0  0  0  0  0
   34.7873   -0.2331  -64.5738 H   0  0  0  0  0  0
   33.7205    1.0762  -64.5214 H   0  0  0  0  0  0
   35.2005    1.2193  -65.3592 H   0  0  0  0  0  0
  1  2  1  0  0  0
  2  3  1  0  0  0
  2 15  1  0  0  0
  3  4  1  0  0  0
  4  5  1  0  0  0
  5  6  1  0  0  0
  5  7  1  0  0  0
  6 18  1  0  0  0
  7  8  1  0  0  0
  7 10  1  0  0  0
  8  9  1  0  0  0
  9 19  1  0  0  0
 10 11  1  0  0  0
 11 12  1  0  0  0
 11 13  1  0  0  0
 12 20  1  0  0  0
 13 14  1  0  0  0
 13  4  1  0  0  0
 14 21  1  0  0  0
 14 22  1  0  0  0
 14 23  1  0  0  0
 15 16  2  0  0  0
 15 17  1  0  0  0
M  END
>  <CHROM.0>
-174.01198343,-56.33834563,65.36727780

>  <CHROM.1>
174.79492741,82.02658249,-150.74087320,48.88525258,87.41138256,-57.77937500
-51.40936772,-63.79104516,34.47930042,1.31486931,-61.98069153,-3.00941765
0.81405684,1.67130801

>  <Energy>
32.414199419992485

>  <Genealogy>
C[C@@H](O[C@@H]1[C@H](O)[C@@H](CO)O[C@@H](O)[C@@H]1[NH3+])C(=O)[O-] (protonated)
C[C@@H](O[C@@H]1[C@H](O)[C@@H](CO)O[C@@H](O)[C@@H]1[NH3+])C(=O)[O-] (3D coordinates assigned)
C[C@@H](O[C@@H]1[C@H](O)[C@@H](CO)O[C@@H](O)[C@@H]1[NH3+])C(=O)[O-] (nonaromatic ring conformer: 32.414199419992485 kcal/mol)

>  <Name>
22833605

>  <RI>
2.59779e+07

>  <Rbt.Current_Directory>
/home/edward/Documentos/Virtual_Screening/rDock/N-terminal/2

>  <Rbt.Executable>
rbdock ($Id: //depot/dev/client3/rdock/2013.1/src/exe/rbdock.cxx#4 $)

>  <Rbt.Library>
libRbt.so (2013.1, Build901 2013/11/27)

>  <Rbt.Parameter_File>
/home/edward/anaconda3/envs/MD/share/rdock-2013.1-1/data/scripts/dock.prm

>  <Rbt.Receptor>
parameters.prm

>  <SCORE>
-23.9733

>  <SCORE.INTER>
-18.0522

>  <SCORE.INTER.CONST>
1

>  <SCORE.INTER.POLAR>
-3.58913

>  <SCORE.INTER.REPUL>
0

>  <SCORE.INTER.ROT>
4

>  <SCORE.INTER.VDW>
-15.2492

>  <SCORE.INTER.norm>
-1.06189

>  <SCORE.INTRA>
-4.90504

>  <SCORE.INTRA.DIHEDRAL>
-8.42479

>  <SCORE.INTRA.DIHEDRAL.0>
16.43

>  <SCORE.INTRA.POLAR>
-0.876154

>  <SCORE.INTRA.POLAR.0>
0

>  <SCORE.INTRA.REPUL>
0

>  <SCORE.INTRA.REPUL.0>
0

>  <SCORE.INTRA.VDW>
2.28627

>  <SCORE.INTRA.VDW.0>
-2.37801

>  <SCORE.INTRA.norm>
-0.288532

>  <SCORE.RESTR>
0

>  <SCORE.RESTR.CAVITY>
0

>  <SCORE.RESTR.norm>
0

>  <SCORE.SYSTEM>
-1.01607

>  <SCORE.SYSTEM.CONST>
0

>  <SCORE.SYSTEM.DIHEDRAL>
0.382688

>  <SCORE.SYSTEM.REPUL>
0.0233816

>  <SCORE.SYSTEM.VDW>
-1.32432

>  <SCORE.SYSTEM.norm>
-0.0597685

>  <SCORE.heavy>
17

>  <SCORE.norm>
-1.4102

>  <SMILES>
C[C@@H](O[C@@H]1[C@H](O)[C@@H](CO)O[C@@H](O)[C@@H]1[NH3+])C(=O)[O-]

>  <UniqueID>
74

$$$$
16738680
  rDOCK(R)          3D
libRbt.so/2013.1/901 2013/11/27
 24 24  0  0  0  0  0  0  0  0999 V2000
   34.8309    2.5050  -65.4711 H   0  0  0  0  0  0
   34.9017    1.6111  -64.9991 O   0  0  0  0  0  0
   35.1263    1.5381  -63.6274 C   0  0  0  0  0  0
   35.0414    2.6256  -62.9139 N   0  0  0  0  0  0
   35.2473    2.7513  -61.4669 C   0  0  0  0  0  0
   35.8114    4.1475  -61.1394 C   0  0  0  0  0  0
   37.0574    4.2994  -61.7621 O   0  0  0  0  0  0
   36.8728    4.4637  -62.7235 H   0  0  0  0  0  0
   35.9809    4.2911  -59.7397 O   0  0  0  0  0  0
   34.7260    4.2664  -59.0798 C   0  0  0  0  0  0
   34.9525    4.5896  -57.5984 C   0  0  0  0  0  0
   33.7275    4.5701  -56.9192 O   0  0  0  0  0  0
   33.9434    4.6909  -55.9580 H   0  0  0  0  0  0
   34.0625    2.8785  -59.2487 C   0  0  0  0  0  0
   32.7931    2.8690  -58.6442 O   0  0  0  0  0  0
   32.9302    3.0043  -57.6704 H   0  0  0  0  0  0
   33.9016    2.5557  -60.7433 C   0  0  0  0  0  0
   33.4905    1.2016  -60.8679 O   0  0  0  0  0  0
   32.1623    0.9966  -60.4161 C   0  0  0  0  0  0
   31.2231    1.5768  -61.4301 C   0  0  0  0  0  0
   30.5709    2.6215  -61.1664 O   0  0  0  0  0  0
   31.0418    0.9467  -62.6555 O   0  5  0  0  0  0
   31.8872   -0.5011  -60.2633 C   0  0  0  0  0  0
   35.4319    0.1981  -63.0258 C   0  0  0  0  0  0
  1  2  1  0  0  0
  2  3  1  0  0  0
  3  4  2  0  0  0
  3 24  1  0  0  0
  4  5  1  0  0  0
  5  6  1  0  0  0
  6  7  1  0  0  0
  6  9  1  0  0  0
  7  8  1  0  0  0
  9 10  1  0  0  0
 10 11  1  0  0  0
 10 14  1  0  0  0
 11 12  1  0  0  0
 12 13  1  0  0  0
 14 15  1  0  0  0
 14 17  1  0  0  0
 15 16  1  0  0  0
 17 18  1  0  0  0
 17  5  1  0  0  0
 18 19  1  0  0  0
 19 20  1  0  0  0
 19 23  1  0  0  0
 20 21  2  0  0  0
 20 22  1  0  0  0
M  END
>  <CHROM.0>
-173.86083569,-58.28417778,176.31855001

>  <CHROM.1>
10.47568150,149.08869418,76.13036128,-179.89828273,174.28702549,-64.12954377
-170.38932058,73.54881803,-109.44901535,33.95342253,2.51972807,-60.87074106
-1.81047554,0.48588218,1.08342932

>  <Energy>
33.798908469328566

>  <Genealogy>
CC(O)=N[C@H]1C(O)O[C@H](CO)[C@@H](O)[C@@H]1O[C@H](C)C(=O)[O-] (tautomer)
CC(O)=N[C@H]1[C@H](O)O[C@H](CO)[C@@H](O)[C@@H]1O[C@H](C)C(=O)[O-] (chirality)
C/C(O)=N\[C@H]1[C@H](O)O[C@H](CO)[C@@H](O)[C@@H]1O[C@H](C)C(=O)[O-] (cis-trans isomerization)
C/C(O)=N\[C@H]1[C@H](O)O[C@H](CO)[C@@H](O)[C@@H]1O[C@H](C)C(=O)[O-] (3D coordinates assigned)
C/C(O)=N\[C@H]1[C@H](O)O[C@H](CO)[C@@H](O)[C@@H]1O[C@H](C)C(=O)[O-] (nonaromatic ring conformer: 33.798908469328566 kcal/mol)

>  <Name>
16738680

>  <RI>
2.59779e+07

>  <Rbt.Current_Directory>
/home/edward/Documentos/Virtual_Screening/rDock/N-terminal/2

>  <Rbt.Executable>
rbdock ($Id: //depot/dev/client3/rdock/2013.1/src/exe/rbdock.cxx#4 $)

>  <Rbt.Library>
libRbt.so (2013.1, Build901 2013/11/27)

>  <Rbt.Parameter_File>
/home/edward/anaconda3/envs/MD/share/rdock-2013.1-1/data/scripts/dock.prm

>  <Rbt.Receptor>
parameters.prm

>  <SCORE>
-21.3231

>  <SCORE.INTER>
-15.9491

>  <SCORE.INTER.CONST>
1

>  <SCORE.INTER.POLAR>
-3.38622

>  <SCORE.INTER.REPUL>
0.0512293

>  <SCORE.INTER.ROT>
5

>  <SCORE.INTER.VDW>
-15.0921

>  <SCORE.INTER.norm>
-0.797457

>  <SCORE.INTRA>
-4.39866

>  <SCORE.INTRA.DIHEDRAL>
-10.2683

>  <SCORE.INTRA.DIHEDRAL.0>
15.9241

>  <SCORE.INTRA.POLAR>
-0.474077

>  <SCORE.INTRA.POLAR.0>
0

>  <SCORE.INTRA.REPUL>
0

>  <SCORE.INTRA.REPUL.0>
0

>  <SCORE.INTRA.VDW>
2.34733

>  <SCORE.INTRA.VDW.0>
-3.21006

>  <SCORE.INTRA.norm>
-0.219933

>  <SCORE.RESTR>
0

>  <SCORE.RESTR.CAVITY>
0

>  <SCORE.RESTR.norm>
0

>  <SCORE.SYSTEM>
-0.975337

>  <SCORE.SYSTEM.CONST>
0

>  <SCORE.SYSTEM.DIHEDRAL>
0.265587

>  <SCORE.SYSTEM.REPUL>
0.0229538

>  <SCORE.SYSTEM.VDW>
-1.2229

>  <SCORE.SYSTEM.norm>
-0.0487668

>  <SCORE.heavy>
20

>  <SCORE.norm>
-1.06616

>  <SMILES>
C/C(O)=N\[C@H]1[C@H](O)O[C@H](CO)[C@@H](O)[C@@H]1O[C@H](C)C(=O)[O-]

>  <UniqueID>
76

$$$$
12917651
  rDOCK(R)          3D
libRbt.so/2013.1/901 2013/11/27
 24 24  0  0  0  0  0  0  0  0999 V2000
   33.2202    6.0826  -56.7616 C   0  0  0  0  0  0
   33.2101    5.5018  -58.1376 C   0  0  0  0  0  0
   32.7151    6.1641  -59.0894 O   0  0  0  0  0  0
   33.7504    4.1921  -58.3619 N   0  0  0  0  0  0
   33.6654    3.5068  -59.6554 C   0  0  0  0  0  0
   35.0725    3.3625  -60.2650 C   0  0  0  0  0  0
   35.6131    4.6403  -60.4657 O   0  0  0  0  0  0
   34.9987    2.6959  -61.5133 O   0  0  0  0  0  0
   34.5600    1.3590  -61.3382 C   0  0  0  0  0  0
   34.6530    0.6368  -62.6907 C   0  0  0  0  0  0
   35.9886    0.5508  -63.1090 O   0  0  0  0  0  0
   33.1090    1.3365  -60.8049 C   0  0  0  0  0  0
   32.7025    0.0074  -60.5988 O   0  0  0  0  0  0
   33.0253    2.1155  -59.4784 C   0  0  0  0  0  0
   31.6568    2.2648  -59.1266 O   0  0  0  0  0  0
   31.0377    1.0245  -58.8265 C   0  0  0  0  0  0
   29.5254    1.2108  -58.6789 C   0  0  0  0  0  0
   31.6023    0.5124  -57.5356 C   0  0  0  0  0  0
   32.4007   -0.4615  -57.5346 O   0  0  0  0  0  0
   31.2137    1.0811  -56.3285 O   0  5  0  0  0  0
   34.1003    3.6542  -57.5361 H   0  0  0  0  0  0
   35.0553    5.0743  -61.1628 H   0  0  0  0  0  0
   35.9891    0.0266  -63.9522 H   0  0  0  0  0  0
   33.3520   -0.3980  -59.9668 H   0  0  0  0  0  0
  1  2  1  0  0  0
  2  3  2  0  0  0
  2  4  1  0  0  0
  4  5  1  0  0  0
  4 21  1  0  0  0
  5  6  1  0  0  0
  6  7  1  0  0  0
  6  8  1  0  0  0
  7 22  1  0  0  0
  8  9  1  0  0  0
  9 10  1  0  0  0
  9 12  1  0  0  0
 10 11  1  0  0  0
 11 23  1  0  0  0
 12 13  1  0  0  0
 12 14  1  0  0  0
 13 24  1  0  0  0
 14 15  1  0  0  0
 14  5  1  0  0  0
 15 16  1  0  0  0
 16 17  1  0  0  0
 16 18  1  0  0  0
 18 19  2  0  0  0
 18 20  1  0  0  0
M  END
>  <CHROM.0>
-179.31058390,-58.70573746,-176.80000860

>  <CHROM.1>
112.87119243,-66.10537013,64.41320709,176.41177980,57.37227874,-174.50025126
-170.81185359,-107.05365534,33.21157121,2.37606517,-59.54139959,-2.59260658
-0.79762920,-2.68439517

>  <Energy>
29.985654609023953

>  <Genealogy>
CC(=O)N[C@H]1[C@H](O)O[C@H](CO)[C@@H](O)[C@@H]1O[C@H](C)C(=O)[O-] (protonated)
CC(=O)N[C@H]1[C@H](O)O[C@H](CO)[C@@H](O)[C@@H]1O[C@H](C)C(=O)[O-] (3D coordinates assigned)
CC(=O)N[C@H]1[C@H](O)O[C@H](CO)[C@@H](O)[C@@H]1O[C@H](C)C(=O)[O-] (nonaromatic ring conformer: 29.985654609023953 kcal/mol)

>  <Name>
12917651

>  <RI>
2.59779e+07

>  <Rbt.Current_Directory>
/home/edward/Documentos/Virtual_Screening/rDock/N-terminal/2

>  <Rbt.Executable>
rbdock ($Id: //depot/dev/client3/rdock/2013.1/src/exe/rbdock.cxx#4 $)

>  <Rbt.Library>
libRbt.so (2013.1, Build901 2013/11/27)

>  <Rbt.Parameter_File>
/home/edward/anaconda3/envs/MD/share/rdock-2013.1-1/data/scripts/dock.prm

>  <Rbt.Receptor>
parameters.prm

>  <SCORE>
-20.116

>  <SCORE.INTER>
-16.2542

>  <SCORE.INTER.CONST>
1

>  <SCORE.INTER.POLAR>
-3.86363

>  <SCORE.INTER.REPUL>
0

>  <SCORE.INTER.ROT>
5

>  <SCORE.INTER.VDW>
-13.5179

>  <SCORE.INTER.norm>
-0.812712

>  <SCORE.INTRA>
-2.86674

>  <SCORE.INTRA.DIHEDRAL>
-11.5498

>  <SCORE.INTRA.DIHEDRAL.0>
14.8739

>  <SCORE.INTRA.POLAR>
0

>  <SCORE.INTRA.POLAR.0>
0

>  <SCORE.INTRA.REPUL>
0

>  <SCORE.INTRA.REPUL.0>
0

>  <SCORE.INTRA.VDW>
2.90815

>  <SCORE.INTRA.VDW.0>
-3.68953

>  <SCORE.INTRA.norm>
-0.143337

>  <SCORE.RESTR>
0

>  <SCORE.RESTR.CAVITY>
0

>  <SCORE.RESTR.norm>
0

>  <SCORE.SYSTEM>
-0.995052

>  <SCORE.SYSTEM.CONST>
0

>  <SCORE.SYSTEM.DIHEDRAL>
0.0610224

>  <SCORE.SYSTEM.REPUL>
0.0381003

>  <SCORE.SYSTEM.VDW>
-1.21607

>  <SCORE.SYSTEM.norm>
-0.0497526

>  <SCORE.heavy>
20

>  <SCORE.norm>
-1.0058

>  <SMILES>
CC(=O)N[C@H]1[C@H](O)O[C@H](CO)[C@@H](O)[C@@H]1O[C@H](C)C(=O)[O-]

>  <UniqueID>
77

$$$$
12600646
  rDOCK(R)          3D
libRbt.so/2013.1/901 2013/11/27
 26 26  0  0  0  0  0  0  0  0999 V2000
   32.0964   -5.8252  -63.2745 H   0  0  0  0  0  0
   31.7759   -4.9842  -63.7373 O   0  0  0  0  0  0
   32.0263   -3.7512  -63.1762 N   0  0  0  0  0  0
   32.7208   -2.8593  -63.7721 N   0  3  0  0  0  0
   32.9368   -1.6039  -63.0949 C   0  0  0  0  0  0
   32.2178   -1.3089  -62.1001 O   0  0  0  0  0  0
   33.9632   -0.6897  -63.5207 N   0  0  0  0  0  0
   34.6984   -1.0176  -64.1847 H   0  0  0  0  0  0
   34.1462    0.6238  -62.8944 C   0  0  0  0  0  0
   34.4952    0.4622  -61.4017 C   0  0  0  0  0  0
   35.5998   -0.3917  -61.2319 O   0  0  0  0  0  0
   35.7225   -0.4980  -60.2527 H   0  0  0  0  0  0
   34.7201    1.7234  -60.7870 O   0  0  0  0  0  0
   35.8200    2.4076  -61.3714 C   0  0  0  0  0  0
   36.0790    3.6843  -60.5607 C   0  0  0  0  0  0
   34.9109    4.4538  -60.4722 O   0  0  0  0  0  0
   34.8272    4.9276  -61.3401 H   0  0  0  0  0  0
   35.5459    2.7247  -62.8627 C   0  0  0  0  0  0
   36.6666    3.3425  -63.4444 O   0  0  0  0  0  0
   36.5920    4.3155  -63.2624 H   0  0  0  0  0  0
   35.2547    1.4156  -63.6150 C   0  0  0  0  0  0
   34.9019    1.6722  -64.9525 O   0  0  0  0  0  0
   35.6202    2.2277  -65.3543 H   0  0  0  0  0  0
   33.2880   -3.1195  -65.1056 C   0  0  0  0  0  0
   34.7328   -3.6027  -64.9888 C   0  0  0  0  0  0
   35.3357   -4.1234  -66.5819 Cl  0  0  0  0  0  0
  1  2  1  0  0  0
  2  3  1  0  0  0
  3  4  2  0  0  0
  4  5  1  0  0  0
  4 24  1  0  0  0
  5  6  2  0  0  0
  5  7  1  0  0  0
  7  8  1  0  0  0
  7  9  1  0  0  0
  9 10  1  0  0  0
 10 11  1  0  0  0
 10 13  1  0  0  0
 11 12  1  0  0  0
 13 14  1  0  0  0
 14 15  1  0  0  0
 14 18  1  0  0  0
 15 16  1  0  0  0
 16 17  1  0  0  0
 18 19  1  0  0  0
 18 21  1  0  0  0
 19 20  1  0  0  0
 21 22  1  0  0  0
 21  9  1  0  0  0
 22 23  1  0  0  0
 24 25  1  0  0  0
 25 26  1  0  0  0
M  END
>  <CHROM.0>
-176.27268374,-60.03231170,62.42665126

>  <CHROM.1>
118.93345211,-95.63538766,61.69070665,-176.04316462,-54.51318721,-78.73000087
-85.84508493,176.69851276,172.35670748,34.43453864,-0.42787174,-63.20979254
1.93560426,-0.81851497,-2.42781713

>  <Energy>
32.661275582121945

>  <Genealogy>
O=N[NH+](CCCl)C(=O)N[C@H]1C(O)O[C@H](CO)[C@@H](O)[C@@H]1O (protonated)
O=C(N[C@H]1C(O)O[C@H](CO)[C@@H](O)[C@@H]1O)[N+](CCCl)=NO (tautomer)
O=C(N[C@H]1[C@@H](O)O[C@H](CO)[C@@H](O)[C@@H]1O)[N+](CCCl)=NO (chirality)
O=C(N[C@H]1[C@@H](O)O[C@H](CO)[C@@H](O)[C@@H]1O)/[N+](CCCl)=N\O (cis-trans isomerization)
O=C(N[C@H]1[C@@H](O)O[C@H](CO)[C@@H](O)[C@@H]1O)/[N+](CCCl)=N\O (3D coordinates assigned)
O=C(N[C@H]1[C@@H](O)O[C@H](CO)[C@@H](O)[C@@H]1O)/[N+](CCCl)=N\O (nonaromatic ring conformer: 32.661275582121945 kcal/mol)

>  <Name>
12600646

>  <RI>
2.59779e+07

>  <Rbt.Current_Directory>
/home/edward/Documentos/Virtual_Screening/rDock/N-terminal/2

>  <Rbt.Executable>
rbdock ($Id: //depot/dev/client3/rdock/2013.1/src/exe/rbdock.cxx#4 $)

>  <Rbt.Library>
libRbt.so (2013.1, Build901 2013/11/27)

>  <Rbt.Parameter_File>
/home/edward/anaconda3/envs/MD/share/rdock-2013.1-1/data/scripts/dock.prm

>  <Rbt.Receptor>
parameters.prm

>  <SCORE>
-29.8383

>  <SCORE.INTER>
-28.27

>  <SCORE.INTER.CONST>
1

>  <SCORE.INTER.POLAR>
-5.64305

>  <SCORE.INTER.REPUL>
0.054846

>  <SCORE.INTER.ROT>
4

>  <SCORE.INTER.VDW>
-18.7579

>  <SCORE.INTER.norm>
-1.4135

>  <SCORE.INTRA>
-0.44272

>  <SCORE.INTRA.DIHEDRAL>
-1.13465

>  <SCORE.INTRA.DIHEDRAL.0>
10.1012

>  <SCORE.INTRA.POLAR>
-0.0250304

>  <SCORE.INTRA.POLAR.0>
0

>  <SCORE.INTRA.REPUL>
0

>  <SCORE.INTRA.REPUL.0>
0

>  <SCORE.INTRA.VDW>
0.20971

>  <SCORE.INTRA.VDW.0>
-2.33703

>  <SCORE.INTRA.norm>
-0.022136

>  <SCORE.RESTR>
0

>  <SCORE.RESTR.CAVITY>
0

>  <SCORE.RESTR.norm>
0

>  <SCORE.SYSTEM>
-1.12551

>  <SCORE.SYSTEM.CONST>
0

>  <SCORE.SYSTEM.DIHEDRAL>
0.0973667

>  <SCORE.SYSTEM.REPUL>
0.0297311

>  <SCORE.SYSTEM.VDW>
-1.32285

>  <SCORE.SYSTEM.norm>
-0.0562756

>  <SCORE.heavy>
20

>  <SCORE.norm>
-1.49191

>  <SMILES>
O=C(N[C@H]1[C@@H](O)O[C@H](CO)[C@@H](O)[C@@H]1O)/[N+](CCCl)=N\O

>  <UniqueID>
79

$$$$
12302999
  rDOCK(R)          3D
libRbt.so/2013.1/901 2013/11/27
 18 18  0  0  0  0  0  0  0  0999 V2000
   33.1694    0.5912  -63.0634 N   0  0  0  0  0  0
   34.5493    0.1157  -63.2166 C   0  0  0  0  0  0
   35.2170   -0.0158  -61.8261 C   0  0  0  0  0  0
   36.4679   -0.6540  -61.9171 O   0  0  0  0  0  0
   35.3440    1.2497  -61.1942 O   0  0  0  0  0  0
   36.1829    2.1272  -61.9322 C   0  0  0  0  0  0
   36.3659    3.4214  -61.1253 C   0  0  0  0  0  0
   37.0677    3.1770  -59.9347 O   0  0  0  0  0  0
   35.5926    2.4120  -63.3380 C   0  0  0  0  0  0
   36.4299    3.2676  -64.0772 O   0  0  0  0  0  0
   35.3692    1.0855  -64.0909 C   0  0  0  0  0  0
   34.7062    1.3172  -65.3078 O   0  0  0  0  0  0
   33.1663    1.6349  -63.1291 H   0  0  0  0  0  0
   32.6110    0.2608  -63.8838 H   0  0  0  0  0  0
   36.3001   -1.5684  -62.2659 H   0  0  0  0  0  0
   37.9591    2.8238  -60.1916 H   0  0  0  0  0  0
   36.3444    4.1791  -63.6925 H   0  0  0  0  0  0
   35.2736    1.9406  -65.8321 H   0  0  0  0  0  0
  1  2  1  0  0  0
  1 13  1  0  0  0
  1 14  1  0  0  0
  2  3  1  0  0  0
  3  4  1  0  0  0
  3  5  1  0  0  0
  4 15  1  0  0  0
  5  6  1  0  0  0
  6  7  1  0  0  0
  6  9  1  0  0  0
  7  8  1  0  0  0
  8 16  1  0  0  0
  9 10  1  0  0  0
  9 11  1  0  0  0
 10 17  1  0  0  0
 11 12  1  0  0  0
 11  2  1  0  0  0
 12 18  1  0  0  0
M  END
>  <CHROM.0>
-178.00364143,-61.07425562,-62.14078250

>  <CHROM.1>
92.18671274,-62.19662820,65.51332265,60.97120935,-73.02189289,-179.76147048
35.55987931,1.52847836,-62.59107039,2.86323818,-1.03802166,-0.89243071

>  <Energy>
24.659169634219772

>  <Genealogy>
N[C@@H]1[C@@H](O)O[C@H](CO)[C@@H](O)[C@@H]1O (3D coordinates assigned)
N[C@@H]1[C@@H](O)O[C@H](CO)[C@@H](O)[C@@H]1O (nonaromatic ring conformer: 24.659169634219772 kcal/mol)

>  <Name>
12302999

>  <RI>
2.59779e+07

>  <Rbt.Current_Directory>
/home/edward/Documentos/Virtual_Screening/rDock/N-terminal/2

>  <Rbt.Executable>
rbdock ($Id: //depot/dev/client3/rdock/2013.1/src/exe/rbdock.cxx#4 $)

>  <Rbt.Library>
libRbt.so (2013.1, Build901 2013/11/27)

>  <Rbt.Parameter_File>
/home/edward/anaconda3/envs/MD/share/rdock-2013.1-1/data/scripts/dock.prm

>  <Rbt.Receptor>
parameters.prm

>  <SCORE>
-25.0709

>  <SCORE.INTER>
-22.4563

>  <SCORE.INTER.CONST>
1

>  <SCORE.INTER.POLAR>
-4.675

>  <SCORE.INTER.REPUL>
0.00462106

>  <SCORE.INTER.ROT>
2

>  <SCORE.INTER.VDW>
-13.9844

>  <SCORE.INTER.norm>
-1.87135

>  <SCORE.INTRA>
-1.61866

>  <SCORE.INTRA.DIHEDRAL>
-4.47382

>  <SCORE.INTRA.DIHEDRAL.0>
6.66316

>  <SCORE.INTRA.POLAR>
-0.00170101

>  <SCORE.INTRA.POLAR.0>
0

>  <SCORE.INTRA.REPUL>
0

>  <SCORE.INTRA.REPUL.0>
0

>  <SCORE.INTRA.VDW>
0.624038

>  <SCORE.INTRA.VDW.0>
-0.890055

>  <SCORE.INTRA.norm>
-0.134888

>  <SCORE.RESTR>
0

>  <SCORE.RESTR.CAVITY>
0

>  <SCORE.RESTR.norm>
0

>  <SCORE.SYSTEM>
-0.996005

>  <SCORE.SYSTEM.CONST>
0

>  <SCORE.SYSTEM.DIHEDRAL>
0.0479352

>  <SCORE.SYSTEM.REPUL>
0.0345242

>  <SCORE.SYSTEM.VDW>
-1.19259

>  <SCORE.SYSTEM.norm>
-0.0830004

>  <SCORE.heavy>
12

>  <SCORE.norm>
-2.08924

>  <SMILES>
N[C@@H]1[C@@H](O)O[C@H](CO)[C@@H](O)[C@@H]1O

>  <UniqueID>
81

$$$$
11908605
  rDOCK(R)          3D
libRbt.so/2013.1/901 2013/11/27
 20 20  0  0  0  0  0  0  0  0999 V2000
   30.5553   -0.6046  -63.8024 C   0  0  0  0  0  0
   31.9467   -0.8745  -63.3304 C   0  0  0  0  0  0
   32.2140   -1.9753  -62.7766 O   0  0  0  0  0  0
   32.9593    0.1304  -63.4783 N   0  0  0  0  0  0
   34.3505   -0.0878  -63.0589 C   0  0  0  0  0  0
   35.2979    0.8487  -63.8336 C   0  0  0  0  0  0
   36.6245    0.4229  -63.6385 O   0  0  0  0  0  0
   35.1233    2.3025  -63.3502 C   0  0  0  0  0  0
   36.1164    3.1089  -63.9342 O   0  0  0  0  0  0
   35.2138    2.3624  -61.8050 C   0  0  0  0  0  0
   34.9682    3.7911  -61.2968 C   0  0  0  0  0  0
   33.5985    4.0086  -61.0896 O   0  0  0  0  0  0
   34.2427    1.5081  -61.2213 O   0  0  0  0  0  0
   34.5102    0.1538  -61.5385 C   0  0  0  0  0  0
   33.6075   -0.6544  -60.8307 O   0  0  0  0  0  0
   32.6801    1.0532  -63.8829 H   0  0  0  0  0  0
   36.6854   -0.5083  -63.9777 H   0  0  0  0  0  0
   35.8956    4.0520  -63.7167 H   0  0  0  0  0  0
   33.1366    3.7264  -61.9219 H   0  0  0  0  0  0
   33.8750   -0.6171  -59.8751 H   0  0  0  0  0  0
  1  2  1  0  0  0
  2  3  2  0  0  0
  2  4  1  0  0  0
  4  5  1  0  0  0
  4 16  1  0  0  0
  5  6  1  0  0  0
  6  7  1  0  0  0
  6  8  1  0  0  0
  7 17  1  0  0  0
  8  9  1  0  0  0
  8 10  1  0  0  0
  9 18  1  0  0  0
 10 11  1  0  0  0
 10 13  1  0  0  0
 11 12  1  0  0  0
 12 19  1  0  0  0
 13 14  1  0  0  0
 14 15  1  0  0  0
 14  5  1  0  0  0
 15 20  1  0  0  0
M  END
>  <CHROM.0>
-174.54488557,-177.78669787,61.75987358

>  <CHROM.1>
156.32882144,59.65521052,171.53628892,88.15482352,-50.80683728,167.98125847
34.09867292,0.98780299,-62.57800817,2.34567671,-0.48689546,-2.56152209

>  <Energy>
24.42759481269387

>  <Genealogy>
CC(=O)N[C@H]1[C@H](O)[C@H](O)[C@@H](CO)O[C@H]1O (3D coordinates assigned)
CC(=O)N[C@H]1[C@H](O)[C@H](O)[C@@H](CO)O[C@H]1O (nonaromatic ring conformer: 24.42759481269387 kcal/mol)

>  <Name>
11908605

>  <RI>
2.59779e+07

>  <Rbt.Current_Directory>
/home/edward/Documentos/Virtual_Screening/rDock/N-terminal/2

>  <Rbt.Executable>
rbdock ($Id: //depot/dev/client3/rdock/2013.1/src/exe/rbdock.cxx#4 $)

>  <Rbt.Library>
libRbt.so (2013.1, Build901 2013/11/27)

>  <Rbt.Parameter_File>
/home/edward/anaconda3/envs/MD/share/rdock-2013.1-1/data/scripts/dock.prm

>  <Rbt.Receptor>
parameters.prm

>  <SCORE>
-25.384

>  <SCORE.INTER>
-22.8326

>  <SCORE.INTER.CONST>
1

>  <SCORE.INTER.POLAR>
-5.44152

>  <SCORE.INTER.REPUL>
0

>  <SCORE.INTER.ROT>
2

>  <SCORE.INTER.VDW>
-11.7315

>  <SCORE.INTER.norm>
-1.52218

>  <SCORE.INTRA>
-2.02296

>  <SCORE.INTRA.DIHEDRAL>
-5.22831

>  <SCORE.INTRA.DIHEDRAL.0>
10.2423

>  <SCORE.INTRA.POLAR>
0

>  <SCORE.INTRA.POLAR.0>
0

>  <SCORE.INTRA.REPUL>
0

>  <SCORE.INTRA.REPUL.0>
0

>  <SCORE.INTRA.VDW>
0.591197

>  <SCORE.INTRA.VDW.0>
-1.59862

>  <SCORE.INTRA.norm>
-0.134864

>  <SCORE.RESTR>
0

>  <SCORE.RESTR.CAVITY>
0

>  <SCORE.RESTR.norm>
0

>  <SCORE.SYSTEM>
-0.528406

>  <SCORE.SYSTEM.CONST>
0

>  <SCORE.SYSTEM.DIHEDRAL>
0.185276

>  <SCORE.SYSTEM.REPUL>
0.0797087

>  <SCORE.SYSTEM.VDW>
-1.01959

>  <SCORE.SYSTEM.norm>
-0.0352271

>  <SCORE.heavy>
15

>  <SCORE.norm>
-1.69227

>  <SMILES>
CC(=O)N[C@H]1[C@H](O)[C@H](O)[C@@H](CO)O[C@H]1O

>  <UniqueID>
83

$$$$
11096158
  rDOCK(R)          3D
libRbt.so/2013.1/901 2013/11/27
 20 20  0  0  0  0  0  0  0  0999 V2000
   30.4894   -0.0858  -63.3483 C   0  0  0  0  0  0
   31.9158   -0.4872  -63.1588 C   0  0  0  0  0  0
   32.1872   -1.6588  -62.7806 O   0  0  0  0  0  0
   32.9643    0.4517  -63.4364 N   0  0  0  0  0  0
   34.3885    0.0997  -63.3556 C   0  0  0  0  0  0
   34.8659    0.1249  -61.8910 C   0  0  0  0  0  0
   34.0542   -0.7270  -61.1290 O   0  0  0  0  0  0
   34.7845    1.4391  -61.3645 O   0  0  0  0  0  0
   35.6967    2.3003  -62.0278 C   0  0  0  0  0  0
   35.6881    3.6557  -61.3115 C   0  0  0  0  0  0
   34.4094    4.2224  -61.3904 O   0  0  0  0  0  0
   35.3037    2.4597  -63.5178 C   0  0  0  0  0  0
   36.2561    3.2459  -64.1900 O   0  0  0  0  0  0
   35.2420    1.0779  -64.1892 C   0  0  0  0  0  0
   34.7211    1.2092  -65.4868 O   0  0  0  0  0  0
   32.6957    1.3896  -63.8122 H   0  0  0  0  0  0
   34.3766   -0.6581  -60.1927 H   0  0  0  0  0  0
   34.5438    5.2056  -61.4011 H   0  0  0  0  0  0
   36.2011    4.1619  -63.8112 H   0  0  0  0  0  0
   35.2975    1.8640  -65.9609 H   0  0  0  0  0  0
  1  2  1  0  0  0
  2  3  2  0  0  0
  2  4  1  0  0  0
  4  5  1  0  0  0
  4 16  1  0  0  0
  5  6  1  0  0  0
  6  7  1  0  0  0
  6  8  1  0  0  0
  7 17  1  0  0  0
  8  9  1  0  0  0
  9 10  1  0  0  0
  9 12  1  0  0  0
 10 11  1  0  0  0
 11 18  1  0  0  0
 12 13  1  0  0  0
 12 14  1  0  0  0
 13 19  1  0  0  0
 14 15  1  0  0  0
 14  5  1  0  0  0
 15 20  1  0  0  0
M  END
>  <CHROM.0>
-178.84085296,63.59737823,178.86821668

>  <CHROM.1>
-80.10373795,-178.22109614,-61.91863869,-149.15393253,-66.30011887,178.62221638
34.20187779,1.19855491,-62.83259331,-2.97061388,0.84810747,1.43823271

>  <Energy>
23.309873386510723

>  <Genealogy>
CC(=O)N[C@@H]1[C@H](O)O[C@H](CO)[C@@H](O)[C@@H]1O (3D coordinates assigned)
CC(=O)N[C@@H]1[C@H](O)O[C@H](CO)[C@@H](O)[C@@H]1O (nonaromatic ring conformer: 23.309873386510723 kcal/mol)

>  <Name>
11096158

>  <RI>
2.59779e+07

>  <Rbt.Current_Directory>
/home/edward/Documentos/Virtual_Screening/rDock/N-terminal/2

>  <Rbt.Executable>
rbdock ($Id: //depot/dev/client3/rdock/2013.1/src/exe/rbdock.cxx#4 $)

>  <Rbt.Library>
libRbt.so (2013.1, Build901 2013/11/27)

>  <Rbt.Parameter_File>
/home/edward/anaconda3/envs/MD/share/rdock-2013.1-1/data/scripts/dock.prm

>  <Rbt.Receptor>
parameters.prm

>  <SCORE>
-26.9237

>  <SCORE.INTER>
-26.896

>  <SCORE.INTER.CONST>
1

>  <SCORE.INTER.POLAR>
-6.15632

>  <SCORE.INTER.REPUL>
0

>  <SCORE.INTER.ROT>
2

>  <SCORE.INTER.VDW>
-13.3645

>  <SCORE.INTER.norm>
-1.79307

>  <SCORE.INTRA>
0.198261

>  <SCORE.INTRA.DIHEDRAL>
-1.15241

>  <SCORE.INTRA.DIHEDRAL.0>
6.53945

>  <SCORE.INTRA.POLAR>
-0.0108142

>  <SCORE.INTRA.POLAR.0>
0

>  <SCORE.INTRA.REPUL>
0

>  <SCORE.INTRA.REPUL.0>
0

>  <SCORE.INTRA.VDW>
0.811232

>  <SCORE.INTRA.VDW.0>
-2.02149

>  <SCORE.INTRA.norm>
0.0132174

>  <SCORE.RESTR>
0

>  <SCORE.RESTR.CAVITY>
0

>  <SCORE.RESTR.norm>
0

>  <SCORE.SYSTEM>
-0.225952

>  <SCORE.SYSTEM.CONST>
0

>  <SCORE.SYSTEM.DIHEDRAL>
0.0766211

>  <SCORE.SYSTEM.REPUL>
0.176928

>  <SCORE.SYSTEM.VDW>
-1.1489

>  <SCORE.SYSTEM.norm>
-0.0150634

>  <SCORE.heavy>
15

>  <SCORE.norm>
-1.79491

>  <SMILES>
CC(=O)N[C@@H]1[C@H](O)O[C@H](CO)[C@@H](O)[C@@H]1O

>  <UniqueID>
85

$$$$
9816401
  rDOCK(R)          3D
libRbt.so/2013.1/901 2013/11/27
 22 22  0  0  0  0  0  0  0  0999 V2000
   34.4896    5.1808  -59.7232 C   0  0  0  0  0  0
   34.9321    3.7836  -60.1506 C   0  0  0  0  0  0
   34.3225    3.4750  -61.3930 O   0  0  0  0  0  0
   34.6342    2.1583  -61.8282 C   0  0  0  0  0  0
   33.4500    1.2244  -61.5168 C   0  0  0  0  0  0
   33.3286    1.0804  -60.1238 O   0  0  0  0  0  0
   33.6863   -0.1580  -62.1723 C   0  0  0  0  0  0
   32.5136   -1.1136  -61.9146 C   0  0  0  0  0  0
   32.7534   -2.3567  -62.5159 O   0  0  0  0  0  0
   33.8562   -0.0302  -63.5756 O   0  0  0  0  0  0
   35.0020    0.7441  -63.8962 C   0  0  0  0  0  0
   36.1792    0.1294  -63.4332 O   0  0  0  0  0  0
   34.8778    2.1829  -63.3499 C   0  0  0  0  0  0
   36.0881    2.9480  -63.6604 N   0  0  0  0  0  0
   36.4279    3.7428  -60.2894 C   0  0  0  0  0  0
   36.9783    4.1820  -61.3331 O   0  0  0  0  0  0
   37.2130    3.2280  -59.2646 O   0  5  0  0  0  0
   34.0456    0.4608  -59.8284 H   0  0  0  0  0  0
   31.9638   -2.9203  -62.3073 H   0  0  0  0  0  0
   36.2280   -0.7546  -63.8819 H   0  0  0  0  0  0
   36.0054    3.8900  -63.2145 H   0  0  0  0  0  0
   36.1110    3.1278  -64.6907 H   0  0  0  0  0  0
  1  2  1  0  0  0
  2  3  1  0  0  0
  2 15  1  0  0  0
  3  4  1  0  0  0
  4  5  1  0  0  0
  5  6  1  0  0  0
  5  7  1  0  0  0
  6 18  1  0  0  0
  7  8  1  0  0  0
  7 10  1  0  0  0
  8  9  1  0  0  0
  9 19  1  0  0  0
 10 11  1  0  0  0
 11 12  1  0  0  0
 11 13  1  0  0  0
 12 20  1  0  0  0
 13 14  1  0  0  0
 13  4  1  0  0  0
 14 21  1  0  0  0
 14 22  1  0  0  0
 15 16  2  0  0  0
 15 17  1  0  0  0
M  END
>  <CHROM.0>
-176.05866211,-177.13783805,-60.17827612

>  <CHROM.1>
-177.10218531,-80.75384165,100.60723468,-76.26077679,-179.90192846,179.76508958
60.06153655,-53.52899452,34.75541377,1.74647955,-61.78165089,0.97151051,0.74450485
0.86237211

>  <Energy>
30.58300685588751

>  <Genealogy>
C[C@@H](O[C@H]1[C@H](O)[C@@H](CO)O[C@H](O)[C@@H]1N)C(=O)[O-] (protonated)
C[C@@H](O[C@H]1[C@H](O)[C@@H](CO)O[C@H](O)[C@@H]1N)C(=O)[O-] (3D coordinates assigned)
C[C@@H](O[C@H]1[C@H](O)[C@@H](CO)O[C@H](O)[C@@H]1N)C(=O)[O-] (nonaromatic ring conformer: 30.58300685588751 kcal/mol)

>  <Name>
9816401

>  <RI>
2.59779e+07

>  <Rbt.Current_Directory>
/home/edward/Documentos/Virtual_Screening/rDock/N-terminal/2

>  <Rbt.Executable>
rbdock ($Id: //depot/dev/client3/rdock/2013.1/src/exe/rbdock.cxx#4 $)

>  <Rbt.Library>
libRbt.so (2013.1, Build901 2013/11/27)

>  <Rbt.Parameter_File>
/home/edward/anaconda3/envs/MD/share/rdock-2013.1-1/data/scripts/dock.prm

>  <Rbt.Receptor>
parameters.prm

>  <SCORE>
-21.0572

>  <SCORE.INTER>
-16.9974

>  <SCORE.INTER.CONST>
1

>  <SCORE.INTER.POLAR>
-3.91843

>  <SCORE.INTER.REPUL>
0.00857727

>  <SCORE.INTER.ROT>
5

>  <SCORE.INTER.VDW>
-14.1176

>  <SCORE.INTER.norm>
-0.999847

>  <SCORE.INTRA>
-3.65949

>  <SCORE.INTRA.DIHEDRAL>
-6.6533

>  <SCORE.INTRA.DIHEDRAL.0>
14.6985

>  <SCORE.INTRA.POLAR>
-0.315774

>  <SCORE.INTRA.POLAR.0>
0

>  <SCORE.INTRA.REPUL>
0

>  <SCORE.INTRA.REPUL.0>
0

>  <SCORE.INTRA.VDW>
0.740789

>  <SCORE.INTRA.VDW.0>
-2.56078

>  <SCORE.INTRA.norm>
-0.215264

>  <SCORE.RESTR>
0

>  <SCORE.RESTR.CAVITY>
0

>  <SCORE.RESTR.norm>
0

>  <SCORE.SYSTEM>
-0.40032

>  <SCORE.SYSTEM.CONST>
0

>  <SCORE.SYSTEM.DIHEDRAL>
0.116893

>  <SCORE.SYSTEM.REPUL>
0.0827083

>  <SCORE.SYSTEM.VDW>
-0.872309

>  <SCORE.SYSTEM.norm>
-0.0235483

>  <SCORE.heavy>
17

>  <SCORE.norm>
-1.23866

>  <SMILES>
C[C@@H](O[C@H]1[C@H](O)[C@@H](CO)O[C@H](O)[C@@H]1N)C(=O)[O-]

>  <UniqueID>
87

$$$$
7067772
  rDOCK(R)          3D
libRbt.so/2013.1/901 2013/11/27
 24 24  0  0  0  0  0  0  0  0999 V2000
   31.5605    1.0234  -63.6082 H   0  0  0  0  0  0
   31.5092    0.0155  -63.6716 O   0  0  0  0  0  0
   32.6365   -0.7853  -63.8719 C   0  0  0  0  0  0
   33.9490   -0.2038  -63.7211 N   0  0  0  0  0  0
   34.7436   -0.5682  -64.2933 H   0  0  0  0  0  0
   34.2410    0.8891  -62.7872 C   0  0  0  0  0  0
   34.6791    0.3160  -61.4224 C   0  0  0  0  0  0
   33.6260   -0.4287  -60.8687 O   0  0  0  0  0  0
   33.8617   -0.6102  -59.9217 H   0  0  0  0  0  0
   34.9856    1.3710  -60.5292 O   0  0  0  0  0  0
   36.1203    2.0951  -60.9757 C   0  0  0  0  0  0
   36.5081    3.1115  -59.8913 C   0  0  0  0  0  0
   37.7330    3.7178  -60.2059 O   0  0  0  0  0  0
   38.4281    3.0121  -60.1393 H   0  0  0  0  0  0
   35.8066    2.8118  -62.3091 C   0  0  0  0  0  0
   36.9547    3.4814  -62.7658 O   0  0  0  0  0  0
   36.6545    4.1401  -63.4452 H   0  0  0  0  0  0
   35.3581    1.7783  -63.3596 C   0  0  0  0  0  0
   34.8867    2.4346  -64.5085 O   0  0  0  0  0  0
   35.6540    2.9334  -64.8932 H   0  0  0  0  0  0
   32.4935   -2.0513  -64.2058 N   0  3  0  0  0  0
   31.2275   -2.6447  -64.4042 N   0  0  0  0  0  0
   31.0509   -3.8799  -64.4565 O   0  0  0  0  0  0
   33.6548   -2.9245  -64.3984 C   0  0  0  0  0  0
  1  2  1  0  0  0
  2  3  1  0  0  0
  3  4  1  0  0  0
  3 21  2  0  0  0
  4  5  1  0  0  0
  4  6  1  0  0  0
  6  7  1  0  0  0
  7  8  1  0  0  0
  7 10  1  0  0  0
  8  9  1  0  0  0
 10 11  1  0  0  0
 11 12  1  0  0  0
 11 15  1  0  0  0
 12 13  1  0  0  0
 13 14  1  0  0  0
 15 16  1  0  0  0
 15 18  1  0  0  0
 16 17  1  0  0  0
 18 19  1  0  0  0
 18  6  1  0  0  0
 19 20  1  0  0  0
 21 22  1  0  0  0
 21 24  1  0  0  0
 22 23  2  0  0  0
M  END
>  <CHROM.0>
-72.59071995,-177.83455303,63.98029047

>  <CHROM.1>
12.64486925,90.95538602,-167.75936762,171.69530852,-67.26393600,-162.92500458
-175.13253485,-165.26057480,34.31792492,0.53235384,-62.68059888,-2.97488041
0.91626084,1.86422371

>  <Energy>
35.84846761146365

>  <Genealogy>
C[NH+](N=O)C(=O)N[C@H]1[C@H](O)O[C@H](CO)[C@@H](O)[C@@H]1O (protonated)
C[N+](N=O)=C(O)N[C@H]1[C@H](O)O[C@H](CO)[C@@H](O)[C@@H]1O (tautomer)
C/[N+](N=O)=C(\O)N[C@H]1[C@H](O)O[C@H](CO)[C@@H](O)[C@@H]1O (cis-trans isomerization)
C/[N+](N=O)=C(\O)N[C@H]1[C@H](O)O[C@H](CO)[C@@H](O)[C@@H]1O (3D coordinates assigned)
C/[N+](N=O)=C(\O)N[C@H]1[C@H](O)O[C@H](CO)[C@@H](O)[C@@H]1O (nonaromatic ring conformer: 35.84846761146365 kcal/mol)

>  <Name>
7067772

>  <RI>
2.59779e+07

>  <Rbt.Current_Directory>
/home/edward/Documentos/Virtual_Screening/rDock/N-terminal/2

>  <Rbt.Executable>
rbdock ($Id: //depot/dev/client3/rdock/2013.1/src/exe/rbdock.cxx#4 $)

>  <Rbt.Library>
libRbt.so (2013.1, Build901 2013/11/27)

>  <Rbt.Parameter_File>
/home/edward/anaconda3/envs/MD/share/rdock-2013.1-1/data/scripts/dock.prm

>  <Rbt.Receptor>
parameters.prm

>  <SCORE>
-32.5795

>  <SCORE.INTER>
-28.7317

>  <SCORE.INTER.CONST>
1

>  <SCORE.INTER.POLAR>
-6.07833

>  <SCORE.INTER.REPUL>
0

>  <SCORE.INTER.ROT>
3

>  <SCORE.INTER.VDW>
-16.4653

>  <SCORE.INTER.norm>
-1.5962

>  <SCORE.INTRA>
-4.29709

>  <SCORE.INTRA.DIHEDRAL>
-6.74267

>  <SCORE.INTRA.DIHEDRAL.0>
12.6747

>  <SCORE.INTRA.POLAR>
-0.625

>  <SCORE.INTRA.POLAR.0>
0

>  <SCORE.INTRA.REPUL>
0

>  <SCORE.INTRA.REPUL.0>
0

>  <SCORE.INTRA.VDW>
1.19924

>  <SCORE.INTRA.VDW.0>
-1.87843

>  <SCORE.INTRA.norm>
-0.238727

>  <SCORE.RESTR>
0

>  <SCORE.RESTR.CAVITY>
0

>  <SCORE.RESTR.norm>
0

>  <SCORE.SYSTEM>
0.449262

>  <SCORE.SYSTEM.CONST>
0

>  <SCORE.SYSTEM.DIHEDRAL>
0.855384

>  <SCORE.SYSTEM.REPUL>
0.054914

>  <SCORE.SYSTEM.VDW>
-0.253

>  <SCORE.SYSTEM.norm>
0.024959

>  <SCORE.heavy>
18

>  <SCORE.norm>
-1.80997

>  <SMILES>
C/[N+](N=O)=C(\O)N[C@H]1[C@H](O)O[C@H](CO)[C@@H](O)[C@@H]1O

>  <UniqueID>
90

$$$$
6971258
  rDOCK(R)          3D
libRbt.so/2013.1/901 2013/11/27
 20 20  0  0  0  0  0  0  0  0999 V2000
   33.9630   -0.4316  -63.4263 H   0  0  0  0  0  0
   34.7509   -1.0459  -63.2598 O   0  0  0  0  0  0
   35.8401   -0.6312  -62.4940 C   0  0  0  0  0  0
   35.8529    0.5435  -61.9386 N   0  0  0  0  0  0
   34.7763    1.5343  -62.0497 C   0  0  0  0  0  0
   34.0472    1.6580  -60.6979 C   0  0  0  0  0  0
   33.5018    0.4169  -60.3306 O   0  0  0  0  0  0
   34.2455   -0.1501  -59.9969 H   0  0  0  0  0  0
   34.9192    2.1185  -59.6730 O   0  0  0  0  0  0
   35.4388    3.4163  -59.9414 C   0  0  0  0  0  0
   34.3748    4.5256  -59.7663 C   0  0  0  0  0  0
   33.5167    4.5643  -60.8745 O   0  0  0  0  0  0
   34.0210    5.0022  -61.6090 H   0  0  0  0  0  0
   36.1972    3.4756  -61.2923 C   0  0  0  0  0  0
   36.5828    4.7980  -61.5709 O   0  0  0  0  0  0
   37.0177    4.7915  -62.4633 H   0  0  0  0  0  0
   35.3383    2.9158  -62.4397 C   0  0  0  0  0  0
   36.1136    2.8259  -63.6071 O   0  0  0  0  0  0
   36.3029    3.7564  -63.8972 H   0  0  0  0  0  0
   37.0180   -1.5360  -62.3278 C   0  0  0  0  0  0
  1  2  1  0  0  0
  2  3  1  0  0  0
  3  4  2  0  0  0
  3 20  1  0  0  0
  4  5  1  0  0  0
  5  6  1  0  0  0
  6  7  1  0  0  0
  6  9  1  0  0  0
  7  8  1  0  0  0
  9 10  1  0  0  0
 10 11  1  0  0  0
 10 14  1  0  0  0
 11 12  1  0  0  0
 12 13  1  0  0  0
 14 15  1  0  0  0
 14 17  1  0  0  0
 15 16  1  0  0  0
 17 18  1  0  0  0
 17  5  1  0  0  0
 18 19  1  0  0  0
M  END
>  <CHROM.0>
-176.80204126,-63.65026273,63.30020144

>  <CHROM.1>
2.14407749,108.98189375,76.53363632,-77.78056193,-75.98466947,-176.96676680
169.75470500,35.20209648,1.99616265,-61.50516721,1.38988393,-0.83446802,-2.93887252

>  <Energy>
29.437824735680547

>  <Genealogy>
CC(O)=N[C@H]1[C@@H](O)O[C@H](CO)[C@H](O)[C@H]1O (tautomer)
C/C(O)=N/[C@H]1[C@@H](O)O[C@H](CO)[C@H](O)[C@H]1O (cis-trans isomerization)
C/C(O)=N/[C@H]1[C@@H](O)O[C@H](CO)[C@H](O)[C@H]1O (3D coordinates assigned)
C/C(O)=N/[C@H]1[C@@H](O)O[C@H](CO)[C@H](O)[C@H]1O (nonaromatic ring conformer: 29.437824735680547 kcal/mol)

>  <Name>
6971258

>  <RI>
2.59779e+07

>  <Rbt.Current_Directory>
/home/edward/Documentos/Virtual_Screening/rDock/N-terminal/2

>  <Rbt.Executable>
rbdock ($Id: //depot/dev/client3/rdock/2013.1/src/exe/rbdock.cxx#4 $)

>  <Rbt.Library>
libRbt.so (2013.1, Build901 2013/11/27)

>  <Rbt.Parameter_File>
/home/edward/anaconda3/envs/MD/share/rdock-2013.1-1/data/scripts/dock.prm

>  <Rbt.Receptor>
parameters.prm

>  <SCORE>
-22.218

>  <SCORE.INTER>
-20.0182

>  <SCORE.INTER.CONST>
1

>  <SCORE.INTER.POLAR>
-4.58693

>  <SCORE.INTER.REPUL>
0.607047

>  <SCORE.INTER.ROT>
2

>  <SCORE.INTER.VDW>
-14.8579

>  <SCORE.INTER.norm>
-1.33455

>  <SCORE.INTRA>
-1.09453

>  <SCORE.INTRA.DIHEDRAL>
-3.26456

>  <SCORE.INTRA.DIHEDRAL.0>
7.80688

>  <SCORE.INTRA.POLAR>
0

>  <SCORE.INTRA.POLAR.0>
0

>  <SCORE.INTRA.REPUL>
0

>  <SCORE.INTRA.REPUL.0>
0

>  <SCORE.INTRA.VDW>
0.537748

>  <SCORE.INTRA.VDW.0>
-1.81585

>  <SCORE.INTRA.norm>
-0.0729689

>  <SCORE.RESTR>
0

>  <SCORE.RESTR.CAVITY>
0

>  <SCORE.RESTR.norm>
0

>  <SCORE.SYSTEM>
-1.10518

>  <SCORE.SYSTEM.CONST>
0

>  <SCORE.SYSTEM.DIHEDRAL>
0.169517

>  <SCORE.SYSTEM.REPUL>
0.0312035

>  <SCORE.SYSTEM.VDW>
-1.34596

>  <SCORE.SYSTEM.norm>
-0.0736788

>  <SCORE.heavy>
15

>  <SCORE.norm>
-1.4812

>  <SMILES>
C/C(O)=N/[C@H]1[C@@H](O)O[C@H](CO)[C@H](O)[C@H]1O

>  <UniqueID>
92

$$$$
6713972
  rDOCK(R)          3D
libRbt.so/2013.1/901 2013/11/27
 24 24  0  0  0  0  0  0  0  0999 V2000
   32.4902   -1.8154  -65.1350 H   0  0  0  0  0  0
   32.4801   -2.2884  -64.2395 O   0  0  0  0  0  0
   32.9726   -1.6653  -63.0920 C   0  0  0  0  0  0
   34.1840   -0.8945  -63.2031 N   0  0  0  0  0  0
   34.9046   -1.2648  -63.8634 H   0  0  0  0  0  0
   34.3207    0.4892  -62.7155 C   0  0  0  0  0  0
   34.7672    0.5129  -61.2350 C   0  0  0  0  0  0
   35.9557   -0.2154  -61.0463 O   0  0  0  0  0  0
   36.1546   -0.1787  -60.0745 H   0  0  0  0  0  0
   34.9019    1.8448  -60.7614 O   0  0  0  0  0  0
   35.9033    2.5574  -61.4736 C   0  0  0  0  0  0
   36.0642    3.9419  -60.8277 C   0  0  0  0  0  0
   34.8190    4.5786  -60.7209 O   0  0  0  0  0  0
   34.6955    5.1090  -61.5509 H   0  0  0  0  0  0
   35.5184    2.6938  -62.9648 C   0  0  0  0  0  0
   36.5269    3.3806  -63.6616 O   0  0  0  0  0  0
   36.4330    4.3408  -63.4269 H   0  0  0  0  0  0
   35.3011    1.3003  -63.5861 C   0  0  0  0  0  0
   36.5240    0.6132  -63.6970 O   0  0  0  0  0  0
   36.3308   -0.2546  -64.1385 H   0  0  0  0  0  0
   32.3476   -1.8089  -61.9498 N   0  3  0  0  0  0
   32.9463   -1.3474  -60.7626 N   0  0  0  0  0  0
   32.3196   -1.2994  -59.6837 O   0  0  0  0  0  0
   31.0966   -2.5774  -61.8834 C   0  0  0  0  0  0
  1  2  1  0  0  0
  2  3  1  0  0  0
  3  4  1  0  0  0
  3 21  2  0  0  0
  4  5  1  0  0  0
  4  6  1  0  0  0
  6  7  1  0  0  0
  7  8  1  0  0  0
  7 10  1  0  0  0
  8  9  1  0  0  0
 10 11  1  0  0  0
 11 12  1  0  0  0
 11 15  1  0  0  0
 12 13  1  0  0  0
 13 14  1  0  0  0
 15 16  1  0  0  0
 15 18  1  0  0  0
 16 17  1  0  0  0
 18 19  1  0  0  0
 18  6  1  0  0  0
 19 20  1  0  0  0
 21 22  1  0  0  0
 21 24  1  0  0  0
 22 23  2  0  0  0
M  END
>  <CHROM.0>
-177.46475687,-177.03347918,-178.73145584

>  <CHROM.1>
-41.04093112,88.41550318,-178.02612326,-52.14229899,-91.03384025,-76.00542635
61.27549907,170.25444393,34.40859719,0.56321411,-62.08507475,-2.63142982
0.87619448,0.97778601

>  <Energy>
38.163014993226

>  <Genealogy>
C[NH+](N=O)C(=O)NC1[C@@H](O)OC(CO)[C@@H](O)[C@H]1O (protonated)
C[N+](N=O)=C(O)NC1[C@@H](O)OC(CO)[C@@H](O)[C@H]1O (tautomer)
C[N+](N=O)=C(O)N[C@H]1[C@@H](O)O[C@H](CO)[C@@H](O)[C@H]1O (chirality)
C/[N+](N=O)=C(\O)N[C@H]1[C@@H](O)O[C@H](CO)[C@@H](O)[C@H]1O (cis-trans isomerization)
C/[N+](N=O)=C(\O)N[C@H]1[C@@H](O)O[C@H](CO)[C@@H](O)[C@H]1O (3D coordinates assigned)
C/[N+](N=O)=C(\O)N[C@H]1[C@@H](O)O[C@H](CO)[C@@H](O)[C@H]1O (nonaromatic ring conformer: 38.163014993226 kcal/mol)

>  <Name>
6713972

>  <RI>
2.59779e+07

>  <Rbt.Current_Directory>
/home/edward/Documentos/Virtual_Screening/rDock/N-terminal/2

>  <Rbt.Executable>
rbdock ($Id: //depot/dev/client3/rdock/2013.1/src/exe/rbdock.cxx#4 $)

>  <Rbt.Library>
libRbt.so (2013.1, Build901 2013/11/27)

>  <Rbt.Parameter_File>
/home/edward/anaconda3/envs/MD/share/rdock-2013.1-1/data/scripts/dock.prm

>  <Rbt.Receptor>
parameters.prm

>  <SCORE>
-27.2325

>  <SCORE.INTER>
-27.9997

>  <SCORE.INTER.CONST>
1

>  <SCORE.INTER.POLAR>
-5.92954

>  <SCORE.INTER.REPUL>
0

>  <SCORE.INTER.ROT>
3

>  <SCORE.INTER.VDW>
-16.2393

>  <SCORE.INTER.norm>
-1.55554

>  <SCORE.INTRA>
1.22251

>  <SCORE.INTRA.DIHEDRAL>
-1.39584

>  <SCORE.INTRA.DIHEDRAL.0>
9.02077

>  <SCORE.INTRA.POLAR>
0

>  <SCORE.INTRA.POLAR.0>
0

>  <SCORE.INTRA.REPUL>
-0.00112877

>  <SCORE.INTRA.REPUL.0>
0.00112877

>  <SCORE.INTRA.VDW>
1.92608

>  <SCORE.INTRA.VDW.0>
-1.24919

>  <SCORE.INTRA.norm>
0.0679174

>  <SCORE.RESTR>
0

>  <SCORE.RESTR.CAVITY>
0

>  <SCORE.RESTR.norm>
0

>  <SCORE.SYSTEM>
-0.455342

>  <SCORE.SYSTEM.CONST>
0

>  <SCORE.SYSTEM.DIHEDRAL>
0.0829501

>  <SCORE.SYSTEM.REPUL>
0.0864128

>  <SCORE.SYSTEM.VDW>
-0.928881

>  <SCORE.SYSTEM.norm>
-0.0252968

>  <SCORE.heavy>
18

>  <SCORE.norm>
-1.51292

>  <SMILES>
C/[N+](N=O)=C(\O)N[C@H]1[C@@H](O)O[C@H](CO)[C@@H](O)[C@H]1O

>  <UniqueID>
93

$$$$
6420074
  rDOCK(R)          3D
libRbt.so/2013.1/901 2013/11/27
 23 23  0  0  0  0  0  0  0  0999 V2000
   33.8547   -2.3911  -64.4133 C   0  0  0  0  0  0
   33.5385   -1.0330  -63.9589 N   0  0  0  0  0  0
   32.3541   -0.4131  -64.3966 N   0  0  0  0  0  0
   31.7453    0.4084  -63.6792 O   0  0  0  0  0  0
   34.3799   -0.3490  -63.0100 C   0  0  0  0  0  0
   35.3404   -0.9629  -62.4712 O   0  0  0  0  0  0
   34.1317    1.0325  -62.6844 N   0  0  0  0  0  0
   34.9228    1.8395  -61.7427 C   0  0  0  0  0  0
   34.1579    2.1006  -60.4288 C   0  0  0  0  0  0
   33.7489    0.8806  -59.8676 O   0  0  0  0  0  0
   34.9742    2.7884  -59.4940 O   0  0  0  0  0  0
   35.3802    4.0733  -59.9537 C   0  0  0  0  0  0
   34.2569    5.1326  -59.8409 C   0  0  0  0  0  0
   33.3559    5.0787  -60.9150 O   0  0  0  0  0  0
   36.1137    4.0365  -61.3282 C   0  0  0  0  0  0
   37.4456    3.6065  -61.1664 O   0  0  0  0  0  0
   35.3794    3.1637  -62.3735 C   0  0  0  0  0  0
   36.2228    2.8935  -63.4641 O   0  0  0  0  0  0
   33.3393    1.5194  -63.1594 H   0  0  0  0  0  0
   34.5560    0.3063  -59.7922 H   0  0  0  0  0  0
   33.8363    5.4181  -61.7150 H   0  0  0  0  0  0
   37.9169    3.7341  -62.0302 H   0  0  0  0  0  0
   36.4729    3.7701  -63.8575 H   0  0  0  0  0  0
  1  2  1  0  0  0
  2  3  1  0  0  0
  2  5  1  0  0  0
  3  4  2  0  0  0
  5  6  2  0  0  0
  5  7  1  0  0  0
  7  8  1  0  0  0
  7 19  1  0  0  0
  8  9  1  0  0  0
  9 10  1  0  0  0
  9 11  1  0  0  0
 10 20  1  0  0  0
 11 12  1  0  0  0
 12 13  1  0  0  0
 12 15  1  0  0  0
 13 14  1  0  0  0
 14 21  1  0  0  0
 15 16  1  0  0  0
 15 17  1  0  0  0
 16 22  1  0  0  0
 17 18  1  0  0  0
 17  8  1  0  0  0
 18 23  1  0  0  0
M  END
>  <CHROM.0>
-173.02048138,-177.66478512,61.08549928

>  <CHROM.1>
148.79515743,-107.31698436,53.39718657,-81.95445069,-70.93128867,-171.10005306
178.39150540,34.52528933,1.78745697,-61.95428175,-1.86692312,0.20354556,0.62915794

>  <Energy>
38.33038997481526

>  <Genealogy>
CN(N=O)C(=O)N[C@@H]1[C@@H](O)O[C@H](CO)[C@@H](O)[C@H]1O (chirality)
CN(N=O)C(=O)N[C@@H]1[C@@H](O)O[C@H](CO)[C@@H](O)[C@H]1O (3D coordinates assigned)
CN(N=O)C(=O)N[C@@H]1[C@@H](O)O[C@H](CO)[C@@H](O)[C@H]1O (nonaromatic ring conformer: 38.33038997481526 kcal/mol)

>  <Name>
6420074

>  <RI>
2.59779e+07

>  <Rbt.Current_Directory>
/home/edward/Documentos/Virtual_Screening/rDock/N-terminal/2

>  <Rbt.Executable>
rbdock ($Id: //depot/dev/client3/rdock/2013.1/src/exe/rbdock.cxx#4 $)

>  <Rbt.Library>
libRbt.so (2013.1, Build901 2013/11/27)

>  <Rbt.Parameter_File>
/home/edward/anaconda3/envs/MD/share/rdock-2013.1-1/data/scripts/dock.prm

>  <Rbt.Receptor>
parameters.prm

>  <SCORE>
-25.2812

>  <SCORE.INTER>
-21.4906

>  <SCORE.INTER.CONST>
1

>  <SCORE.INTER.POLAR>
-4.30469

>  <SCORE.INTER.REPUL>
0.0666089

>  <SCORE.INTER.ROT>
3

>  <SCORE.INTER.VDW>
-15.5877

>  <SCORE.INTER.norm>
-1.19392

>  <SCORE.INTRA>
-3.28765

>  <SCORE.INTRA.DIHEDRAL>
-2.90018

>  <SCORE.INTRA.DIHEDRAL.0>
8.73367

>  <SCORE.INTRA.POLAR>
0

>  <SCORE.INTRA.POLAR.0>
0

>  <SCORE.INTRA.REPUL>
-0.287007

>  <SCORE.INTRA.REPUL.0>
0.287007

>  <SCORE.INTRA.VDW>
-0.402529

>  <SCORE.INTRA.VDW.0>
-1.34402

>  <SCORE.INTRA.norm>
-0.182647

>  <SCORE.RESTR>
0

>  <SCORE.RESTR.CAVITY>
0

>  <SCORE.RESTR.norm>
0

>  <SCORE.SYSTEM>
-0.502863

>  <SCORE.SYSTEM.CONST>
0

>  <SCORE.SYSTEM.DIHEDRAL>
0.270419

>  <SCORE.SYSTEM.REPUL>
0.0751545

>  <SCORE.SYSTEM.VDW>
-1.01385

>  <SCORE.SYSTEM.norm>
-0.0279369

>  <SCORE.heavy>
18

>  <SCORE.norm>
-1.40451

>  <SMILES>
CN(N=O)C(=O)N[C@@H]1[C@@H](O)O[C@H](CO)[C@@H](O)[C@H]1O

>  <UniqueID>
96

$$$$
6323218
  rDOCK(R)          3D
libRbt.so/2013.1/901 2013/11/27
 24 24  0  0  0  0  0  0  0  0999 V2000
   33.1063   -3.2203  -65.1392 C   0  0  0  0  0  0
   34.0010   -2.3507  -64.3181 C   0  0  0  0  0  0
   35.0201   -2.8497  -63.7684 O   0  0  0  0  0  0
   33.6977   -0.9565  -64.1674 N   0  0  0  0  0  0
   34.4525   -0.0699  -63.2750 C   0  0  0  0  0  0
   35.4144    0.8178  -64.0895 C   0  0  0  0  0  0
   34.7285    1.5302  -65.0900 O   0  0  0  0  0  0
   36.1376    1.6958  -63.2399 O   0  0  0  0  0  0
   35.2756    2.5908  -62.5513 C   0  0  0  0  0  0
   36.1566    3.5678  -61.7540 C   0  0  0  0  0  0
   37.2546    4.0004  -62.5122 O   0  0  0  0  0  0
   34.3101    1.8118  -61.6224 C   0  0  0  0  0  0
   33.4212    2.6982  -60.9890 O   0  0  0  0  0  0
   33.4942    0.8006  -62.4427 C   0  0  0  0  0  0
   32.7648   -0.0230  -61.5435 O   0  0  0  0  0  0
   31.7904   -0.8137  -62.2050 C   0  0  0  0  0  0
   30.5617    0.0345  -62.5443 C   0  0  0  0  0  0
   31.3865   -1.9368  -61.2976 C   0  0  0  0  0  0
   31.2896   -1.7498  -60.0556 O   0  0  0  0  0  0
   31.0746   -3.1821  -61.8292 O   0  5  0  0  0  0
   32.8158   -0.5987  -64.6001 H   0  0  0  0  0  0
   35.4042    2.1027  -65.5380 H   0  0  0  0  0  0
   36.8871    4.5057  -63.2837 H   0  0  0  0  0  0
   32.8798    3.1317  -61.6992 H   0  0  0  0  0  0
  1  2  1  0  0  0
  2  3  2  0  0  0
  2  4  1  0  0  0
  4  5  1  0  0  0
  4 21  1  0  0  0
  5  6  1  0  0  0
  6  7  1  0  0  0
  6  8  1  0  0  0
  7 22  1  0  0  0
  8  9  1  0  0  0
  9 10  1  0  0  0
  9 12  1  0  0  0
 10 11  1  0  0  0
 11 23  1  0  0  0
 12 13  1  0  0  0
 12 14  1  0  0  0
 13 24  1  0  0  0
 14 15  1  0  0  0
 14  5  1  0  0  0
 15 16  1  0  0  0
 16 17  1  0  0  0
 16 18  1  0  0  0
 18 19  2  0  0  0
 18 20  1  0  0  0
M  END
>  <CHROM.0>
-177.37888212,-176.26089546,59.99892964

>  <CHROM.1>
103.47969864,177.52558453,42.59305204,63.64449436,62.61352428,-72.17179200
-77.96115262,37.07012416,33.78159150,0.16174150,-62.72471520,-2.46302044
0.67541085,0.61796784

>  <Energy>
33.3367848860941

>  <Genealogy>
CC(=O)N[C@H]1[C@@H](O)O[C@H](CO)[C@@H](O)[C@@H]1O[C@H](C)C(=O)[O-] (protonated)
CC(=O)N[C@H]1[C@@H](O)O[C@H](CO)[C@@H](O)[C@@H]1O[C@H](C)C(=O)[O-] (3D coordinates assigned)
CC(=O)N[C@H]1[C@@H](O)O[C@H](CO)[C@@H](O)[C@@H]1O[C@H](C)C(=O)[O-] (nonaromatic ring conformer: 33.3367848860941 kcal/mol)

>  <Name>
6323218

>  <RI>
2.59779e+07

>  <Rbt.Current_Directory>
/home/edward/Documentos/Virtual_Screening/rDock/N-terminal/2

>  <Rbt.Executable>
rbdock ($Id: //depot/dev/client3/rdock/2013.1/src/exe/rbdock.cxx#4 $)

>  <Rbt.Library>
libRbt.so (2013.1, Build901 2013/11/27)

>  <Rbt.Parameter_File>
/home/edward/anaconda3/envs/MD/share/rdock-2013.1-1/data/scripts/dock.prm

>  <Rbt.Receptor>
parameters.prm

>  <SCORE>
-22.7613

>  <SCORE.INTER>
-17.9287

>  <SCORE.INTER.CONST>
1

>  <SCORE.INTER.POLAR>
-3.95328

>  <SCORE.INTER.REPUL>
0.000227178

>  <SCORE.INTER.ROT>
5

>  <SCORE.INTER.VDW>
-14.8887

>  <SCORE.INTER.norm>
-0.896437

>  <SCORE.INTRA>
-4.30127

>  <SCORE.INTRA.DIHEDRAL>
-12.9807

>  <SCORE.INTRA.DIHEDRAL.0>
18.8664

>  <SCORE.INTRA.POLAR>
0

>  <SCORE.INTRA.POLAR.0>
0

>  <SCORE.INTRA.REPUL>
0

>  <SCORE.INTRA.REPUL.0>
0

>  <SCORE.INTRA.VDW>
2.18905

>  <SCORE.INTRA.VDW.0>
-3.64388

>  <SCORE.INTRA.norm>
-0.215064

>  <SCORE.RESTR>
0

>  <SCORE.RESTR.CAVITY>
0

>  <SCORE.RESTR.norm>
0

>  <SCORE.SYSTEM>
-0.53133

>  <SCORE.SYSTEM.CONST>
0

>  <SCORE.SYSTEM.DIHEDRAL>
0.102623

>  <SCORE.SYSTEM.REPUL>
0.0846982

>  <SCORE.SYSTEM.VDW>
-1.00613

>  <SCORE.SYSTEM.norm>
-0.0265665

>  <SCORE.heavy>
20

>  <SCORE.norm>
-1.13807

>  <SMILES>
CC(=O)N[C@H]1[C@@H](O)O[C@H](CO)[C@@H](O)[C@@H]1O[C@H](C)C(=O)[O-]

>  <UniqueID>
98

$$$$
5462244
  rDOCK(R)          3D
libRbt.so/2013.1/901 2013/11/27
 24 24  0  0  0  0  0  0  0  0999 V2000
   31.7271   -2.1525  -58.7482 C   0  0  0  0  0  0
   31.5577   -1.1925  -59.8796 C   0  0  0  0  0  0
   30.4680   -1.1651  -60.5131 O   0  0  0  0  0  0
   32.6465   -0.3388  -60.2596 N   0  0  0  0  0  0
   32.5961    0.5585  -61.4201 C   0  0  0  0  0  0
   33.5029    1.7972  -61.1866 C   0  0  0  0  0  0
   33.4946    2.1721  -59.8340 O   0  0  0  0  0  0
   34.8347    1.5093  -61.5695 O   0  0  0  0  0  0
   34.9715    1.3700  -62.9825 C   0  0  0  0  0  0
   35.3509    2.7186  -63.6123 C   0  0  0  0  0  0
   36.7160    2.9709  -63.4223 O   0  0  0  0  0  0
   33.7306    0.7236  -63.6766 C   0  0  0  0  0  0
   34.1012    0.0471  -64.8535 O   0  0  0  0  0  0
   33.0128   -0.2204  -62.6962 C   0  0  0  0  0  0
   31.8606   -0.7499  -63.3350 O   0  0  0  0  0  0
   32.1924   -1.7025  -64.3319 C   0  0  0  0  0  0
   30.9757   -1.9730  -65.2194 C   0  0  0  0  0  0
   32.6185   -2.9736  -63.6612 C   0  0  0  0  0  0
   32.0945   -3.3259  -62.5709 O   0  0  0  0  0  0
   33.5695   -3.7905  -64.2601 O   0  5  0  0  0  0
   33.5443   -0.4115  -59.7284 H   0  0  0  0  0  0
   32.5537    2.3909  -59.6033 H   0  0  0  0  0  0
   36.8675    3.9054  -63.7202 H   0  0  0  0  0  0
   34.8405   -0.5754  -64.6263 H   0  0  0  0  0  0
  1  2  1  0  0  0
  2  3  2  0  0  0
  2  4  1  0  0  0
  4  5  1  0  0  0
  4 21  1  0  0  0
  5  6  1  0  0  0
  6  7  1  0  0  0
  6  8  1  0  0  0
  7 22  1  0  0  0
  8  9  1  0  0  0
  9 10  1  0  0  0
  9 12  1  0  0  0
 10 11  1  0  0  0
 11 23  1  0  0  0
 12 13  1  0  0  0
 12 14  1  0  0  0
 13 24  1  0  0  0
 14 15  1  0  0  0
 14  5  1  0  0  0
 15 16  1  0  0  0
 16 17  1  0  0  0
 16 18  1  0  0  0
 18 19  2  0  0  0
 18 20  1  0  0  0
M  END
>  <CHROM.0>
-178.73531711,-59.91556694,63.24582591

>  <CHROM.1>
151.15013652,-60.21544927,78.44545853,-171.40643581,52.16398175,-167.30007794
-165.67479996,33.57023140,33.13256412,-0.26600210,-62.40219430,2.76299986
-0.89422643,-2.08003522

>  <Energy>
40.78589260221526

>  <Genealogy>
CC(=O)N[C@H]1C(O)O[C@H](CO)[C@@H](O)[C@@H]1O[C@H](C)C(=O)[O-] (protonated)
CC(=O)N[C@H]1[C@@H](O)O[C@H](CO)[C@@H](O)[C@@H]1O[C@H](C)C(=O)[O-] (chirality)
CC(=O)N[C@H]1[C@@H](O)O[C@H](CO)[C@@H](O)[C@@H]1O[C@H](C)C(=O)[O-] (3D coordinates assigned)
CC(=O)N[C@H]1[C@@H](O)O[C@H](CO)[C@@H](O)[C@@H]1O[C@H](C)C(=O)[O-] (nonaromatic ring conformer: 40.78589260221526 kcal/mol)

>  <Name>
5462244

>  <RI>
2.59779e+07

>  <Rbt.Current_Directory>
/home/edward/Documentos/Virtual_Screening/rDock/N-terminal/2

>  <Rbt.Executable>
rbdock ($Id: //depot/dev/client3/rdock/2013.1/src/exe/rbdock.cxx#4 $)

>  <Rbt.Library>
libRbt.so (2013.1, Build901 2013/11/27)

>  <Rbt.Parameter_File>
/home/edward/anaconda3/envs/MD/share/rdock-2013.1-1/data/scripts/dock.prm

>  <Rbt.Receptor>
parameters.prm

>  <SCORE>
-19.1706

>  <SCORE.INTER>
-16.1279

>  <SCORE.INTER.CONST>
1

>  <SCORE.INTER.POLAR>
-4.22307

>  <SCORE.INTER.REPUL>
0.0709527

>  <SCORE.INTER.ROT>
5

>  <SCORE.INTER.VDW>
-12.5242

>  <SCORE.INTER.norm>
-0.806394

>  <SCORE.INTRA>
-1.92604

>  <SCORE.INTRA.DIHEDRAL>
-6.56613

>  <SCORE.INTRA.DIHEDRAL.0>
12.2388

>  <SCORE.INTRA.POLAR>
0

>  <SCORE.INTRA.POLAR.0>
0

>  <SCORE.INTRA.REPUL>
0

>  <SCORE.INTRA.REPUL.0>
0

>  <SCORE.INTRA.VDW>
1.35702

>  <SCORE.INTRA.VDW.0>
-3.297

>  <SCORE.INTRA.norm>
-0.0963021

>  <SCORE.RESTR>
0

>  <SCORE.RESTR.CAVITY>
0

>  <SCORE.RESTR.norm>
0

>  <SCORE.SYSTEM>
-1.1167

>  <SCORE.SYSTEM.CONST>
0

>  <SCORE.SYSTEM.DIHEDRAL>
0.0597902

>  <SCORE.SYSTEM.REPUL>
0.036531

>  <SCORE.SYSTEM.VDW>
-1.32925

>  <SCORE.SYSTEM.norm>
-0.0558351

>  <SCORE.heavy>
20

>  <SCORE.norm>
-0.958532

>  <SMILES>
CC(=O)N[C@H]1[C@@H](O)O[C@H](CO)[C@@H](O)[C@@H]1O[C@H](C)C(=O)[O-]

>  <UniqueID>
100

$$$$
5317448
  rDOCK(R)          3D
libRbt.so/2013.1/901 2013/11/27
 18 18  0  0  0  0  0  0  0  0999 V2000
   35.6226    4.1382  -61.3220 N   0  0  0  0  0  0
   35.5120    2.8059  -61.9240 C   0  0  0  0  0  0
   34.3064    2.0344  -61.3191 C   0  0  0  0  0  0
   33.1134    2.7839  -61.2665 O   0  0  0  0  0  0
   34.0956    0.7741  -61.9412 O   0  0  0  0  0  0
   33.8911    0.8971  -63.3404 C   0  0  0  0  0  0
   33.5011   -0.4733  -63.9153 C   0  0  0  0  0  0
   34.4963   -1.4307  -63.6606 O   0  0  0  0  0  0
   35.1417    1.4784  -64.0367 C   0  0  0  0  0  0
   36.2476    0.6355  -63.8252 O   0  0  0  0  0  0
   35.4283    2.8790  -63.4643 C   0  0  0  0  0  0
   36.6366    3.3778  -63.9786 O   0  0  0  0  0  0
   34.8079    4.7152  -61.6337 H   0  0  0  0  0  0
   35.5649    4.0626  -60.2804 H   0  0  0  0  0  0
   32.8677    3.0615  -62.1844 H   0  0  0  0  0  0
   34.1948   -2.2829  -64.0705 H   0  0  0  0  0  0
   36.0005   -0.2602  -64.1748 H   0  0  0  0  0  0
   36.6990    4.3270  -63.6939 H   0  0  0  0  0  0
  1  2  1  0  0  0
  1 13  1  0  0  0
  1 14  1  0  0  0
  2  3  1  0  0  0
  3  4  1  0  0  0
  3  5  1  0  0  0
  4 15  1  0  0  0
  5  6  1  0  0  0
  6  7  1  0  0  0
  6  9  1  0  0  0
  7  8  1  0  0  0
  8 16  1  0  0  0
  9 10  1  0  0  0
  9 11  1  0  0  0
 10 17  1  0  0  0
 11 12  1  0  0  0
 11  2  1  0  0  0
 12 18  1  0  0  0
M  END
>  <CHROM.0>
-176.36883767,62.63253375,63.29014648

>  <CHROM.1>
-68.40869632,59.40279674,-58.66123399,-178.85670150,57.51680799,-67.79599442
34.84307802,1.64490942,-62.83364774,1.28633970,0.68065521,0.56470444

>  <Energy>
27.511911332116675

>  <Genealogy>
N[C@H]1[C@@H](O)O[C@H](CO)[C@H](O)[C@@H]1O (3D coordinates assigned)
N[C@H]1[C@@H](O)O[C@H](CO)[C@H](O)[C@@H]1O (nonaromatic ring conformer: 27.511911332116675 kcal/mol)

>  <Name>
5317448

>  <RI>
2.59779e+07

>  <Rbt.Current_Directory>
/home/edward/Documentos/Virtual_Screening/rDock/N-terminal/2

>  <Rbt.Executable>
rbdock ($Id: //depot/dev/client3/rdock/2013.1/src/exe/rbdock.cxx#4 $)

>  <Rbt.Library>
libRbt.so (2013.1, Build901 2013/11/27)

>  <Rbt.Parameter_File>
/home/edward/anaconda3/envs/MD/share/rdock-2013.1-1/data/scripts/dock.prm

>  <Rbt.Receptor>
parameters.prm

>  <SCORE>
-25.2326

>  <SCORE.INTER>
-18.2884

>  <SCORE.INTER.CONST>
1

>  <SCORE.INTER.POLAR>
-4.58557

>  <SCORE.INTER.REPUL>
0.279708

>  <SCORE.INTER.ROT>
2

>  <SCORE.INTER.VDW>
-11.496

>  <SCORE.INTER.norm>
-1.52403

>  <SCORE.INTRA>
-6.63331

>  <SCORE.INTRA.DIHEDRAL>
-10.7359

>  <SCORE.INTRA.DIHEDRAL.0>
11.5393

>  <SCORE.INTRA.POLAR>
-0.58525

>  <SCORE.INTRA.POLAR.0>
0

>  <SCORE.INTRA.REPUL>
0

>  <SCORE.INTRA.REPUL.0>
0

>  <SCORE.INTRA.VDW>
0.724511

>  <SCORE.INTRA.VDW.0>
-1.02385

>  <SCORE.INTRA.norm>
-0.552776

>  <SCORE.RESTR>
0

>  <SCORE.RESTR.CAVITY>
0

>  <SCORE.RESTR.norm>
0

>  <SCORE.SYSTEM>
-0.310866

>  <SCORE.SYSTEM.CONST>
0

>  <SCORE.SYSTEM.DIHEDRAL>
0.152304

>  <SCORE.SYSTEM.REPUL>
0.170107

>  <SCORE.SYSTEM.VDW>
-1.23755

>  <SCORE.SYSTEM.norm>
-0.0259055

>  <SCORE.heavy>
12

>  <SCORE.norm>
-2.10271

>  <SMILES>
N[C@H]1[C@@H](O)O[C@H](CO)[C@H](O)[C@@H]1O

>  <UniqueID>
102

$$$$
5284365
  rDOCK(R)          3D
libRbt.so/2013.1/901 2013/11/27
 26 26  0  0  0  0  0  0  0  0999 V2000
   31.1271   -1.5278  -62.9669 H   0  0  0  0  0  0
   32.0556   -1.1298  -62.8962 O   0  0  0  0  0  0
   33.1039   -1.6079  -63.6832 C   0  0  0  0  0  0
   34.3917   -0.9840  -63.5612 N   0  0  0  0  0  0
   35.1371   -1.3036  -64.2204 H   0  0  0  0  0  0
   34.5630    0.3249  -62.9198 C   0  0  0  0  0  0
   35.0775    0.1550  -61.4750 C   0  0  0  0  0  0
   36.2642   -0.6030  -61.4293 O   0  0  0  0  0  0
   36.4743   -0.7629  -60.4724 H   0  0  0  0  0  0
   35.2690    1.4169  -60.8566 O   0  0  0  0  0  0
   36.2567    2.1896  -61.5244 C   0  0  0  0  0  0
   36.4721    3.4753  -60.7130 C   0  0  0  0  0  0
   37.8219    3.8508  -60.7354 O   0  0  0  0  0  0
   38.3164    3.1289  -60.2670 H   0  0  0  0  0  0
   35.8158    2.5071  -62.9747 C   0  0  0  0  0  0
   36.8297    3.2196  -63.6370 O   0  0  0  0  0  0
   36.7127    4.1765  -63.4000 H   0  0  0  0  0  0
   35.5321    1.1999  -63.7332 C   0  0  0  0  0  0
   34.9672    1.5051  -64.9830 O   0  0  0  0  0  0
   35.5859    2.1365  -65.4342 H   0  0  0  0  0  0
   32.9023   -2.5896  -64.5271 N   0  3  0  0  0  0
   33.9409   -2.9738  -65.3985 N   0  0  0  0  0  0
   33.8388   -3.9628  -66.1537 O   0  0  0  0  0  0
   31.5989   -3.2779  -64.5832 C   0  0  0  0  0  0
   31.6077   -4.5452  -63.7254 C   0  0  0  0  0  0
   30.0166   -5.3499  -63.7454 Cl  0  0  0  0  0  0
  1  2  1  0  0  0
  2  3  1  0  0  0
  3  4  1  0  0  0
  3 21  2  0  0  0
  4  5  1  0  0  0
  4  6  1  0  0  0
  6  7  1  0  0  0
  7  8  1  0  0  0
  7 10  1  0  0  0
  8  9  1  0  0  0
 10 11  1  0  0  0
 11 12  1  0  0  0
 11 15  1  0  0  0
 12 13  1  0  0  0
 13 14  1  0  0  0
 15 16  1  0  0  0
 15 18  1  0  0  0
 16 17  1  0  0  0
 18 19  1  0  0  0
 18  6  1  0  0  0
 19 20  1  0  0  0
 21 22  1  0  0  0
 21 24  1  0  0  0
 22 23  2  0  0  0
 24 25  1  0  0  0
 25 26  1  0  0  0
M  END
>  <CHROM.0>
71.14487376,-62.79227251,-60.67064402

>  <CHROM.1>
178.60509401,-174.76677445,100.54964952,-173.33600357,143.39730555,-64.50055289
-84.16695442,174.78803775,174.68863086,-95.35759631,178.03156445,34.16914654
-0.64828158,-63.19287799,2.65664297,-0.86819479,-1.84404019

>  <Energy>
37.87978064239549

>  <Genealogy>
O=N[NH+](CCCl)C(=O)N[C@H]1[C@@H](O)O[C@H](CO)[C@@H](O)[C@@H]1O (protonated)
O=N[N+](CCCl)=C(O)N[C@H]1[C@@H](O)O[C@H](CO)[C@@H](O)[C@@H]1O (tautomer)
O=N/[N+](CCCl)=C(/O)N[C@H]1[C@@H](O)O[C@H](CO)[C@@H](O)[C@@H]1O (cis-trans isomerization)
O=N/[N+](CCCl)=C(/O)N[C@H]1[C@@H](O)O[C@H](CO)[C@@H](O)[C@@H]1O (3D coordinates assigned)
O=N/[N+](CCCl)=C(/O)N[C@H]1[C@@H](O)O[C@H](CO)[C@@H](O)[C@@H]1O (nonaromatic ring conformer: 37.87978064239549 kcal/mol)

>  <Name>
5284365

>  <RI>
2.59779e+07

>  <Rbt.Current_Directory>
/home/edward/Documentos/Virtual_Screening/rDock/N-terminal/2

>  <Rbt.Executable>
rbdock ($Id: //depot/dev/client3/rdock/2013.1/src/exe/rbdock.cxx#4 $)

>  <Rbt.Library>
libRbt.so (2013.1, Build901 2013/11/27)

>  <Rbt.Parameter_File>
/home/edward/anaconda3/envs/MD/share/rdock-2013.1-1/data/scripts/dock.prm

>  <Rbt.Receptor>
parameters.prm

>  <SCORE>
-21.8761

>  <SCORE.INTER>
-23.7168

>  <SCORE.INTER.CONST>
1

>  <SCORE.INTER.POLAR>
-5.1631

>  <SCORE.INTER.REPUL>
0.245378

>  <SCORE.INTER.ROT>
6

>  <SCORE.INTER.VDW>
-18.7892

>  <SCORE.INTER.norm>
-1.18584

>  <SCORE.INTRA>
1.78703

>  <SCORE.INTRA.DIHEDRAL>
-0.555331

>  <SCORE.INTRA.DIHEDRAL.0>
11.855

>  <SCORE.INTRA.POLAR>
-0.00823615

>  <SCORE.INTRA.POLAR.0>
0

>  <SCORE.INTRA.REPUL>
0

>  <SCORE.INTRA.REPUL.0>
0

>  <SCORE.INTRA.VDW>
2.0927

>  <SCORE.INTRA.VDW.0>
-3.16925

>  <SCORE.INTRA.norm>
0.0893514

>  <SCORE.RESTR>
0

>  <SCORE.RESTR.CAVITY>
0

>  <SCORE.RESTR.norm>
0

>  <SCORE.SYSTEM>
0.0537103

>  <SCORE.SYSTEM.CONST>
0

>  <SCORE.SYSTEM.DIHEDRAL>
0.636372

>  <SCORE.SYSTEM.POLAR>
-0.0225361

>  <SCORE.SYSTEM.REPUL>
0.00290139

>  <SCORE.SYSTEM.VDW>
-0.20236

>  <SCORE.SYSTEM.norm>
0.00268551

>  <SCORE.heavy>
20

>  <SCORE.norm>
-1.09381

>  <SMILES>
O=N/[N+](CCCl)=C(/O)N[C@H]1[C@@H](O)O[C@H](CO)[C@@H](O)[C@@H]1O

>  <UniqueID>
104

$$$$
4282259
  rDOCK(R)          3D
libRbt.so/2013.1/901 2013/11/27
 25 26  0  0  0  0  0  0  0  0999 V2000
   35.4533   -0.8796  -62.6173 H   0  0  0  0  0  0
   35.1502   -1.7231  -63.0838 O   0  0  0  0  0  0
   34.0195   -1.7974  -63.9025 C   0  0  0  0  0  0
   33.2783   -0.7602  -64.1717 N   0  0  0  0  0  0
   33.4463    0.6049  -63.6651 C   0  0  0  0  0  0
   33.3758    0.5741  -62.1287 C   0  0  0  0  0  0
   32.0860    0.0887  -61.7540 O   0  0  0  0  0  0
   30.8624    0.6244  -62.1844 C   0  0  0  0  0  0
   29.9722   -0.2184  -62.8628 C   0  0  0  0  0  0
   28.7400    0.2656  -63.3130 C   0  0  0  0  0  0
   28.3868    1.5981  -63.0866 C   0  0  0  0  0  0
   29.2650    2.4472  -62.4085 C   0  0  0  0  0  0
   30.4982    1.9662  -61.9568 C   0  0  0  0  0  0
   33.5506    1.8718  -61.5770 O   0  0  0  0  0  0
   34.8119    2.4451  -61.9010 C   0  0  0  0  0  0
   35.9789    1.7845  -61.1361 C   0  0  0  0  0  0
   36.0014    0.4100  -61.4033 O   0  0  0  0  0  0
   36.7747    0.0431  -60.9010 H   0  0  0  0  0  0
   35.0310    2.5342  -63.4328 C   0  0  0  0  0  0
   36.3220    3.0017  -63.7295 O   0  0  0  0  0  0
   36.3507    3.9554  -63.4547 H   0  0  0  0  0  0
   34.8065    1.1722  -64.1041 C   0  0  0  0  0  0
   34.8309    1.3236  -65.5000 O   0  0  0  0  0  0
   35.5823    1.9368  -65.7121 H   0  0  0  0  0  0
   33.6672   -3.1103  -64.5165 C   0  0  0  0  0  0
  1  2  1  0  0  0
  2  3  1  0  0  0
  3  4  2  0  0  0
  3 25  1  0  0  0
  4  5  1  0  0  0
  5  6  1  0  0  0
  6  7  1  0  0  0
  6 14  1  0  0  0
  7  8  1  0  0  0
  8  9  2  0  0  0
  9 10  1  0  0  0
 10 11  2  0  0  0
 11 12  1  0  0  0
 12 13  2  0  0  0
 13  8  1  0  0  0
 14 15  1  0  0  0
 15 16  1  0  0  0
 15 19  1  0  0  0
 16 17  1  0  0  0
 17 18  1  0  0  0
 19 20  1  0  0  0
 19 22  1  0  0  0
 20 21  1  0  0  0
 22 23  1  0  0  0
 22  5  1  0  0  0
 23 24  1  0  0  0
M  END
>  <CHROM.0>
-179.09520101,60.80560310,-59.88012522

>  <CHROM.1>
2.40752528,-58.81341066,-54.28943148,121.71416832,57.42720068,179.10565678
-69.22663831,162.75563122,33.20757879,0.71473517,-62.94859251,0.00822657
-0.05759136,-2.76850901

>  <Energy>
41.283454308119815

>  <Genealogy>
CC(O)=NC1C(Oc2ccccc2)OC(CO)C(O)C1O (tautomer)
CC(O)=N[C@H]1[C@H](Oc2ccccc2)O[C@@H](CO)[C@@H](O)[C@@H]1O (chirality)
C/C(O)=N\[C@H]1[C@H](Oc2ccccc2)O[C@@H](CO)[C@@H](O)[C@@H]1O (cis-trans isomerization)
C/C(O)=N\[C@H]1[C@H](Oc2ccccc2)O[C@@H](CO)[C@@H](O)[C@@H]1O (3D coordinates assigned)
C/C(O)=N\[C@H]1[C@H](Oc2ccccc2)O[C@@H](CO)[C@@H](O)[C@@H]1O (nonaromatic ring conformer: 41.283454308119815 kcal/mol)

>  <Name>
4282259

>  <RI>
2.59779e+07

>  <Rbt.Current_Directory>
/home/edward/Documentos/Virtual_Screening/rDock/N-terminal/2

>  <Rbt.Executable>
rbdock ($Id: //depot/dev/client3/rdock/2013.1/src/exe/rbdock.cxx#4 $)

>  <Rbt.Library>
libRbt.so (2013.1, Build901 2013/11/27)

>  <Rbt.Parameter_File>
/home/edward/anaconda3/envs/MD/share/rdock-2013.1-1/data/scripts/dock.prm

>  <Rbt.Receptor>
parameters.prm

>  <SCORE>
-18.6945

>  <SCORE.INTER>
-16.599

>  <SCORE.INTER.CONST>
1

>  <SCORE.INTER.POLAR>
-3.15922

>  <SCORE.INTER.REPUL>
0.0694616

>  <SCORE.INTER.ROT>
4

>  <SCORE.INTER.VDW>
-15.6049

>  <SCORE.INTER.norm>
-0.790427

>  <SCORE.INTRA>
-1.93896

>  <SCORE.INTRA.DIHEDRAL>
3.05121

>  <SCORE.INTRA.DIHEDRAL.0>
5.04109

>  <SCORE.INTRA.POLAR>
-1.03928

>  <SCORE.INTRA.POLAR.0>
0

>  <SCORE.INTRA.REPUL>
0

>  <SCORE.INTRA.REPUL.0>
0

>  <SCORE.INTRA.VDW>
0.0689819

>  <SCORE.INTRA.VDW.0>
-2.57817

>  <SCORE.INTRA.norm>
-0.0923315

>  <SCORE.RESTR>
0

>  <SCORE.RESTR.CAVITY>
0

>  <SCORE.RESTR.norm>
0

>  <SCORE.SYSTEM>
-0.156598

>  <SCORE.SYSTEM.CONST>
0

>  <SCORE.SYSTEM.DIHEDRAL>
0.00731228

>  <SCORE.SYSTEM.REPUL>
0.177622

>  <SCORE.SYSTEM.VDW>
-1.04836

>  <SCORE.SYSTEM.norm>
-0.00745703

>  <SCORE.heavy>
21

>  <SCORE.norm>
-0.890215

>  <SMILES>
C/C(O)=N\[C@H]1[C@H](Oc2ccccc2)O[C@@H](CO)[C@@H](O)[C@@H]1O

>  <UniqueID>
106

$$$$
3052142
  rDOCK(R)          3D
libRbt.so/2013.1/901 2013/11/27
 29 29  0  0  0  0  0  0  0  0999 V2000
   30.8723    1.2946  -61.9325 H   0  0  0  0  0  0
   30.9140    1.5395  -60.9506 O   0  0  0  0  0  0
   31.6204    0.7573  -60.0384 C   0  0  0  0  0  0
   32.2652   -0.3066  -60.4215 N   0  0  0  0  0  0
   32.3986   -0.8226  -61.7904 C   0  0  0  0  0  0
   33.8121   -0.5983  -62.3780 C   0  0  0  0  0  0
   34.0956    0.8017  -62.3970 O   0  0  0  0  0  0
   35.1457    1.3810  -63.1191 C   0  0  0  0  0  0
   35.9511    0.6693  -63.7779 O   0  0  0  0  0  0
   35.2705    2.8654  -63.1643 C   0  0  0  0  0  0
   33.8574   -1.0686  -63.7146 O   0  0  0  0  0  0
   33.6569   -2.4724  -63.7603 C   0  0  0  0  0  0
   33.9573   -2.9623  -65.1854 C   0  0  0  0  0  0
   34.0091   -4.3873  -65.2464 O   0  0  0  0  0  0
   34.4028   -5.0986  -66.3849 C   0  0  0  0  0  0
   34.8174   -4.4971  -67.4127 O   0  0  0  0  0  0
   34.3706   -6.5885  -66.3647 C   0  0  0  0  0  0
   32.2155   -2.8227  -63.3158 C   0  0  0  0  0  0
   31.2573   -2.2131  -64.1876 O   0  0  0  0  0  0
   30.8775   -2.7398  -65.4275 C   0  0  0  0  0  0
   31.3125   -3.8562  -65.8203 O   0  0  0  0  0  0
   29.9004   -1.9934  -66.2693 C   0  0  0  0  0  0
   31.9927   -2.3070  -61.8823 C   0  0  0  0  0  0
   30.6198   -2.4435  -61.5099 O   0  0  0  0  0  0
   29.9752   -3.6775  -61.3716 C   0  0  0  0  0  0
   30.6024   -4.7580  -61.5431 O   0  0  0  0  0  0
   28.5436   -3.7132  -60.9589 C   0  0  0  0  0  0
   31.6178    1.1242  -58.5880 C   0  0  0  0  0  0
   31.8593    2.8775  -58.4070 Cl  0  0  0  0  0  0
  1  2  1  0  0  0
  2  3  1  0  0  0
  3  4  2  0  0  0
  3 28  1  0  0  0
  4  5  1  0  0  0
  5  6  1  0  0  0
  6  7  1  0  0  0
  6 11  1  0  0  0
  7  8  1  0  0  0
  8  9  2  0  0  0
  8 10  1  0  0  0
 11 12  1  0  0  0
 12 13  1  0  0  0
 12 18  1  0  0  0
 13 14  1  0  0  0
 14 15  1  0  0  0
 15 16  2  0  0  0
 15 17  1  0  0  0
 18 19  1  0  0  0
 18 23  1  0  0  0
 19 20  1  0  0  0
 20 21  2  0  0  0
 20 22  1  0  0  0
 23 24  1  0  0  0
 23  5  1  0  0  0
 24 25  1  0  0  0
 25 26  2  0  0  0
 25 27  1  0  0  0
 28 29  1  0  0  0
M  END
>  <CHROM.0>
-177.80121420,-62.35709871,62.92307872

>  <CHROM.1>
0.87416496,-44.11026562,106.78147465,-165.52095672,-2.44921726,169.56530063
-173.00858912,4.36577062,81.55085108,4.44649365,-174.03769214,1.75111997
32.51272173,-1.46775515,-62.85122945,1.71272063,0.62766841,0.69040396

>  <Energy>
34.58612736177272

>  <Genealogy>
CC(=O)OC[C@H]1O[C@@H](OC(C)=O)[C@H](N=C(O)CCl)[C@@H](OC(C)=O)[C@H]1OC(C)=O (tautomer)
CC(=O)OC[C@H]1O[C@@H](OC(C)=O)[C@H](/N=C(\O)CCl)[C@@H](OC(C)=O)[C@H]1OC(C)=O (cis-trans isomerization)
CC(=O)OC[C@H]1O[C@@H](OC(C)=O)[C@H](/N=C(\O)CCl)[C@@H](OC(C)=O)[C@H]1OC(C)=O (3D coordinates assigned)
CC(=O)OC[C@H]1O[C@@H](OC(C)=O)[C@H](/N=C(\O)CCl)[C@@H](OC(C)=O)[C@H]1OC(C)=O (nonaromatic ring conformer: 34.58612736177272 kcal/mol)

>  <Name>
3052142

>  <RI>
2.59779e+07

>  <Rbt.Current_Directory>
/home/edward/Documentos/Virtual_Screening/rDock/N-terminal/2

>  <Rbt.Executable>
rbdock ($Id: //depot/dev/client3/rdock/2013.1/src/exe/rbdock.cxx#4 $)

>  <Rbt.Library>
libRbt.so (2013.1, Build901 2013/11/27)

>  <Rbt.Parameter_File>
/home/edward/anaconda3/envs/MD/share/rdock-2013.1-1/data/scripts/dock.prm

>  <Rbt.Receptor>
parameters.prm

>  <SCORE>
-7.54135

>  <SCORE.INTER>
-3.04686

>  <SCORE.INTER.CONST>
1

>  <SCORE.INTER.POLAR>
-0.948102

>  <SCORE.INTER.REPUL>
0.0637449

>  <SCORE.INTER.ROT>
11

>  <SCORE.INTER.VDW>
-16.542

>  <SCORE.INTER.norm>
-0.108816

>  <SCORE.INTRA>
-3.37308

>  <SCORE.INTRA.DIHEDRAL>
-11.2672

>  <SCORE.INTRA.DIHEDRAL.0>
17.0801

>  <SCORE.INTRA.POLAR>
0

>  <SCORE.INTRA.POLAR.0>
0

>  <SCORE.INTRA.REPUL>
0

>  <SCORE.INTRA.REPUL.0>
0

>  <SCORE.INTRA.VDW>
2.26052

>  <SCORE.INTRA.VDW.0>
-6.13581

>  <SCORE.INTRA.norm>
-0.120467

>  <SCORE.RESTR>
0

>  <SCORE.RESTR.CAVITY>
0

>  <SCORE.RESTR.norm>
0

>  <SCORE.SYSTEM>
-1.12141

>  <SCORE.SYSTEM.CONST>
0

>  <SCORE.SYSTEM.DIHEDRAL>
0.0932969

>  <SCORE.SYSTEM.REPUL>
0.0339669

>  <SCORE.SYSTEM.VDW>
-1.3379

>  <SCORE.SYSTEM.norm>
-0.0400505

>  <SCORE.heavy>
28

>  <SCORE.norm>
-0.269334

>  <SMILES>
CC(=O)OC[C@H]1O[C@@H](OC(C)=O)[C@H](/N=C(\O)CCl)[C@@H](OC(C)=O)[C@H]1OC(C)=O

>  <UniqueID>
107

$$$$
2801971
  rDOCK(R)          3D
libRbt.so/2013.1/901 2013/11/27
 26 27  0  0  0  0  0  0  0  0999 V2000
   32.0610   -0.5454  -57.6820 C   0  0  0  0  0  0
   31.8176    0.1905  -58.9590 C   0  0  0  0  0  0
   30.7674    0.8754  -59.0927 O   0  0  0  0  0  0
   32.7928    0.1409  -60.0093 N   0  0  0  0  0  0
   32.5937    0.8145  -61.3000 C   0  0  0  0  0  0
   33.3665    2.1512  -61.3476 C   0  0  0  0  0  0
   32.9822    2.9515  -60.2398 O   0  0  0  0  0  0
   33.4751    4.2743  -60.3481 C   0  0  0  0  0  0
   33.2559    5.0239  -59.0604 C   0  0  0  0  0  0
   32.2825    6.0338  -58.9772 C   0  0  0  0  0  0
   32.1057    6.7440  -57.7857 C   0  0  0  0  0  0
   32.8994    6.4536  -56.6725 C   0  0  0  0  0  0
   33.8725    5.4534  -56.7494 C   0  0  0  0  0  0
   34.0532    4.7415  -57.9394 C   0  0  0  0  0  0
   34.7635    1.9252  -61.2506 O   0  0  0  0  0  0
   35.2802    1.1747  -62.3427 C   0  0  0  0  0  0
   35.3492    2.0011  -63.6443 C   0  0  0  0  0  0
   36.4160    2.9075  -63.5773 O   0  0  0  0  0  0
   34.5871   -0.2041  -62.5011 C   0  0  0  0  0  0
   35.0258   -1.0479  -61.4659 O   0  0  0  0  0  0
   33.0456   -0.0910  -62.4597 C   0  0  0  0  0  0
   32.5563    0.4259  -63.6709 O   0  0  0  0  0  0
   33.6830   -0.3770  -59.8279 H   0  0  0  0  0  0
   36.0671    3.7711  -63.9203 H   0  0  0  0  0  0
   35.9732   -1.2755  -61.6583 H   0  0  0  0  0  0
   32.8057    1.3866  -63.6973 H   0  0  0  0  0  0
  1  2  1  0  0  0
  2  3  2  0  0  0
  2  4  1  0  0  0
  4  5  1  0  0  0
  4 23  1  0  0  0
  5  6  1  0  0  0
  6  7  1  0  0  0
  6 15  1  0  0  0
  7  8  1  0  0  0
  8  9  1  0  0  0
  9 10  2  0  0  0
 10 11  1  0  0  0
 11 12  2  0  0  0
 12 13  1  0  0  0
 13 14  2  0  0  0
 14  9  1  0  0  0
 15 16  1  0  0  0
 16 17  1  0  0  0
 16 19  1  0  0  0
 17 18  1  0  0  0
 18 24  1  0  0  0
 19 20  1  0  0  0
 19 21  1  0  0  0
 20 25  1  0  0  0
 21 22  1  0  0  0
 21  5  1  0  0  0
 22 26  1  0  0  0
M  END
>  <CHROM.0>
-174.37477809,-58.06958702,60.62428163

>  <CHROM.1>
100.38577303,-169.79012585,-170.28234819,-107.91991253,74.58137590,-135.74455823
-70.93148609,50.69230144,33.46068256,2.27959161,-60.41872396,1.25181125,-0.92785026
-2.66703746

>  <Energy>
46.58883820275616

>  <Genealogy>
CC(=O)N[C@H]1[C@@H](OCc2ccccc2)O[C@H](CO)[C@@H](O)[C@@H]1O (3D coordinates assigned)
CC(=O)N[C@H]1[C@@H](OCc2ccccc2)O[C@H](CO)[C@@H](O)[C@@H]1O (nonaromatic ring conformer: 46.58883820275616 kcal/mol)

>  <Name>
2801971

>  <RI>
2.59779e+07

>  <Rbt.Current_Directory>
/home/edward/Documentos/Virtual_Screening/rDock/N-terminal/2

>  <Rbt.Executable>
rbdock ($Id: //depot/dev/client3/rdock/2013.1/src/exe/rbdock.cxx#4 $)

>  <Rbt.Library>
libRbt.so (2013.1, Build901 2013/11/27)

>  <Rbt.Parameter_File>
/home/edward/anaconda3/envs/MD/share/rdock-2013.1-1/data/scripts/dock.prm

>  <Rbt.Receptor>
parameters.prm

>  <SCORE>
-21.1365

>  <SCORE.INTER>
-18.6877

>  <SCORE.INTER.CONST>
1

>  <SCORE.INTER.POLAR>
-4.02403

>  <SCORE.INTER.REPUL>
0

>  <SCORE.INTER.ROT>
5

>  <SCORE.INTER.VDW>
-15.406

>  <SCORE.INTER.norm>
-0.849441

>  <SCORE.INTRA>
-1.36198

>  <SCORE.INTRA.DIHEDRAL>
-2.42828

>  <SCORE.INTRA.DIHEDRAL.0>
13.1841

>  <SCORE.INTRA.POLAR>
-0.356577

>  <SCORE.INTRA.POLAR.0>
0

>  <SCORE.INTRA.REPUL>
0

>  <SCORE.INTRA.REPUL.0>
0

>  <SCORE.INTRA.VDW>
1.06452

>  <SCORE.INTRA.VDW.0>
-3.08024

>  <SCORE.INTRA.norm>
-0.0619081

>  <SCORE.RESTR>
0

>  <SCORE.RESTR.CAVITY>
0

>  <SCORE.RESTR.norm>
0

>  <SCORE.SYSTEM>
-1.08684

>  <SCORE.SYSTEM.CONST>
0

>  <SCORE.SYSTEM.DIHEDRAL>
0.175324

>  <SCORE.SYSTEM.REPUL>
0.024407

>  <SCORE.SYSTEM.VDW>
-1.29653

>  <SCORE.SYSTEM.norm>
-0.0494017

>  <SCORE.heavy>
22

>  <SCORE.norm>
-0.960751

>  <SMILES>
CC(=O)N[C@H]1[C@@H](OCc2ccccc2)O[C@H](CO)[C@@H](O)[C@@H]1O

>  <UniqueID>
109

$$$$
2733787
  rDOCK(R)          3D
libRbt.so/2013.1/901 2013/11/27
 31 33  0  0  0  0  0  0  0  0999 V2000
   31.4571    0.2014  -56.4256 H   0  0  0  0  0  0
   31.8369    0.7480  -57.1893 O   0  0  0  0  0  0
   31.0582    1.6912  -57.8591 C   0  0  0  0  0  0
   31.5621    2.4073  -58.8194 N   0  0  0  0  0  0
   32.9473    2.3180  -59.2878 C   0  0  0  0  0  0
   32.9692    1.6149  -60.6569 C   0  0  0  0  0  0
   32.4418    0.2975  -60.5046 O   0  0  0  0  0  0
   32.4443   -0.6889  -61.5031 C   0  0  0  0  0  0
   33.1369   -0.5346  -62.7185 C   0  0  0  0  0  0
   33.1105   -1.5459  -63.6829 C   0  0  0  0  0  0
   32.3888   -2.7328  -63.4516 C   0  0  0  0  0  0
   32.3279   -3.7870  -64.3911 C   0  0  0  0  0  0
   33.0371   -3.7168  -65.7187 C   0  0  0  0  0  0
   31.5827   -4.9301  -64.0706 C   0  0  0  0  0  0
   30.9241   -4.9986  -62.8410 C   0  0  0  0  0  0
   30.2525   -6.0211  -62.5445 O   0  0  0  0  0  0
   31.0006   -3.9914  -61.9793 O   0  0  0  0  0  0
   31.6920   -2.8838  -62.2291 C   0  0  0  0  0  0
   31.7255   -1.8656  -61.2709 C   0  0  0  0  0  0
   34.2984    1.5238  -61.1411 O   0  0  0  0  0  0
   34.8110    2.8136  -61.4265 C   0  0  0  0  0  0
   36.1672    2.6588  -62.1303 C   0  0  0  0  0  0
   36.0123    2.0854  -63.4020 O   0  0  0  0  0  0
   35.5902    1.1969  -63.2689 H   0  0  0  0  0  0
   34.9313    3.6412  -60.1218 C   0  0  0  0  0  0
   35.4394    4.9276  -60.3783 O   0  0  0  0  0  0
   34.8681    5.3429  -61.0764 H   0  0  0  0  0  0
   33.5595    3.7267  -59.4208 C   0  0  0  0  0  0
   33.7122    4.2982  -58.1473 O   0  0  0  0  0  0
   34.1615    3.6196  -57.5788 H   0  0  0  0  0  0
   29.6344    1.9002  -57.4556 C   0  0  0  0  0  0
  1  2  1  0  0  0
  2  3  1  0  0  0
  3  4  2  0  0  0
  3 31  1  0  0  0
  4  5  1  0  0  0
  5  6  1  0  0  0
  6  7  1  0  0  0
  6 20  1  0  0  0
  7  8  1  0  0  0
  8  9  2  0  0  0
  9 10  1  0  0  0
 10 11  2  0  0  0
 11 12  1  0  0  0
 12 13  1  0  0  0
 12 14  2  0  0  0
 14 15  1  0  0  0
 15 16  2  0  0  0
 15 17  1  0  0  0
 17 18  1  0  0  0
 18 19  2  0  0  0
 18 11  1  0  0  0
 19  8  1  0  0  0
 20 21  1  0  0  0
 21 22  1  0  0  0
 21 25  1  0  0  0
 22 23  1  0  0  0
 23 24  1  0  0  0
 25 26  1  0  0  0
 25 28  1  0  0  0
 26 27  1  0  0  0
 28 29  1  0  0  0
 28  5  1  0  0  0
 29 30  1  0  0  0
M  END
>  <CHROM.0>
73.35313986,-177.99888416,61.44184683

>  <CHROM.1>
178.56977572,106.88226095,-172.44662167,8.79155421,67.09451023,-59.64966912
53.91694986,48.91457295,32.81889929,0.06137925,-61.20252132,1.22785679,0.76177623
0.72567011

>  <Energy>
51.89889767734323

>  <Genealogy>
CC(O)=N[C@H]1[C@H](Oc2ccc3c(C)cc(=O)oc3c2)O[C@H](CO)[C@@H](O)[C@@H]1O (tautomer)
C/C(O)=N\[C@H]1[C@H](Oc2ccc3c(C)cc(=O)oc3c2)O[C@H](CO)[C@@H](O)[C@@H]1O (cis-trans isomerization)
C/C(O)=N\[C@H]1[C@H](Oc2ccc3c(C)cc(=O)oc3c2)O[C@H](CO)[C@@H](O)[C@@H]1O (3D coordinates assigned)
C/C(O)=N\[C@H]1[C@H](Oc2ccc3c(C)cc(=O)oc3c2)O[C@H](CO)[C@@H](O)[C@@H]1O (nonaromatic ring conformer: 51.89889767734323 kcal/mol)

>  <Name>
2733787

>  <RI>
2.59779e+07

>  <Rbt.Current_Directory>
/home/edward/Documentos/Virtual_Screening/rDock/N-terminal/2

>  <Rbt.Executable>
rbdock ($Id: //depot/dev/client3/rdock/2013.1/src/exe/rbdock.cxx#4 $)

>  <Rbt.Library>
libRbt.so (2013.1, Build901 2013/11/27)

>  <Rbt.Parameter_File>
/home/edward/anaconda3/envs/MD/share/rdock-2013.1-1/data/scripts/dock.prm

>  <Rbt.Receptor>
parameters.prm

>  <SCORE>
-21.0351

>  <SCORE.INTER>
-18.9436

>  <SCORE.INTER.CONST>
1

>  <SCORE.INTER.POLAR>
-3.51437

>  <SCORE.INTER.REPUL>
0.26931

>  <SCORE.INTER.ROT>
4

>  <SCORE.INTER.VDW>
-17.7413

>  <SCORE.INTER.norm>
-0.701615

>  <SCORE.INTRA>
-2.58631

>  <SCORE.INTRA.DIHEDRAL>
-6.06024

>  <SCORE.INTRA.DIHEDRAL.0>
7.71167

>  <SCORE.INTRA.POLAR>
0

>  <SCORE.INTRA.POLAR.0>
0

>  <SCORE.INTRA.REPUL>
0

>  <SCORE.INTRA.REPUL.0>
0

>  <SCORE.INTRA.VDW>
0.44381

>  <SCORE.INTRA.VDW.0>
-1.94023

>  <SCORE.INTRA.norm>
-0.0957894

>  <SCORE.RESTR>
0

>  <SCORE.RESTR.CAVITY>
0

>  <SCORE.RESTR.norm>
0

>  <SCORE.SYSTEM>
0.494819

>  <SCORE.SYSTEM.CONST>
0

>  <SCORE.SYSTEM.DIHEDRAL>
0.874639

>  <SCORE.SYSTEM.POLAR>
-0.0152294

>  <SCORE.SYSTEM.REPUL>
0.0645791

>  <SCORE.SYSTEM.VDW>
-0.213615

>  <SCORE.SYSTEM.norm>
0.0183266

>  <SCORE.heavy>
27

>  <SCORE.norm>
-0.779077

>  <SMILES>
C/C(O)=N\[C@H]1[C@H](Oc2ccc3c(C)cc(=O)oc3c2)O[C@H](CO)[C@@H](O)[C@@H]1O

>  <UniqueID>
111

$$$$
2733335
  rDOCK(R)          3D
libRbt.so/2013.1/901 2013/11/27
 23 23  0  0  0  0  0  0  0  0999 V2000
   31.4131    1.0877  -63.5545 H   0  0  0  0  0  0
   31.2693    0.1171  -63.8024 O   0  0  0  0  0  0
   32.3266   -0.7912  -63.8965 C   0  0  0  0  0  0
   33.5305   -0.4212  -63.5692 N   0  0  0  0  0  0
   33.9031    0.9201  -63.1125 C   0  0  0  0  0  0
   34.2398    0.8746  -61.6072 C   0  0  0  0  0  0
   35.2264   -0.0901  -61.3228 O   0  0  0  0  0  0
   35.2934   -0.1581  -60.3346 H   0  0  0  0  0  0
   34.6407    2.1511  -61.1359 O   0  0  0  0  0  0
   35.8231    2.6028  -61.7804 C   0  0  0  0  0  0
   36.2636    3.9201  -61.1208 C   0  0  0  0  0  0
   36.6577    3.7164  -59.7896 O   0  0  0  0  0  0
   37.4445    3.1117  -59.8133 H   0  0  0  0  0  0
   35.5938    2.7756  -63.3020 C   0  0  0  0  0  0
   36.7922    3.1546  -63.9319 O   0  0  0  0  0  0
   36.9309    4.1189  -63.7413 H   0  0  0  0  0  0
   35.1106    1.4478  -63.9080 C   0  0  0  0  0  0
   34.7426    1.6462  -65.2488 O   0  0  0  0  0  0
   35.5831    1.7281  -65.7706 H   0  0  0  0  0  0
   32.0871   -2.1374  -64.3493 N   0  0  0  0  0  0
   30.8272   -2.4568  -64.8868 N   0  0  0  0  0  0
   30.5801   -3.5898  -65.3497 O   0  0  0  0  0  0
   33.1798   -3.1157  -64.3938 C   0  0  0  0  0  0
  1  2  1  0  0  0
  2  3  1  0  0  0
  3  4  2  0  0  0
  3 20  1  0  0  0
  4  5  1  0  0  0
  5  6  1  0  0  0
  6  7  1  0  0  0
  6  9  1  0  0  0
  7  8  1  0  0  0
  9 10  1  0  0  0
 10 11  1  0  0  0
 10 14  1  0  0  0
 11 12  1  0  0  0
 12 13  1  0  0  0
 14 15  1  0  0  0
 14 17  1  0  0  0
 15 16  1  0  0  0
 17 18  1  0  0  0
 17  5  1  0  0  0
 18 19  1  0  0  0
 20 21  1  0  0  0
 20 23  1  0  0  0
 21 22  2  0  0  0
M  END
>  <CHROM.0>
-71.80728909,-60.03333861,-178.28922901

>  <CHROM.1>
4.90735899,108.72655957,-171.76130972,66.13121467,62.66161755,-76.95809946
-164.03053617,176.78012151,34.07380235,0.61937814,-63.12581962,2.79407405
-0.89140866,-1.49674521

>  <Energy>
31.34723069915521

>  <Genealogy>
CN(N=O)C(O)=N[C@H]1C(O)O[C@H](CO)[C@@H](O)[C@@H]1O (tautomer)
CN(N=O)C(O)=N[C@H]1[C@@H](O)O[C@H](CO)[C@@H](O)[C@@H]1O (chirality)
CN(N=O)/C(O)=N\[C@H]1[C@@H](O)O[C@H](CO)[C@@H](O)[C@@H]1O (cis-trans isomerization)
CN(N=O)/C(O)=N\[C@H]1[C@@H](O)O[C@H](CO)[C@@H](O)[C@@H]1O (3D coordinates assigned)
CN(N=O)/C(O)=N\[C@H]1[C@@H](O)O[C@H](CO)[C@@H](O)[C@@H]1O (nonaromatic ring conformer: 31.34723069915521 kcal/mol)

>  <Name>
2733335

>  <RI>
2.59779e+07

>  <Rbt.Current_Directory>
/home/edward/Documentos/Virtual_Screening/rDock/N-terminal/2

>  <Rbt.Executable>
rbdock ($Id: //depot/dev/client3/rdock/2013.1/src/exe/rbdock.cxx#4 $)

>  <Rbt.Library>
libRbt.so (2013.1, Build901 2013/11/27)

>  <Rbt.Parameter_File>
/home/edward/anaconda3/envs/MD/share/rdock-2013.1-1/data/scripts/dock.prm

>  <Rbt.Receptor>
parameters.prm

>  <SCORE>
-25.4142

>  <SCORE.INTER>
-21.8763

>  <SCORE.INTER.CONST>
1

>  <SCORE.INTER.POLAR>
-4.1833

>  <SCORE.INTER.REPUL>
0.225773

>  <SCORE.INTER.ROT>
3

>  <SCORE.INTER.VDW>
-17.1819

>  <SCORE.INTER.norm>
-1.21535

>  <SCORE.INTRA>
-3.49308

>  <SCORE.INTRA.DIHEDRAL>
-7.97484

>  <SCORE.INTRA.DIHEDRAL.0>
11.4435

>  <SCORE.INTRA.POLAR>
0

>  <SCORE.INTRA.POLAR.0>
0

>  <SCORE.INTRA.REPUL>
0

>  <SCORE.INTRA.REPUL.0>
0

>  <SCORE.INTRA.VDW>
0.494335

>  <SCORE.INTRA.VDW.0>
-1.17154

>  <SCORE.INTRA.norm>
-0.19406

>  <SCORE.RESTR>
0

>  <SCORE.RESTR.CAVITY>
0

>  <SCORE.RESTR.norm>
0

>  <SCORE.SYSTEM>
-0.0448336

>  <SCORE.SYSTEM.CONST>
0

>  <SCORE.SYSTEM.DIHEDRAL>
0.680775

>  <SCORE.SYSTEM.VDW>
-0.385221

>  <SCORE.SYSTEM.norm>
-0.00249076

>  <SCORE.heavy>
18

>  <SCORE.norm>
-1.4119

>  <SMILES>
CN(N=O)/C(O)=N\[C@H]1[C@@H](O)O[C@H](CO)[C@@H](O)[C@@H]1O

>  <UniqueID>
113

$$$$
644170
  rDOCK(R)          3D
libRbt.so/2013.1/901 2013/11/27
 20 20  0  0  0  0  0  0  0  0999 V2000
   31.4577   -1.3272  -64.6835 H   0  0  0  0  0  0
   32.2800   -0.9555  -64.2234 O   0  0  0  0  0  0
   32.1851    0.1027  -63.3202 C   0  0  0  0  0  0
   33.2509    0.6084  -62.7749 N   0  0  0  0  0  0
   34.6213    0.1559  -63.0363 C   0  0  0  0  0  0
   35.3725    0.0484  -61.6937 C   0  0  0  0  0  0
   36.6258   -0.5713  -61.8543 O   0  0  0  0  0  0
   36.4541   -1.4788  -62.2184 H   0  0  0  0  0  0
   35.5163    1.3212  -61.0824 O   0  0  0  0  0  0
   36.2943    2.2052  -61.8774 C   0  0  0  0  0  0
   36.4843    3.5162  -61.0994 C   0  0  0  0  0  0
   37.1669    3.2767  -59.8978 O   0  0  0  0  0  0
   38.0693    2.9426  -60.1419 H   0  0  0  0  0  0
   35.6074    2.4755  -63.2362 C   0  0  0  0  0  0
   36.4308    3.2964  -64.0256 O   0  0  0  0  0  0
   36.3637    4.2148  -63.6545 H   0  0  0  0  0  0
   35.3596    1.1437  -63.9641 C   0  0  0  0  0  0
   34.6208    1.3764  -65.1353 O   0  0  0  0  0  0
   35.1466    2.0171  -65.6820 H   0  0  0  0  0  0
   30.8462    0.6796  -62.9912 C   0  0  0  0  0  0
  1  2  1  0  0  0
  2  3  1  0  0  0
  3  4  2  0  0  0
  3 20  1  0  0  0
  4  5  1  0  0  0
  5  6  1  0  0  0
  6  7  1  0  0  0
  6  9  1  0  0  0
  7  8  1  0  0  0
  9 10  1  0  0  0
 10 11  1  0  0  0
 10 14  1  0  0  0
 11 12  1  0  0  0
 12 13  1  0  0  0
 14 15  1  0  0  0
 14 17  1  0  0  0
 15 16  1  0  0  0
 17 18  1  0  0  0
 17  5  1  0  0  0
 18 19  1  0  0  0
M  END
>  <CHROM.0>
-175.32036825,-62.41988450,-178.03573150

>  <CHROM.1>
-177.24211634,-135.46661291,-59.96633840,61.17146241,63.52126896,-74.93484104
179.83655106,34.88327523,1.25718036,-62.68930562,2.99280056,-0.67398780,-1.08938759

>  <Energy>
26.10800706545847

>  <Genealogy>
CC(O)=N[C@@H]1[C@@H](O)O[C@H](CO)[C@@H](O)[C@@H]1O (tautomer)
C/C(O)=N/[C@@H]1[C@@H](O)O[C@H](CO)[C@@H](O)[C@@H]1O (cis-trans isomerization)
C/C(O)=N/[C@@H]1[C@@H](O)O[C@H](CO)[C@@H](O)[C@@H]1O (3D coordinates assigned)
C/C(O)=N/[C@@H]1[C@@H](O)O[C@H](CO)[C@@H](O)[C@@H]1O (nonaromatic ring conformer: 26.10800706545847 kcal/mol)

>  <Name>
644170

>  <RI>
2.59779e+07

>  <Rbt.Current_Directory>
/home/edward/Documentos/Virtual_Screening/rDock/N-terminal/2

>  <Rbt.Executable>
rbdock ($Id: //depot/dev/client3/rdock/2013.1/src/exe/rbdock.cxx#4 $)

>  <Rbt.Library>
libRbt.so (2013.1, Build901 2013/11/27)

>  <Rbt.Parameter_File>
/home/edward/anaconda3/envs/MD/share/rdock-2013.1-1/data/scripts/dock.prm

>  <Rbt.Receptor>
parameters.prm

>  <SCORE>
-24.4817

>  <SCORE.INTER>
-21.0775

>  <SCORE.INTER.CONST>
1

>  <SCORE.INTER.POLAR>
-3.951

>  <SCORE.INTER.REPUL>
0

>  <SCORE.INTER.ROT>
2

>  <SCORE.INTER.VDW>
-15.0441

>  <SCORE.INTER.norm>
-1.40517

>  <SCORE.INTRA>
-2.38183

>  <SCORE.INTRA.DIHEDRAL>
-5.91289

>  <SCORE.INTRA.DIHEDRAL.0>
7.51627

>  <SCORE.INTRA.POLAR>
-0.00621118

>  <SCORE.INTRA.POLAR.0>
0

>  <SCORE.INTRA.REPUL>
0

>  <SCORE.INTRA.REPUL.0>
0

>  <SCORE.INTRA.VDW>
0.595728

>  <SCORE.INTRA.VDW.0>
-1.63994

>  <SCORE.INTRA.norm>
-0.158789

>  <SCORE.RESTR>
0

>  <SCORE.RESTR.CAVITY>
0

>  <SCORE.RESTR.norm>
0

>  <SCORE.SYSTEM>
-1.02235

>  <SCORE.SYSTEM.CONST>
0

>  <SCORE.SYSTEM.DIHEDRAL>
0.15541

>  <SCORE.SYSTEM.REPUL>
0.0270682

>  <SCORE.SYSTEM.VDW>
-1.2354

>  <SCORE.SYSTEM.norm>
-0.0681568

>  <SCORE.heavy>
15

>  <SCORE.norm>
-1.63211

>  <SMILES>
C/C(O)=N/[C@@H]1[C@@H](O)O[C@H](CO)[C@@H](O)[C@@H]1O

>  <UniqueID>
116

$$$$
449462
  rDOCK(R)          3D
libRbt.so/2013.1/901 2013/11/27
 19 19  0  0  0  0  0  0  0  0999 V2000
   34.8027    0.6491  -64.4860 N   0  3  0  0  0  0
   35.0985    1.1492  -63.1356 C   0  0  0  0  0  0
   35.4104    2.6668  -63.1704 C   0  0  0  0  0  0
   36.5525    2.8828  -63.9545 O   0  0  0  0  0  0
   35.6602    3.1600  -61.8633 O   0  0  0  0  0  0
   34.4987    3.0470  -61.0590 C   0  0  0  0  0  0
   34.7168    3.8046  -59.7419 C   0  0  0  0  0  0
   35.0270    5.1491  -59.9876 O   0  0  0  0  0  0
   34.1540    1.5605  -60.8207 C   0  0  0  0  0  0
   35.2105    0.9239  -60.1444 O   0  0  0  0  0  0
   33.9104    0.8808  -62.1799 C   0  0  0  0  0  0
   33.7401   -0.5013  -61.9863 O   0  0  0  0  0  0
   35.3857    1.1531  -65.1926 H   0  0  0  0  0  0
   33.7913    0.7861  -64.7161 H   0  0  0  0  0  0
   35.0365   -0.3676  -64.5513 H   0  0  0  0  0  0
   36.7145    3.8622  -63.9510 H   0  0  0  0  0  0
   35.8213    5.1441  -60.5825 H   0  0  0  0  0  0
   34.9025    0.0066  -59.9228 H   0  0  0  0  0  0
   34.6061   -0.8616  -61.6613 H   0  0  0  0  0  0
  1  2  1  0  0  0
  1 13  1  0  0  0
  1 14  1  0  0  0
  1 15  1  0  0  0
  2  3  1  0  0  0
  3  4  1  0  0  0
  3  5  1  0  0  0
  4 16  1  0  0  0
  5  6  1  0  0  0
  6  7  1  0  0  0
  6  9  1  0  0  0
  7  8  1  0  0  0
  8 17  1  0  0  0
  9 10  1  0  0  0
  9 11  1  0  0  0
 10 18  1  0  0  0
 11 12  1  0  0  0
 11  2  1  0  0  0
 12 19  1  0  0  0
M  END
>  <CHROM.0>
-175.88044814,-60.43289357,-59.86862902

>  <CHROM.1>
34.81380956,179.90541252,57.45325704,-56.07205835,173.64054291,55.45656197
34.93603278,2.10464568,-61.89740627,-1.72294994,1.10217828,0.85793352

>  <Energy>
23.229676877115722

>  <Genealogy>
[NH3+][C@H]1[C@H](O)O[C@H](CO)[C@H](O)[C@@H]1O (protonated)
[NH3+][C@H]1[C@H](O)O[C@H](CO)[C@H](O)[C@@H]1O (3D coordinates assigned)
[NH3+][C@H]1[C@H](O)O[C@H](CO)[C@H](O)[C@@H]1O (nonaromatic ring conformer: 23.229676877115722 kcal/mol)

>  <Name>
449462

>  <RI>
2.59779e+07

>  <Rbt.Current_Directory>
/home/edward/Documentos/Virtual_Screening/rDock/N-terminal/2

>  <Rbt.Executable>
rbdock ($Id: //depot/dev/client3/rdock/2013.1/src/exe/rbdock.cxx#4 $)

>  <Rbt.Library>
libRbt.so (2013.1, Build901 2013/11/27)

>  <Rbt.Parameter_File>
/home/edward/anaconda3/envs/MD/share/rdock-2013.1-1/data/scripts/dock.prm

>  <Rbt.Receptor>
parameters.prm

>  <SCORE>
-22.2558

>  <SCORE.INTER>
-19.4321

>  <SCORE.INTER.CONST>
1

>  <SCORE.INTER.POLAR>
-3.68551

>  <SCORE.INTER.REPUL>
0.00345806

>  <SCORE.INTER.ROT>
1

>  <SCORE.INTER.VDW>
-13.3187

>  <SCORE.INTER.norm>
-1.61934

>  <SCORE.INTRA>
-1.84114

>  <SCORE.INTRA.DIHEDRAL>
-5.23672

>  <SCORE.INTRA.DIHEDRAL.0>
7.08469

>  <SCORE.INTRA.POLAR>
-0.0643608

>  <SCORE.INTRA.POLAR.0>
0

>  <SCORE.INTRA.REPUL>
0

>  <SCORE.INTRA.REPUL.0>
0

>  <SCORE.INTRA.VDW>
0.996049

>  <SCORE.INTRA.VDW.0>
-1.1512

>  <SCORE.INTRA.norm>
-0.153428

>  <SCORE.RESTR>
0

>  <SCORE.RESTR.CAVITY>
0

>  <SCORE.RESTR.norm>
0

>  <SCORE.SYSTEM>
-0.982619

>  <SCORE.SYSTEM.CONST>
0

>  <SCORE.SYSTEM.DIHEDRAL>
0.0844328

>  <SCORE.SYSTEM.REPUL>
0.0286364

>  <SCORE.SYSTEM.VDW>
-1.16802

>  <SCORE.SYSTEM.norm>
-0.081885

>  <SCORE.heavy>
12

>  <SCORE.norm>
-1.85465

>  <SMILES>
[NH3+][C@H]1[C@H](O)O[C@H](CO)[C@H](O)[C@@H]1O

>  <UniqueID>
118

$$$$
448882
  rDOCK(R)          3D
libRbt.so/2013.1/901 2013/11/27
 20 20  0  0  0  0  0  0  0  0999 V2000
   34.0127    4.2798  -55.9823 H   0  0  0  0  0  0
   34.2449    5.2165  -56.2903 O   0  0  0  0  0  0
   34.3368    5.5287  -57.6464 C   0  0  0  0  0  0
   34.7429    6.7016  -58.0319 N   0  0  0  0  0  0
   35.0962    7.8012  -57.1302 C   0  0  0  0  0  0
   35.9053    8.8582  -57.9124 C   0  0  0  0  0  0
   35.2047    9.2471  -59.0847 O   0  0  0  0  0  0
   36.0705    9.9338  -59.9618 C   0  0  0  0  0  0
   36.2129    9.9795  -57.0919 O   0  0  0  0  0  0
   35.0361   10.6341  -56.6419 C   0  0  0  0  0  0
   35.4197   11.9416  -55.9289 C   0  0  0  0  0  0
   36.2653   11.7032  -54.8348 O   0  0  0  0  0  0
   37.1889   11.6437  -55.1937 H   0  0  0  0  0  0
   34.2017    9.7038  -55.7344 C   0  0  0  0  0  0
   34.9410    9.3562  -54.5894 O   0  0  0  0  0  0
   35.2122   10.2047  -54.1512 H   0  0  0  0  0  0
   33.8273    8.4370  -56.5273 C   0  0  0  0  0  0
   33.1788    7.5150  -55.6902 O   0  0  0  0  0  0
   32.9876    6.7124  -56.2425 H   0  0  0  0  0  0
   34.0078    4.4917  -58.6713 C   0  0  0  0  0  0
  1  2  1  0  0  0
  2  3  1  0  0  0
  3  4  2  0  0  0
  3 20  1  0  0  0
  4  5  1  0  0  0
  5  6  1  0  0  0
  6  7  1  0  0  0
  6  9  1  0  0  0
  7  8  1  0  0  0
  9 10  1  0  0  0
 10 11  1  0  0  0
 10 14  1  0  0  0
 11 12  1  0  0  0
 12 13  1  0  0  0
 14 15  1  0  0  0
 14 17  1  0  0  0
 15 16  1  0  0  0
 17 18  1  0  0  0
 17  5  1  0  0  0
 18 19  1  0  0  0
M  END
>  <CHROM.0>
-175.33161008,-60.31267752,62.68265661

>  <CHROM.1>
-174.24401592,163.64350031,-164.95217307,-58.92388939,84.02068587,55.94097893
-56.92278534,34.92988656,8.57652706,-56.94028291,2.22853804,-1.14274196,-2.24636349

>  <Energy>
30.958163973182206

>  <Genealogy>
CO[C@H]1O[C@H](CO)[C@H](O)[C@H](O)[C@H]1N=C(C)O (tautomer)
CO[C@H]1O[C@H](CO)[C@H](O)[C@H](O)[C@H]1/N=C(\C)O (cis-trans isomerization)
CO[C@H]1O[C@H](CO)[C@H](O)[C@H](O)[C@H]1/N=C(\C)O (3D coordinates assigned)
CO[C@H]1O[C@H](CO)[C@H](O)[C@H](O)[C@H]1/N=C(\C)O (nonaromatic ring conformer: 30.958163973182206 kcal/mol)

>  <Name>
448882

>  <RI>
2.59779e+07

>  <Rbt.Current_Directory>
/home/edward/Documentos/Virtual_Screening/rDock/N-terminal/2

>  <Rbt.Executable>
rbdock ($Id: //depot/dev/client3/rdock/2013.1/src/exe/rbdock.cxx#4 $)

>  <Rbt.Library>
libRbt.so (2013.1, Build901 2013/11/27)

>  <Rbt.Parameter_File>
/home/edward/anaconda3/envs/MD/share/rdock-2013.1-1/data/scripts/dock.prm

>  <Rbt.Receptor>
parameters.prm

>  <SCORE>
-16.8834

>  <SCORE.INTER>
-13.3302

>  <SCORE.INTER.CONST>
1

>  <SCORE.INTER.POLAR>
-2.71753

>  <SCORE.INTER.REPUL>
0.00105736

>  <SCORE.INTER.ROT>
3

>  <SCORE.INTER.VDW>
-12.4959

>  <SCORE.INTER.norm>
-0.833137

>  <SCORE.INTRA>
-2.43386

>  <SCORE.INTRA.DIHEDRAL>
-2.23572

>  <SCORE.INTRA.DIHEDRAL.0>
8.13993

>  <SCORE.INTRA.POLAR>
-0.881482

>  <SCORE.INTRA.POLAR.0>
0

>  <SCORE.INTRA.REPUL>
0

>  <SCORE.INTRA.REPUL.0>
0

>  <SCORE.INTRA.VDW>
1.68104

>  <SCORE.INTRA.VDW.0>
-1.41263

>  <SCORE.INTRA.norm>
-0.152116

>  <SCORE.RESTR>
0

>  <SCORE.RESTR.CAVITY>
0

>  <SCORE.RESTR.norm>
0

>  <SCORE.SYSTEM>
-1.11931

>  <SCORE.SYSTEM.CONST>
0

>  <SCORE.SYSTEM.DIHEDRAL>
0.142952

>  <SCORE.SYSTEM.REPUL>
0.0270997

>  <SCORE.SYSTEM.VDW>
-1.32629

>  <SCORE.SYSTEM.norm>
-0.0699572

>  <SCORE.heavy>
16

>  <SCORE.norm>
-1.05521

>  <SMILES>
CO[C@H]1O[C@H](CO)[C@H](O)[C@H](O)[C@H]1/N=C(\C)O

>  <UniqueID>
119

$$$$
447448
  rDOCK(R)          3D
libRbt.so/2013.1/901 2013/11/27
 23 23  0  0  0  0  0  0  0  0999 V2000
   32.0946   -0.1312  -61.7748 H   0  0  0  0  0  0
   31.8445   -0.9356  -62.3388 O   0  0  0  0  0  0
   32.7051   -1.4659  -63.3027 C   0  0  0  0  0  0
   32.3600   -2.6031  -63.9332 C   0  0  0  0  0  0
   33.1711   -3.2632  -65.0158 C   0  0  0  0  0  0
   32.2990   -3.6639  -66.2039 C   0  0  0  0  0  0
   33.9389   -0.7826  -63.5908 N   0  0  0  0  0  0
   34.7074   -1.2777  -64.0953 H   0  0  0  0  0  0
   34.2343    0.5533  -63.0641 C   0  0  0  0  0  0
   34.8049    0.4455  -61.6384 C   0  0  0  0  0  0
   33.8458   -0.1506  -60.8080 O   0  0  0  0  0  0
   34.2586   -0.2203  -59.9079 H   0  0  0  0  0  0
   35.1066    1.7358  -61.1351 O   0  0  0  0  0  0
   36.1568    2.3299  -61.8807 C   0  0  0  0  0  0
   36.5540    3.6429  -61.1961 C   0  0  0  0  0  0
   37.2055    3.3657  -59.9872 O   0  0  0  0  0  0
   38.0496    2.9030  -60.2289 H   0  0  0  0  0  0
   35.7039    2.5867  -63.3370 C   0  0  0  0  0  0
   36.7719    3.1254  -64.0747 O   0  0  0  0  0  0
   36.8610    4.0759  -63.8027 H   0  0  0  0  0  0
   35.2472    1.2623  -63.9785 C   0  0  0  0  0  0
   34.6466    1.5114  -65.2240 O   0  0  0  0  0  0
   35.3591    1.8496  -65.8269 H   0  0  0  0  0  0
  1  2  1  0  0  0
  2  3  1  0  0  0
  3  4  2  0  0  0
  3  7  1  0  0  0
  4  5  1  0  0  0
  5  6  1  0  0  0
  7  8  1  0  0  0
  7  9  1  0  0  0
  9 10  1  0  0  0
 10 11  1  0  0  0
 10 13  1  0  0  0
 11 12  1  0  0  0
 13 14  1  0  0  0
 14 15  1  0  0  0
 14 18  1  0  0  0
 15 16  1  0  0  0
 16 17  1  0  0  0
 18 19  1  0  0  0
 18 21  1  0  0  0
 19 20  1  0  0  0
 21 22  1  0  0  0
 21  9  1  0  0  0
 22 23  1  0  0  0
M  END
>  <CHROM.0>
-172.78642217,-176.30287153,61.81630168

>  <CHROM.1>
174.22256076,-133.23934145,83.91969723,178.73015818,70.49417892,65.08953361
-75.67057453,-172.18734133,34.54164675,0.50916632,-62.95013217,2.60499082
-0.91157024,-1.73174349

>  <Energy>
26.495796909454963

>  <Genealogy>
CCC=C(O)N[C@H]1[C@H](O)O[C@H](CO)[C@@H](O)[C@@H]1O (tautomer)
CC/C=C(\O)N[C@H]1[C@H](O)O[C@H](CO)[C@@H](O)[C@@H]1O (cis-trans isomerization)
CC/C=C(\O)N[C@H]1[C@H](O)O[C@H](CO)[C@@H](O)[C@@H]1O (3D coordinates assigned)
CC/C=C(\O)N[C@H]1[C@H](O)O[C@H](CO)[C@@H](O)[C@@H]1O (nonaromatic ring conformer: 26.495796909454963 kcal/mol)

>  <Name>
447448

>  <RI>
2.59779e+07

>  <Rbt.Current_Directory>
/home/edward/Documentos/Virtual_Screening/rDock/N-terminal/2

>  <Rbt.Executable>
rbdock ($Id: //depot/dev/client3/rdock/2013.1/src/exe/rbdock.cxx#4 $)

>  <Rbt.Library>
libRbt.so (2013.1, Build901 2013/11/27)

>  <Rbt.Parameter_File>
/home/edward/anaconda3/envs/MD/share/rdock-2013.1-1/data/scripts/dock.prm

>  <Rbt.Receptor>
parameters.prm

>  <SCORE>
-32.4086

>  <SCORE.INTER>
-28.4651

>  <SCORE.INTER.CONST>
1

>  <SCORE.INTER.POLAR>
-5.93202

>  <SCORE.INTER.REPUL>
0

>  <SCORE.INTER.ROT>
3

>  <SCORE.INTER.VDW>
-16.6963

>  <SCORE.INTER.norm>
-1.67442

>  <SCORE.INTRA>
-3.44971

>  <SCORE.INTRA.DIHEDRAL>
-5.47066

>  <SCORE.INTRA.DIHEDRAL.0>
10.8532

>  <SCORE.INTRA.POLAR>
-0.369965

>  <SCORE.INTRA.POLAR.0>
0

>  <SCORE.INTRA.REPUL>
0

>  <SCORE.INTRA.REPUL.0>
0

>  <SCORE.INTRA.VDW>
0.543499

>  <SCORE.INTRA.VDW.0>
-2.11497

>  <SCORE.INTRA.norm>
-0.202924

>  <SCORE.RESTR>
0

>  <SCORE.RESTR.CAVITY>
0

>  <SCORE.RESTR.norm>
0

>  <SCORE.SYSTEM>
-0.493732

>  <SCORE.SYSTEM.CONST>
0

>  <SCORE.SYSTEM.DIHEDRAL>
0.337257

>  <SCORE.SYSTEM.REPUL>
0.0718777

>  <SCORE.SYSTEM.VDW>
-1.02175

>  <SCORE.SYSTEM.norm>
-0.0290431

>  <SCORE.heavy>
17

>  <SCORE.norm>
-1.90639

>  <SMILES>
CC/C=C(\O)N[C@H]1[C@H](O)O[C@H](CO)[C@@H](O)[C@@H]1O

>  <UniqueID>
121

$$$$
446101
  rDOCK(R)          3D
libRbt.so/2013.1/901 2013/11/27
 23 23  0  0  0  0  0  0  0  0999 V2000
   34.4620   12.0365  -61.7458 H   0  0  0  0  0  0
   34.6737   11.3235  -61.0617 O   0  0  0  0  0  0
   35.9630   10.8474  -60.8064 C   0  0  0  0  0  0
   36.1959    9.8468  -60.0049 N   0  0  0  0  0  0
   35.2117    9.0868  -59.2291 C   0  0  0  0  0  0
   34.5700    8.0262  -60.1455 C   0  0  0  0  0  0
   33.8938    8.6768  -61.1872 O   0  0  0  0  0  0
   33.5148    7.9635  -61.7644 H   0  0  0  0  0  0
   33.6409    7.2354  -59.4216 O   0  0  0  0  0  0
   34.3050    6.4843  -58.4189 C   0  0  0  0  0  0
   33.3290    5.4600  -57.8169 C   0  0  0  0  0  0
   33.9188    4.7414  -56.7659 O   0  0  0  0  0  0
   33.2484    4.0761  -56.4608 H   0  0  0  0  0  0
   34.9037    7.4237  -57.3444 C   0  0  0  0  0  0
   33.8671    8.1761  -56.7369 O   0  0  0  0  0  0
   34.1942    8.4125  -55.0885 S   0  0  0  0  0  0
   34.7749    9.7850  -54.9017 O   0  0  0  0  0  0
   35.1847    7.3921  -54.6019 O   0  0  0  0  0  0
   32.7777    8.2952  -54.1917 O   0  5  0  0  0  0
   35.8929    8.3827  -58.0330 C   0  0  0  0  0  0
   36.3559    9.3246  -57.1001 O   0  0  0  0  0  0
   35.5632    9.8208  -56.7672 H   0  0  0  0  0  0
   37.1140   11.4945  -61.5003 C   0  0  0  0  0  0
  1  2  1  0  0  0
  2  3  1  0  0  0
  3  4  2  0  0  0
  3 23  1  0  0  0
  4  5  1  0  0  0
  5  6  1  0  0  0
  6  7  1  0  0  0
  6  9  1  0  0  0
  7  8  1  0  0  0
  9 10  1  0  0  0
 10 11  1  0  0  0
 10 14  1  0  0  0
 11 12  1  0  0  0
 12 13  1  0  0  0
 14 15  1  0  0  0
 14 20  1  0  0  0
 15 16  1  0  0  0
 16 17  2  0  0  0
 16 18  2  0  0  0
 16 19  1  0  0  0
 20 21  1  0  0  0
 20  5  1  0  0  0
 21 22  1  0  0  0
M  END
>  <CHROM.0>
-174.60151203,-177.33484841,63.95406116

>  <CHROM.1>
-173.80580409,81.92919952,178.67084985,-176.66857191,-177.33025466,144.22581427
99.26991252,61.65655198,34.70516810,8.43811455,-57.89364584,-0.95089316,1.14769161
1.47318127

>  <Energy>
32.15286585518792

>  <Genealogy>
CC(=O)N[C@H]1[C@H](O)O[C@H](CO)[C@H](OS(=O)(=O)[O-])[C@@H]1O (protonated)
CC(O)=N[C@H]1[C@H](O)O[C@H](CO)[C@H](OS(=O)(=O)[O-])[C@@H]1O (tautomer)
C/C(O)=N/[C@H]1[C@H](O)O[C@H](CO)[C@H](OS(=O)(=O)[O-])[C@@H]1O (cis-trans isomerization)
C/C(O)=N/[C@H]1[C@H](O)O[C@H](CO)[C@H](OS(=O)(=O)[O-])[C@@H]1O (3D coordinates assigned)
C/C(O)=N/[C@H]1[C@H](O)O[C@H](CO)[C@H](OS(=O)(=O)[O-])[C@@H]1O (nonaromatic ring conformer: 32.15286585518792 kcal/mol)

>  <Name>
446101

>  <RI>
2.59779e+07

>  <Rbt.Current_Directory>
/home/edward/Documentos/Virtual_Screening/rDock/N-terminal/2

>  <Rbt.Executable>
rbdock ($Id: //depot/dev/client3/rdock/2013.1/src/exe/rbdock.cxx#4 $)

>  <Rbt.Library>
libRbt.so (2013.1, Build901 2013/11/27)

>  <Rbt.Parameter_File>
/home/edward/anaconda3/envs/MD/share/rdock-2013.1-1/data/scripts/dock.prm

>  <Rbt.Receptor>
parameters.prm

>  <SCORE>
-18.1661

>  <SCORE.INTER>
-15.2803

>  <SCORE.INTER.CONST>
1

>  <SCORE.INTER.POLAR>
-3.28409

>  <SCORE.INTER.REPUL>
0.0311728

>  <SCORE.INTER.ROT>
4

>  <SCORE.INTER.VDW>
-13.6703

>  <SCORE.INTER.norm>
-0.804227

>  <SCORE.INTRA>
-2.37019

>  <SCORE.INTRA.DIHEDRAL>
-6.24017

>  <SCORE.INTRA.DIHEDRAL.0>
13.8313

>  <SCORE.INTRA.POLAR>
-0.209387

>  <SCORE.INTRA.POLAR.0>
0

>  <SCORE.INTRA.REPUL>
0

>  <SCORE.INTRA.REPUL.0>
0

>  <SCORE.INTRA.VDW>
1.46181

>  <SCORE.INTRA.VDW.0>
-3.78185

>  <SCORE.INTRA.norm>
-0.124747

>  <SCORE.RESTR>
0

>  <SCORE.RESTR.CAVITY>
0

>  <SCORE.RESTR.norm>
0

>  <SCORE.SYSTEM>
-0.515629

>  <SCORE.SYSTEM.CONST>
0

>  <SCORE.SYSTEM.DIHEDRAL>
0.254737

>  <SCORE.SYSTEM.REPUL>
0.078999

>  <SCORE.SYSTEM.VDW>
-1.03799

>  <SCORE.SYSTEM.norm>
-0.0271384

>  <SCORE.heavy>
19

>  <SCORE.norm>
-0.956112

>  <SMILES>
C/C(O)=N/[C@H]1[C@H](O)O[C@H](CO)[C@H](OS(=O)(=O)[O-])[C@@H]1O

>  <UniqueID>
123

$$$$
445621
  rDOCK(R)          3D
libRbt.so/2013.1/901 2013/11/27
 19 19  0  0  0  0  0  0  0  0999 V2000
   34.0741   -0.8384  -63.5393 N   0  3  0  0  0  0
   34.2863    0.5057  -62.9841 C   0  0  0  0  0  0
   34.8311    0.4296  -61.5402 C   0  0  0  0  0  0
   36.0022   -0.3469  -61.4784 O   0  0  0  0  0  0
   35.0470    1.7279  -61.0073 O   0  0  0  0  0  0
   36.0258    2.4445  -61.7456 C   0  0  0  0  0  0
   36.2810    3.7727  -61.0184 C   0  0  0  0  0  0
   35.0699    4.3574  -60.6249 O   0  0  0  0  0  0
   35.5469    2.6781  -63.2004 C   0  0  0  0  0  0
   36.5440    3.3354  -63.9424 O   0  0  0  0  0  0
   35.2408    1.3282  -63.8708 C   0  0  0  0  0  0
   34.6425    1.5449  -65.1235 O   0  0  0  0  0  0
   33.6925   -1.4720  -62.7998 H   0  0  0  0  0  0
   33.3783   -0.7948  -64.3188 H   0  0  0  0  0  0
   34.9696   -1.2369  -63.9043 H   0  0  0  0  0  0
   35.7446   -1.2638  -61.7580 H   0  0  0  0  0  0
   34.7637    4.9023  -61.3958 H   0  0  0  0  0  0
   36.5585    4.2818  -63.6428 H   0  0  0  0  0  0
   35.3093    2.0215  -65.6837 H   0  0  0  0  0  0
  1  2  1  0  0  0
  1 13  1  0  0  0
  1 14  1  0  0  0
  1 15  1  0  0  0
  2  3  1  0  0  0
  3  4  1  0  0  0
  3  5  1  0  0  0
  4 16  1  0  0  0
  5  6  1  0  0  0
  6  7  1  0  0  0
  6  9  1  0  0  0
  7  8  1  0  0  0
  8 17  1  0  0  0
  9 10  1  0  0  0
  9 11  1  0  0  0
 10 18  1  0  0  0
 11 12  1  0  0  0
 11  2  1  0  0  0
 12 19  1  0  0  0
M  END
>  <CHROM.0>
-176.74887867,-58.92227560,179.48880716

>  <CHROM.1>
38.83849275,-62.63347331,-44.34884445,-87.35972645,-73.98341769,-176.21889598
35.29645696,1.74111642,-62.53108842,2.86382790,-1.29809220,-1.35700266

>  <Energy>
24.209519310862365

>  <Genealogy>
[NH3+][C@H]1[C@@H](O)O[C@H](CO)[C@@H](O)[C@@H]1O (protonated)
[NH3+][C@H]1[C@@H](O)O[C@H](CO)[C@@H](O)[C@@H]1O (3D coordinates assigned)
[NH3+][C@H]1[C@@H](O)O[C@H](CO)[C@@H](O)[C@@H]1O (nonaromatic ring conformer: 24.209519310862365 kcal/mol)

>  <Name>
445621

>  <RI>
2.59779e+07

>  <Rbt.Current_Directory>
/home/edward/Documentos/Virtual_Screening/rDock/N-terminal/2

>  <Rbt.Executable>
rbdock ($Id: //depot/dev/client3/rdock/2013.1/src/exe/rbdock.cxx#4 $)

>  <Rbt.Library>
libRbt.so (2013.1, Build901 2013/11/27)

>  <Rbt.Parameter_File>
/home/edward/anaconda3/envs/MD/share/rdock-2013.1-1/data/scripts/dock.prm

>  <Rbt.Receptor>
parameters.prm

>  <SCORE>
-27.6814

>  <SCORE.INTER>
-26.039

>  <SCORE.INTER.CONST>
1

>  <SCORE.INTER.POLAR>
-5.52329

>  <SCORE.INTER.REPUL>
0

>  <SCORE.INTER.ROT>
1

>  <SCORE.INTER.VDW>
-13.6598

>  <SCORE.INTER.norm>
-2.16992

>  <SCORE.INTRA>
-0.605082

>  <SCORE.INTRA.DIHEDRAL>
-2.18316

>  <SCORE.INTRA.DIHEDRAL.0>
8.27349

>  <SCORE.INTRA.POLAR>
0

>  <SCORE.INTRA.POLAR.0>
0

>  <SCORE.INTRA.REPUL>
0

>  <SCORE.INTRA.REPUL.0>
0

>  <SCORE.INTRA.VDW>
0.486495

>  <SCORE.INTRA.VDW.0>
-1.13053

>  <SCORE.INTRA.norm>
-0.0504235

>  <SCORE.RESTR>
0

>  <SCORE.RESTR.CAVITY>
0

>  <SCORE.RESTR.norm>
0

>  <SCORE.SYSTEM>
-1.0373

>  <SCORE.SYSTEM.CONST>
0

>  <SCORE.SYSTEM.DIHEDRAL>
0.0590537

>  <SCORE.SYSTEM.REPUL>
0.0310559

>  <SCORE.SYSTEM.VDW>
-1.2221

>  <SCORE.SYSTEM.norm>
-0.0864416

>  <SCORE.heavy>
12

>  <SCORE.norm>
-2.30678

>  <SMILES>
[NH3+][C@H]1[C@@H](O)O[C@H](CO)[C@@H](O)[C@@H]1O

>  <UniqueID>
125

$$$$
441477
  rDOCK(R)          3D
libRbt.so/2013.1/901 2013/11/27
 18 18  0  0  0  0  0  0  0  0999 V2000
   33.9628   -0.9497  -63.7513 N   0  0  0  0  0  0
   34.1269    0.4081  -63.2232 C   0  0  0  0  0  0
   34.6174    0.3535  -61.7553 C   0  0  0  0  0  0
   33.6765   -0.3087  -60.9509 O   0  0  0  0  0  0
   34.8246    1.6595  -61.2427 O   0  0  0  0  0  0
   35.8744    2.3092  -61.9382 C   0  0  0  0  0  0
   36.1888    3.6358  -61.2273 C   0  0  0  0  0  0
   35.0664    4.4777  -61.2006 O   0  0  0  0  0  0
   35.4817    2.5368  -63.4156 C   0  0  0  0  0  0
   36.5472    3.1475  -64.0985 O   0  0  0  0  0  0
   35.1482    1.1885  -64.0776 C   0  0  0  0  0  0
   34.6198    1.4273  -65.3583 O   0  0  0  0  0  0
   34.8981   -1.3028  -64.0573 H   0  0  0  0  0  0
   33.3888   -0.9023  -64.6240 H   0  0  0  0  0  0
   34.0394   -0.3220  -60.0265 H   0  0  0  0  0  0
   34.3513    3.9863  -60.7183 H   0  0  0  0  0  0
   36.6216    4.0734  -63.7482 H   0  0  0  0  0  0
   35.3136    1.9122  -65.8770 H   0  0  0  0  0  0
  1  2  1  0  0  0
  1 13  1  0  0  0
  1 14  1  0  0  0
  2  3  1  0  0  0
  3  4  1  0  0  0
  3  5  1  0  0  0
  4 15  1  0  0  0
  5  6  1  0  0  0
  6  7  1  0  0  0
  6  9  1  0  0  0
  7  8  1  0  0  0
  8 16  1  0  0  0
  9 10  1  0  0  0
  9 11  1  0  0  0
 10 17  1  0  0  0
 11 12  1  0  0  0
 11  2  1  0  0  0
 12 18  1  0  0  0
M  END
>  <CHROM.0>
179.83172034,-60.91809063,177.01938157

>  <CHROM.1>
-81.78347214,179.62071191,-59.87493692,59.37603398,-69.43011769,-178.84099750
34.99854618,1.67506308,-62.69109758,-2.55391059,1.10284524,1.26480161

>  <Energy>
21.948587500327633

>  <Genealogy>
N[C@H]1[C@H](O)O[C@H](CO)[C@@H](O)[C@@H]1O (3D coordinates assigned)
N[C@H]1[C@H](O)O[C@H](CO)[C@@H](O)[C@@H]1O (nonaromatic ring conformer: 21.948587500327633 kcal/mol)

>  <Name>
441477

>  <RI>
2.59779e+07

>  <Rbt.Current_Directory>
/home/edward/Documentos/Virtual_Screening/rDock/N-terminal/2

>  <Rbt.Executable>
rbdock ($Id: //depot/dev/client3/rdock/2013.1/src/exe/rbdock.cxx#4 $)

>  <Rbt.Library>
libRbt.so (2013.1, Build901 2013/11/27)

>  <Rbt.Parameter_File>
/home/edward/anaconda3/envs/MD/share/rdock-2013.1-1/data/scripts/dock.prm

>  <Rbt.Receptor>
parameters.prm

>  <SCORE>
-27.9361

>  <SCORE.INTER>
-23.867

>  <SCORE.INTER.CONST>
1

>  <SCORE.INTER.POLAR>
-5.51188

>  <SCORE.INTER.REPUL>
0

>  <SCORE.INTER.ROT>
2

>  <SCORE.INTER.VDW>
-12.5266

>  <SCORE.INTER.norm>
-1.98891

>  <SCORE.INTRA>
-3.05888

>  <SCORE.INTRA.DIHEDRAL>
-7.31377

>  <SCORE.INTRA.DIHEDRAL.0>
8.32062

>  <SCORE.INTRA.POLAR>
-0.0133002

>  <SCORE.INTRA.POLAR.0>
0

>  <SCORE.INTRA.REPUL>
0

>  <SCORE.INTRA.REPUL.0>
0

>  <SCORE.INTRA.VDW>
0.643222

>  <SCORE.INTRA.VDW.0>
-0.918951

>  <SCORE.INTRA.norm>
-0.254907

>  <SCORE.RESTR>
0

>  <SCORE.RESTR.CAVITY>
0

>  <SCORE.RESTR.norm>
0

>  <SCORE.SYSTEM>
-1.01024

>  <SCORE.SYSTEM.CONST>
0

>  <SCORE.SYSTEM.DIHEDRAL>
0.0480507

>  <SCORE.SYSTEM.REPUL>
0.0404259

>  <SCORE.SYSTEM.VDW>
-1.2364

>  <SCORE.SYSTEM.norm>
-0.084187

>  <SCORE.heavy>
12

>  <SCORE.norm>
-2.32801

>  <SMILES>
N[C@H]1[C@H](O)O[C@H](CO)[C@@H](O)[C@@H]1O

>  <UniqueID>
127

$$$$
441038
  rDOCK(R)          3D
libRbt.so/2013.1/901 2013/11/27
 22 22  0  0  0  0  0  0  0  0999 V2000
   34.9871    4.8465  -59.3772 C   0  0  0  0  0  0
   35.3405    3.5269  -60.0587 C   0  0  0  0  0  0
   34.7262    3.4962  -61.3359 O   0  0  0  0  0  0
   34.8502    2.2236  -61.9561 C   0  0  0  0  0  0
   33.6326    1.3547  -61.5897 C   0  0  0  0  0  0
   33.6967    1.0258  -60.2245 O   0  0  0  0  0  0
   33.6319    0.0661  -62.4463 C   0  0  0  0  0  0
   32.3968   -0.7946  -62.1409 C   0  0  0  0  0  0
   32.4731   -2.0192  -62.8198 O   0  0  0  0  0  0
   33.6171    0.3947  -63.8256 O   0  0  0  0  0  0
   34.8133    1.0542  -64.1982 C   0  0  0  0  0  0
   34.7827    1.2514  -65.5878 O   0  0  0  0  0  0
   34.9071    2.4235  -63.4812 C   0  0  0  0  0  0
   36.1361    3.1377  -63.8393 N   0  0  0  0  0  0
   36.8325    3.4101  -60.1964 C   0  0  0  0  0  0
   37.5549    3.2362  -59.1793 O   0  0  0  0  0  0
   37.4206    3.4731  -61.4532 O   0  5  0  0  0  0
   34.4359    0.3724  -60.1134 H   0  0  0  0  0  0
   33.2719   -2.4911  -62.4660 H   0  0  0  0  0  0
   35.5050    1.8955  -65.8104 H   0  0  0  0  0  0
   36.8308    3.0307  -63.0653 H   0  0  0  0  0  0
   35.9312    4.1582  -63.9458 H   0  0  0  0  0  0
  1  2  1  0  0  0
  2  3  1  0  0  0
  2 15  1  0  0  0
  3  4  1  0  0  0
  4  5  1  0  0  0
  5  6  1  0  0  0
  5  7  1  0  0  0
  6 18  1  0  0  0
  7  8  1  0  0  0
  7 10  1  0  0  0
  8  9  1  0  0  0
  9 19  1  0  0  0
 10 11  1  0  0  0
 11 12  1  0  0  0
 11 13  1  0  0  0
 12 20  1  0  0  0
 13 14  1  0  0  0
 13  4  1  0  0  0
 14 21  1  0  0  0
 14 22  1  0  0  0
 15 16  2  0  0  0
 15 17  1  0  0  0
M  END
>  <CHROM.0>
72.83762324,-177.46828043,178.88267252

>  <CHROM.1>
-171.67173029,69.86784467,91.04661583,-71.41611657,-174.05802553,62.84101393
166.71595829,20.82874942,34.81525296,1.86233906,-62.00571031,0.71669251,0.83812587
1.36665894

>  <Energy>
29.90819376511378

>  <Genealogy>
C[C@@H](O[C@H]1[C@H](O)[C@@H](CO)OC(O)[C@@H]1N)C(=O)[O-] (protonated)
C[C@@H](O[C@H]1[C@H](O)[C@@H](CO)O[C@@H](O)[C@@H]1N)C(=O)[O-] (chirality)
C[C@@H](O[C@H]1[C@H](O)[C@@H](CO)O[C@@H](O)[C@@H]1N)C(=O)[O-] (3D coordinates assigned)
C[C@@H](O[C@H]1[C@H](O)[C@@H](CO)O[C@@H](O)[C@@H]1N)C(=O)[O-] (nonaromatic ring conformer: 29.90819376511378 kcal/mol)

>  <Name>
441038

>  <RI>
2.59779e+07

>  <Rbt.Current_Directory>
/home/edward/Documentos/Virtual_Screening/rDock/N-terminal/2

>  <Rbt.Executable>
rbdock ($Id: //depot/dev/client3/rdock/2013.1/src/exe/rbdock.cxx#4 $)

>  <Rbt.Library>
libRbt.so (2013.1, Build901 2013/11/27)

>  <Rbt.Parameter_File>
/home/edward/anaconda3/envs/MD/share/rdock-2013.1-1/data/scripts/dock.prm

>  <Rbt.Receptor>
parameters.prm

>  <SCORE>
-24.948

>  <SCORE.INTER>
-17.3841

>  <SCORE.INTER.CONST>
1

>  <SCORE.INTER.POLAR>
-4.33322

>  <SCORE.INTER.REPUL>
0.0313429

>  <SCORE.INTER.ROT>
5

>  <SCORE.INTER.VDW>
-13.2079

>  <SCORE.INTER.norm>
-1.02259

>  <SCORE.INTRA>
-8.13858

>  <SCORE.INTRA.DIHEDRAL>
-10.728

>  <SCORE.INTRA.DIHEDRAL.0>
19.2311

>  <SCORE.INTRA.POLAR>
-1.29659

>  <SCORE.INTRA.POLAR.0>
0

>  <SCORE.INTRA.REPUL>
0

>  <SCORE.INTRA.REPUL.0>
0

>  <SCORE.INTRA.VDW>
1.63386

>  <SCORE.INTRA.VDW.0>
-2.40039

>  <SCORE.INTRA.norm>
-0.47874

>  <SCORE.RESTR>
0

>  <SCORE.RESTR.CAVITY>
0

>  <SCORE.RESTR.norm>
0

>  <SCORE.SYSTEM>
0.574644

>  <SCORE.SYSTEM.CONST>
0

>  <SCORE.SYSTEM.DIHEDRAL>
0.820857

>  <SCORE.SYSTEM.POLAR>
-0.0168747

>  <SCORE.SYSTEM.REPUL>
0.0620575

>  <SCORE.SYSTEM.VDW>
-0.0886985

>  <SCORE.SYSTEM.norm>
0.0338026

>  <SCORE.heavy>
17

>  <SCORE.norm>
-1.46753

>  <SMILES>
C[C@@H](O[C@H]1[C@H](O)[C@@H](CO)O[C@@H](O)[C@@H]1N)C(=O)[O-]

>  <UniqueID>
129

$$$$
440552
  rDOCK(R)          3D
libRbt.so/2013.1/901 2013/11/27
 20 20  0  0  0  0  0  0  0  0999 V2000
   34.3352    5.8979  -57.4922 H   0  0  0  0  0  0
   34.5392    5.2599  -58.2520 O   0  0  0  0  0  0
   33.7673    5.2510  -59.4135 C   0  0  0  0  0  0
   33.9921    4.3809  -60.3524 N   0  0  0  0  0  0
   35.0356    3.3527  -60.2999 C   0  0  0  0  0  0
   34.4053    1.9466  -60.3879 C   0  0  0  0  0  0
   35.3524    0.9579  -60.0796 O   0  0  0  0  0  0
   34.8664    0.0923  -60.0803 H   0  0  0  0  0  0
   33.7820    1.6990  -61.6429 O   0  0  0  0  0  0
   34.6429    1.8612  -62.7663 C   0  0  0  0  0  0
   35.5756    0.6477  -62.9838 C   0  0  0  0  0  0
   34.8396   -0.4704  -63.4017 O   0  0  0  0  0  0
   35.4706   -1.0593  -63.8924 H   0  0  0  0  0  0
   35.3574    3.2392  -62.7933 C   0  0  0  0  0  0
   36.3086    3.2995  -63.8257 O   0  0  0  0  0  0
   36.6235    4.2401  -63.8707 H   0  0  0  0  0  0
   36.0250    3.5773  -61.4536 C   0  0  0  0  0  0
   37.1815    2.7997  -61.2734 O   0  0  0  0  0  0
   37.6019    3.1002  -60.4256 H   0  0  0  0  0  0
   32.6531    6.2345  -59.5727 C   0  0  0  0  0  0
  1  2  1  0  0  0
  2  3  1  0  0  0
  3  4  2  0  0  0
  3 20  1  0  0  0
  4  5  1  0  0  0
  5  6  1  0  0  0
  6  7  1  0  0  0
  6  9  1  0  0  0
  7  8  1  0  0  0
  9 10  1  0  0  0
 10 11  1  0  0  0
 10 14  1  0  0  0
 11 12  1  0  0  0
 12 13  1  0  0  0
 14 15  1  0  0  0
 14 17  1  0  0  0
 15 16  1  0  0  0
 17 18  1  0  0  0
 17  5  1  0  0  0
 18 19  1  0  0  0
M  END
>  <CHROM.0>
175.65771178,-61.58858337,-179.19766638

>  <CHROM.1>
-176.29395750,119.80500942,175.37209843,69.06856077,155.75486109,171.69545618
-61.53116299,34.93633106,2.88551608,-61.24310558,2.05052756,0.96238319,0.29603014

>  <Energy>
31.89218430913147

>  <Genealogy>
CC(O)=N[C@H]1[C@H](O)O[C@H](CO)[C@H](O)[C@@H]1O (tautomer)
C/C(O)=N/[C@H]1[C@H](O)O[C@H](CO)[C@H](O)[C@@H]1O (cis-trans isomerization)
C/C(O)=N/[C@H]1[C@H](O)O[C@H](CO)[C@H](O)[C@@H]1O (3D coordinates assigned)
C/C(O)=N/[C@H]1[C@H](O)O[C@H](CO)[C@H](O)[C@@H]1O (nonaromatic ring conformer: 31.89218430913147 kcal/mol)

>  <Name>
440552

>  <RI>
2.59779e+07

>  <Rbt.Current_Directory>
/home/edward/Documentos/Virtual_Screening/rDock/N-terminal/2

>  <Rbt.Executable>
rbdock ($Id: //depot/dev/client3/rdock/2013.1/src/exe/rbdock.cxx#4 $)

>  <Rbt.Library>
libRbt.so (2013.1, Build901 2013/11/27)

>  <Rbt.Parameter_File>
/home/edward/anaconda3/envs/MD/share/rdock-2013.1-1/data/scripts/dock.prm

>  <Rbt.Receptor>
parameters.prm

>  <SCORE>
-19.0425

>  <SCORE.INTER>
-17.2282

>  <SCORE.INTER.CONST>
1

>  <SCORE.INTER.POLAR>
-3.75527

>  <SCORE.INTER.REPUL>
0.00350394

>  <SCORE.INTER.ROT>
2

>  <SCORE.INTER.VDW>
-11.8778

>  <SCORE.INTER.norm>
-1.14855

>  <SCORE.INTRA>
-0.890758

>  <SCORE.INTRA.DIHEDRAL>
-2.3085

>  <SCORE.INTRA.DIHEDRAL.0>
6.12338

>  <SCORE.INTRA.POLAR>
0

>  <SCORE.INTRA.POLAR.0>
0

>  <SCORE.INTRA.REPUL>
0

>  <SCORE.INTRA.REPUL.0>
0

>  <SCORE.INTRA.VDW>
0.263493

>  <SCORE.INTRA.VDW.0>
-1.64364

>  <SCORE.INTRA.norm>
-0.0593839

>  <SCORE.RESTR>
0

>  <SCORE.RESTR.CAVITY>
0

>  <SCORE.RESTR.norm>
0

>  <SCORE.SYSTEM>
-0.923563

>  <SCORE.SYSTEM.CONST>
0

>  <SCORE.SYSTEM.DIHEDRAL>
0.10827

>  <SCORE.SYSTEM.REPUL>
0.051477

>  <SCORE.SYSTEM.VDW>
-1.23508

>  <SCORE.SYSTEM.norm>
-0.0615708

>  <SCORE.heavy>
15

>  <SCORE.norm>
-1.2695

>  <SMILES>
C/C(O)=N/[C@H]1[C@H](O)O[C@H](CO)[C@H](O)[C@@H]1O

>  <UniqueID>
132

$$$$
440271
  rDOCK(R)          3D
libRbt.so/2013.1/901 2013/11/27
 23 23  0  0  0  0  0  0  0  0999 V2000
   32.1355    4.8640  -59.8099 C   0  0  0  0  0  0
   33.5863    4.7348  -60.1415 C   0  0  0  0  0  0
   34.4496    5.2346  -59.3705 O   0  0  0  0  0  0
   33.9880    4.0451  -61.3334 N   0  0  0  0  0  0
   35.4001    3.8971  -61.7128 C   0  0  0  0  0  0
   36.1185    2.8790  -60.7704 C   0  0  0  0  0  0
   37.3095    3.4563  -60.3068 O   0  0  0  0  0  0
   36.4331    1.6523  -61.4182 O   0  0  0  0  0  0
   35.3016    1.1497  -62.1030 C   0  0  0  0  0  0
   35.5124   -0.3426  -62.3906 C   0  0  0  0  0  0
   36.7146   -0.5216  -63.1016 O   0  0  0  0  0  0
   37.5386   -1.8416  -62.4332 S   0  0  0  0  0  0
   38.9860   -1.4753  -62.2682 O   0  0  0  0  0  0
   37.4372   -3.0326  -63.3450 O   0  0  0  0  0  0
   36.9015   -2.2262  -60.9259 O   0  5  0  0  0  0
   35.0429    1.9936  -63.3837 C   0  0  0  0  0  0
   35.6766    1.4254  -64.5040 O   0  0  0  0  0  0
   35.5238    3.4560  -63.1901 C   0  0  0  0  0  0
   36.8655    3.5714  -63.5976 O   0  0  0  0  0  0
   33.2369    3.6924  -61.9690 H   0  0  0  0  0  0
   37.8490    2.7192  -59.9176 H   0  0  0  0  0  0
   35.1776    0.5960  -64.7253 H   0  0  0  0  0  0
   37.1040    4.5335  -63.5387 H   0  0  0  0  0  0
  1  2  1  0  0  0
  2  3  2  0  0  0
  2  4  1  0  0  0
  4  5  1  0  0  0
  4 20  1  0  0  0
  5  6  1  0  0  0
  6  7  1  0  0  0
  6  8  1  0  0  0
  7 21  1  0  0  0
  8  9  1  0  0  0
  9 10  1  0  0  0
  9 16  1  0  0  0
 10 11  1  0  0  0
 11 12  1  0  0  0
 12 13  2  0  0  0
 12 14  2  0  0  0
 12 15  1  0  0  0
 16 17  1  0  0  0
 16 18  1  0  0  0
 17 22  1  0  0  0
 18 19  1  0  0  0
 18  5  1  0  0  0
 19 23  1  0  0  0
M  END
>  <CHROM.0>
-179.63281578,-57.60076164,-58.84272522

>  <CHROM.1>
71.89601637,-165.42297091,-55.62478932,136.19285483,-134.94432680,71.02011701
-63.01957588,36.00310793,1.45846544,-61.95156100,-3.07160433,1.12020685,-1.35500368

>  <Energy>
36.88942674154005

>  <Genealogy>
CC(=O)N[C@H]1[C@H](O)O[C@H](COS(=O)(=O)[O-])[C@H](O)[C@@H]1O (protonated)
CC(=O)N[C@H]1[C@H](O)O[C@H](COS(=O)(=O)[O-])[C@H](O)[C@@H]1O (3D coordinates assigned)
CC(=O)N[C@H]1[C@H](O)O[C@H](COS(=O)(=O)[O-])[C@H](O)[C@@H]1O (nonaromatic ring conformer: 36.88942674154005 kcal/mol)

>  <Name>
440271

>  <RI>
2.59779e+07

>  <Rbt.Current_Directory>
/home/edward/Documentos/Virtual_Screening/rDock/N-terminal/2

>  <Rbt.Executable>
rbdock ($Id: //depot/dev/client3/rdock/2013.1/src/exe/rbdock.cxx#4 $)

>  <Rbt.Library>
libRbt.so (2013.1, Build901 2013/11/27)

>  <Rbt.Parameter_File>
/home/edward/anaconda3/envs/MD/share/rdock-2013.1-1/data/scripts/dock.prm

>  <Rbt.Receptor>
parameters.prm

>  <SCORE>
-22.6525

>  <SCORE.INTER>
-25.4766

>  <SCORE.INTER.CONST>
1

>  <SCORE.INTER.POLAR>
-4.32309

>  <SCORE.INTER.REPUL>
0.0127658

>  <SCORE.INTER.ROT>
4

>  <SCORE.INTER.VDW>
-20.2419

>  <SCORE.INTER.norm>
-1.34087

>  <SCORE.INTRA>
3.75396

>  <SCORE.INTRA.DIHEDRAL>
5.89644

>  <SCORE.INTRA.DIHEDRAL.0>
4.14501

>  <SCORE.INTRA.POLAR>
0

>  <SCORE.INTRA.POLAR.0>
0

>  <SCORE.INTRA.REPUL>
0.00261515

>  <SCORE.INTRA.REPUL.0>
0

>  <SCORE.INTRA.VDW>
0.792666

>  <SCORE.INTRA.VDW.0>
-1.90375

>  <SCORE.INTRA.norm>
0.197577

>  <SCORE.RESTR>
0

>  <SCORE.RESTR.CAVITY>
0

>  <SCORE.RESTR.norm>
0

>  <SCORE.SYSTEM>
-0.929919

>  <SCORE.SYSTEM.CONST>
0

>  <SCORE.SYSTEM.DIHEDRAL>
0.0356415

>  <SCORE.SYSTEM.REPUL>
0.0389761

>  <SCORE.SYSTEM.VDW>
-1.14262

>  <SCORE.SYSTEM.norm>
-0.0489431

>  <SCORE.heavy>
19

>  <SCORE.norm>
-1.19224

>  <SMILES>
CC(=O)N[C@H]1[C@H](O)O[C@H](COS(=O)(=O)[O-])[C@H](O)[C@@H]1O

>  <UniqueID>
134

$$$$
440235
  rDOCK(R)          3D
libRbt.so/2013.1/901 2013/11/27
 23 23  0  0  0  0  0  0  0  0999 V2000
   34.7736    5.1902  -61.5666 H   0  0  0  0  0  0
   34.6472    4.2135  -61.8031 O   0  0  0  0  0  0
   35.5026    3.2328  -61.3014 C   0  0  0  0  0  0
   35.4363    2.0102  -61.7373 N   0  0  0  0  0  0
   34.4976    1.5468  -62.7627 C   0  0  0  0  0  0
   35.2908    0.8396  -63.8916 C   0  0  0  0  0  0
   35.6350    1.7609  -64.8932 O   0  0  0  0  0  0
   34.7876    2.1292  -65.2573 H   0  0  0  0  0  0
   34.5284   -0.2134  -64.4559 O   0  0  0  0  0  0
   34.4413   -1.3007  -63.5454 C   0  0  0  0  0  0
   33.5352   -2.3769  -64.1571 C   0  0  0  0  0  0
   34.1475   -2.9259  -65.2997 O   0  0  0  0  0  0
   33.1057   -4.0865  -65.9587 S   0  0  0  0  0  0
   32.9322   -5.2007  -64.9663 O   0  0  0  0  0  0
   33.6923   -4.6461  -67.2247 O   0  0  0  0  0  0
   31.6011   -3.4100  -66.2828 O   0  5  0  0  0  0
   33.9403   -0.8627  -62.1299 C   0  0  0  0  0  0
   34.9953   -0.9903  -61.2091 O   0  0  0  0  0  0
   34.6329   -0.7515  -60.3159 H   0  0  0  0  0  0
   33.4378    0.5958  -62.1439 C   0  0  0  0  0  0
   32.2467    0.6611  -62.8871 O   0  0  0  0  0  0
   32.0059    1.6214  -62.9632 H   0  0  0  0  0  0
   36.4856    3.5802  -60.2305 C   0  0  0  0  0  0
  1  2  1  0  0  0
  2  3  1  0  0  0
  3  4  2  0  0  0
  3 23  1  0  0  0
  4  5  1  0  0  0
  5  6  1  0  0  0
  6  7  1  0  0  0
  6  9  1  0  0  0
  7  8  1  0  0  0
  9 10  1  0  0  0
 10 11  1  0  0  0
 10 17  1  0  0  0
 11 12  1  0  0  0
 12 13  1  0  0  0
 13 14  2  0  0  0
 13 15  2  0  0  0
 13 16  1  0  0  0
 17 18  1  0  0  0
 17 20  1  0  0  0
 18 19  1  0  0  0
 20 21  1  0  0  0
 20  5  1  0  0  0
 21 22  1  0  0  0
M  END
>  <CHROM.0>
-175.79030137,-59.79900507,-179.08179560

>  <CHROM.1>
-171.46894081,126.40898588,-60.53965387,66.43463355,-178.99762370,-63.63195935
-177.08011061,-51.84549881,34.12086225,-0.65488002,-63.71584133,-0.62507762
-1.24770737,-1.66735423

>  <Energy>
36.12599634027815

>  <Genealogy>
CC(=O)N[C@H]1[C@H](O)O[C@H](COS(=O)(=O)[O-])[C@@H](O)[C@@H]1O (protonated)
CC(O)=N[C@H]1[C@H](O)O[C@H](COS(=O)(=O)[O-])[C@@H](O)[C@@H]1O (tautomer)
C/C(O)=N/[C@H]1[C@H](O)O[C@H](COS(=O)(=O)[O-])[C@@H](O)[C@@H]1O (cis-trans isomerization)
C/C(O)=N/[C@H]1[C@H](O)O[C@H](COS(=O)(=O)[O-])[C@@H](O)[C@@H]1O (3D coordinates assigned)
C/C(O)=N/[C@H]1[C@H](O)O[C@H](COS(=O)(=O)[O-])[C@@H](O)[C@@H]1O (nonaromatic ring conformer: 36.12599634027815 kcal/mol)

>  <Name>
440235

>  <RI>
2.59779e+07

>  <Rbt.Current_Directory>
/home/edward/Documentos/Virtual_Screening/rDock/N-terminal/2

>  <Rbt.Executable>
rbdock ($Id: //depot/dev/client3/rdock/2013.1/src/exe/rbdock.cxx#4 $)

>  <Rbt.Library>
libRbt.so (2013.1, Build901 2013/11/27)

>  <Rbt.Parameter_File>
/home/edward/anaconda3/envs/MD/share/rdock-2013.1-1/data/scripts/dock.prm

>  <Rbt.Receptor>
parameters.prm

>  <SCORE>
-23.7988

>  <SCORE.INTER>
-17.5157

>  <SCORE.INTER.CONST>
1

>  <SCORE.INTER.POLAR>
-3.87645

>  <SCORE.INTER.REPUL>
0.068754

>  <SCORE.INTER.ROT>
4

>  <SCORE.INTER.VDW>
-14.0795

>  <SCORE.INTER.norm>
-0.92188

>  <SCORE.INTRA>
-5.24605

>  <SCORE.INTRA.DIHEDRAL>
-4.06961

>  <SCORE.INTRA.DIHEDRAL.0>
5.35137

>  <SCORE.INTRA.POLAR>
0

>  <SCORE.INTRA.POLAR.0>
0

>  <SCORE.INTRA.REPUL>
-0.786791

>  <SCORE.INTRA.REPUL.0>
0.786791

>  <SCORE.INTRA.VDW>
0.722708

>  <SCORE.INTRA.VDW.0>
-2.03895

>  <SCORE.INTRA.norm>
-0.276108

>  <SCORE.RESTR>
0

>  <SCORE.RESTR.CAVITY>
0

>  <SCORE.RESTR.norm>
0

>  <SCORE.SYSTEM>
-1.037

>  <SCORE.SYSTEM.CONST>
0

>  <SCORE.SYSTEM.DIHEDRAL>
0.091458

>  <SCORE.SYSTEM.REPUL>
0.0283844

>  <SCORE.SYSTEM.VDW>
-1.22465

>  <SCORE.SYSTEM.norm>
-0.0545789

>  <SCORE.heavy>
19

>  <SCORE.norm>
-1.25257

>  <SMILES>
C/C(O)=N/[C@H]1[C@H](O)O[C@H](COS(=O)(=O)[O-])[C@@H](O)[C@@H]1O

>  <UniqueID>
136

$$$$
440049
  rDOCK(R)          3D
libRbt.so/2013.1/901 2013/11/27
 18 18  0  0  0  0  0  0  0  0999 V2000
   32.9322    0.4726  -63.3851 N   0  0  0  0  0  0
   34.3604    0.1460  -63.2839 C   0  0  0  0  0  0
   34.8071    0.1441  -61.8102 C   0  0  0  0  0  0
   33.9577   -0.6917  -61.0714 O   0  0  0  0  0  0
   34.7516    1.4553  -61.2742 O   0  0  0  0  0  0
   35.7122    2.2905  -61.9007 C   0  0  0  0  0  0
   35.7614    3.6298  -61.1475 C   0  0  0  0  0  0
   34.4798    4.1843  -61.0097 O   0  0  0  0  0  0
   35.3714    2.4885  -63.4001 C   0  0  0  0  0  0
   36.3862    3.2279  -64.0328 O   0  0  0  0  0  0
   35.2526    1.1202  -64.0941 C   0  0  0  0  0  0
   34.7550    1.2943  -65.3960 O   0  0  0  0  0  0
   32.7996    1.4956  -63.2152 H   0  0  0  0  0  0
   32.3866   -0.0469  -62.6614 H   0  0  0  0  0  0
   34.2295   -0.5983  -60.1212 H   0  0  0  0  0  0
   34.3603    4.8198  -61.7628 H   0  0  0  0  0  0
   36.3480    4.1508  -63.6687 H   0  0  0  0  0  0
   35.3979    1.8836  -65.8708 H   0  0  0  0  0  0
  1  2  1  0  0  0
  1 13  1  0  0  0
  1 14  1  0  0  0
  2  3  1  0  0  0
  3  4  1  0  0  0
  3  5  1  0  0  0
  4 15  1  0  0  0
  5  6  1  0  0  0
  6  7  1  0  0  0
  6  9  1  0  0  0
  7  8  1  0  0  0
  8 16  1  0  0  0
  9 10  1  0  0  0
  9 11  1  0  0  0
 10 17  1  0  0  0
 11 12  1  0  0  0
 11  2  1  0  0  0
 12 18  1  0  0  0
M  END
>  <CHROM.0>
-177.25802289,-60.36204239,-179.22175467

>  <CHROM.1>
74.77373156,-174.98957858,-51.92822395,-94.98016824,-68.47009599,-176.83801589
34.84955935,1.68232657,-62.64613579,-2.62892244,1.12543230,1.24324039

>  <Energy>
22.89310404860826

>  <Genealogy>
N[C@@H]1[C@H](O)O[C@H](CO)[C@@H](O)[C@@H]1O (chirality)
N[C@@H]1[C@H](O)O[C@H](CO)[C@@H](O)[C@@H]1O (3D coordinates assigned)
N[C@@H]1[C@H](O)O[C@H](CO)[C@@H](O)[C@@H]1O (nonaromatic ring conformer: 22.89310404860826 kcal/mol)

>  <Name>
440049

>  <RI>
2.59779e+07

>  <Rbt.Current_Directory>
/home/edward/Documentos/Virtual_Screening/rDock/N-terminal/2

>  <Rbt.Executable>
rbdock ($Id: //depot/dev/client3/rdock/2013.1/src/exe/rbdock.cxx#4 $)

>  <Rbt.Library>
libRbt.so (2013.1, Build901 2013/11/27)

>  <Rbt.Parameter_File>
/home/edward/anaconda3/envs/MD/share/rdock-2013.1-1/data/scripts/dock.prm

>  <Rbt.Receptor>
parameters.prm

>  <SCORE>
-27.1513

>  <SCORE.INTER>
-25.9627

>  <SCORE.INTER.CONST>
1

>  <SCORE.INTER.POLAR>
-6.1377

>  <SCORE.INTER.REPUL>
0

>  <SCORE.INTER.ROT>
2

>  <SCORE.INTER.VDW>
-12.4945

>  <SCORE.INTER.norm>
-2.16355

>  <SCORE.INTRA>
-0.143507

>  <SCORE.INTRA.DIHEDRAL>
-0.890035

>  <SCORE.INTRA.DIHEDRAL.0>
6.60361

>  <SCORE.INTRA.POLAR>
-0.0465148

>  <SCORE.INTRA.POLAR.0>
0

>  <SCORE.INTRA.REPUL>
0

>  <SCORE.INTRA.REPUL.0>
0

>  <SCORE.INTRA.VDW>
0.459661

>  <SCORE.INTRA.VDW.0>
-1.0926

>  <SCORE.INTRA.norm>
-0.0119589

>  <SCORE.RESTR>
0

>  <SCORE.RESTR.CAVITY>
0

>  <SCORE.RESTR.norm>
0

>  <SCORE.SYSTEM>
-1.04518

>  <SCORE.SYSTEM.CONST>
0

>  <SCORE.SYSTEM.DIHEDRAL>
0.0406736

>  <SCORE.SYSTEM.REPUL>
0.0324672

>  <SCORE.SYSTEM.VDW>
-1.22785

>  <SCORE.SYSTEM.norm>
-0.087098

>  <SCORE.heavy>
12

>  <SCORE.norm>
-2.26261

>  <SMILES>
N[C@@H]1[C@H](O)O[C@H](CO)[C@@H](O)[C@@H]1O

>  <UniqueID>
137

$$$$
439281
  rDOCK(R)          3D
libRbt.so/2013.1/901 2013/11/27
 20 20  0  0  0  0  0  0  0  0999 V2000
   30.6379    0.3207  -62.8757 C   0  0  0  0  0  0
   32.0249   -0.2323  -62.9167 C   0  0  0  0  0  0
   32.1966   -1.4813  -62.9243 O   0  0  0  0  0  0
   33.1473    0.6590  -62.9789 N   0  0  0  0  0  0
   34.5325    0.1861  -63.1033 C   0  0  0  0  0  0
   35.1753    0.0731  -61.7030 C   0  0  0  0  0  0
   36.4075   -0.6046  -61.7587 O   0  0  0  0  0  0
   35.3331    1.3488  -61.1013 O   0  0  0  0  0  0
   36.1972    2.1864  -61.8560 C   0  0  0  0  0  0
   36.4175    3.4841  -61.0674 C   0  0  0  0  0  0
   37.1274    3.2253  -59.8870 O   0  0  0  0  0  0
   35.6134    2.4681  -63.2630 C   0  0  0  0  0  0
   36.5222    3.2301  -64.0182 O   0  0  0  0  0  0
   35.3567    1.1371  -63.9898 C   0  0  0  0  0  0
   34.6805    1.3645  -65.2003 O   0  0  0  0  0  0
   32.9563    1.6853  -63.0373 H   0  0  0  0  0  0
   36.2218   -1.5119  -62.1165 H   0  0  0  0  0  0
   38.0112    2.8730  -60.1688 H   0  0  0  0  0  0
   36.4991    4.1554  -63.6593 H   0  0  0  0  0  0
   35.2656    1.9442  -65.7545 H   0  0  0  0  0  0
  1  2  1  0  0  0
  2  3  2  0  0  0
  2  4  1  0  0  0
  4  5  1  0  0  0
  4 16  1  0  0  0
  5  6  1  0  0  0
  6  7  1  0  0  0
  6  8  1  0  0  0
  7 17  1  0  0  0
  8  9  1  0  0  0
  9 10  1  0  0  0
  9 12  1  0  0  0
 10 11  1  0  0  0
 11 18  1  0  0  0
 12 13  1  0  0  0
 12 14  1  0  0  0
 13 19  1  0  0  0
 14 15  1  0  0  0
 14  5  1  0  0  0
 15 20  1  0  0  0
M  END
>  <CHROM.0>
71.55477502,-59.67018073,61.47384632

>  <CHROM.1>
-94.14372545,-60.17486270,66.30446066,62.52866529,-73.72398044,-177.33117386
34.80691779,1.18190716,-62.57314459,3.06848343,-0.65400904,-1.21522088

>  <Energy>
25.845425354706432

>  <Genealogy>
CC(=O)N[C@@H]1[C@@H](O)O[C@H](CO)[C@@H](O)[C@@H]1O (chirality)
CC(=O)N[C@@H]1[C@@H](O)O[C@H](CO)[C@@H](O)[C@@H]1O (3D coordinates assigned)
CC(=O)N[C@@H]1[C@@H](O)O[C@H](CO)[C@@H](O)[C@@H]1O (nonaromatic ring conformer: 25.845425354706432 kcal/mol)

>  <Name>
439281

>  <RI>
2.59779e+07

>  <Rbt.Current_Directory>
/home/edward/Documentos/Virtual_Screening/rDock/N-terminal/2

>  <Rbt.Executable>
rbdock ($Id: //depot/dev/client3/rdock/2013.1/src/exe/rbdock.cxx#4 $)

>  <Rbt.Library>
libRbt.so (2013.1, Build901 2013/11/27)

>  <Rbt.Parameter_File>
/home/edward/anaconda3/envs/MD/share/rdock-2013.1-1/data/scripts/dock.prm

>  <Rbt.Receptor>
parameters.prm

>  <SCORE>
-26.5901

>  <SCORE.INTER>
-24.3854

>  <SCORE.INTER.CONST>
1

>  <SCORE.INTER.POLAR>
-4.80235

>  <SCORE.INTER.REPUL>
0.00554907

>  <SCORE.INTER.ROT>
2

>  <SCORE.INTER.VDW>
-15.4852

>  <SCORE.INTER.norm>
-1.6257

>  <SCORE.INTRA>
-2.11387

>  <SCORE.INTRA.DIHEDRAL>
-5.54327

>  <SCORE.INTRA.DIHEDRAL.0>
8.13518

>  <SCORE.INTRA.POLAR>
-3.9494e-05

>  <SCORE.INTRA.POLAR.0>
0

>  <SCORE.INTRA.REPUL>
0

>  <SCORE.INTRA.REPUL.0>
0

>  <SCORE.INTRA.VDW>
0.657903

>  <SCORE.INTRA.VDW.0>
-1.91818

>  <SCORE.INTRA.norm>
-0.140924

>  <SCORE.RESTR>
0

>  <SCORE.RESTR.CAVITY>
0

>  <SCORE.RESTR.norm>
0

>  <SCORE.SYSTEM>
-0.0907689

>  <SCORE.SYSTEM.CONST>
0

>  <SCORE.SYSTEM.DIHEDRAL>
0.650257

>  <SCORE.SYSTEM.POLAR>
-0.021133

>  <SCORE.SYSTEM.REPUL>
0.00410256

>  <SCORE.SYSTEM.VDW>
-0.364558

>  <SCORE.SYSTEM.norm>
-0.00605126

>  <SCORE.heavy>
15

>  <SCORE.norm>
-1.77267

>  <SMILES>
CC(=O)N[C@@H]1[C@@H](O)O[C@H](CO)[C@@H](O)[C@@H]1O

>  <UniqueID>
140

$$$$
439213
  rDOCK(R)          3D
libRbt.so/2013.1/901 2013/11/27
 19 19  0  0  0  0  0  0  0  0999 V2000
   33.9367   -0.8431  -63.7046 N   0  3  0  0  0  0
   34.2189    0.4830  -63.1364 C   0  0  0  0  0  0
   34.7816    0.3575  -61.7019 C   0  0  0  0  0  0
   33.8293   -0.2707  -60.8871 O   0  0  0  0  0  0
   35.0566    1.6413  -61.1685 O   0  0  0  0  0  0
   36.1044    2.2682  -61.8884 C   0  0  0  0  0  0
   36.4840    3.5625  -61.1594 C   0  0  0  0  0  0
   37.1386    3.2531  -59.9599 O   0  0  0  0  0  0
   35.6512    2.5612  -63.3378 C   0  0  0  0  0  0
   36.7067    3.1332  -64.0698 O   0  0  0  0  0  0
   35.2226    1.2512  -64.0224 C   0  0  0  0  0  0
   34.6270    1.5373  -65.2623 O   0  0  0  0  0  0
   33.4940   -1.4644  -62.9885 H   0  0  0  0  0  0
   34.8229   -1.2851  -64.0406 H   0  0  0  0  0  0
   33.2943   -0.7530  -64.5245 H   0  0  0  0  0  0
   34.2202   -0.3072  -59.9753 H   0  0  0  0  0  0
   38.0165    2.8680  -60.2164 H   0  0  0  0  0  0
   36.7914    4.0771  -63.7740 H   0  0  0  0  0  0
   35.3384    1.9111  -65.8453 H   0  0  0  0  0  0
  1  2  1  0  0  0
  1 13  1  0  0  0
  1 14  1  0  0  0
  1 15  1  0  0  0
  2  3  1  0  0  0
  3  4  1  0  0  0
  3  5  1  0  0  0
  4 16  1  0  0  0
  5  6  1  0  0  0
  6  7  1  0  0  0
  6  9  1  0  0  0
  7  8  1  0  0  0
  8 17  1  0  0  0
  9 10  1  0  0  0
  9 11  1  0  0  0
 10 18  1  0  0  0
 11 12  1  0  0  0
 11  2  1  0  0  0
 12 19  1  0  0  0
M  END
>  <CHROM.0>
-176.35355910,-179.11603632,59.84765989

>  <CHROM.1>
41.58167319,-178.45808684,70.86165484,68.95503586,-75.38821085,-172.04506241
35.31845541,1.56539716,-62.52323895,2.66294555,-0.92845098,-1.45783701

>  <Energy>
21.746164718352674

>  <Genealogy>
[NH3+][C@H]1C(O)O[C@H](CO)[C@@H](O)[C@@H]1O (protonated)
[NH3+][C@H]1[C@H](O)O[C@H](CO)[C@@H](O)[C@@H]1O (chirality)
[NH3+][C@H]1[C@H](O)O[C@H](CO)[C@@H](O)[C@@H]1O (3D coordinates assigned)
[NH3+][C@H]1[C@H](O)O[C@H](CO)[C@@H](O)[C@@H]1O (nonaromatic ring conformer: 21.746164718352674 kcal/mol)

>  <Name>
439213

>  <RI>
2.59779e+07

>  <Rbt.Current_Directory>
/home/edward/Documentos/Virtual_Screening/rDock/N-terminal/2

>  <Rbt.Executable>
rbdock ($Id: //depot/dev/client3/rdock/2013.1/src/exe/rbdock.cxx#4 $)

>  <Rbt.Library>
libRbt.so (2013.1, Build901 2013/11/27)

>  <Rbt.Parameter_File>
/home/edward/anaconda3/envs/MD/share/rdock-2013.1-1/data/scripts/dock.prm

>  <Rbt.Receptor>
parameters.prm

>  <SCORE>
-31.1023

>  <SCORE.INTER>
-28.9858

>  <SCORE.INTER.CONST>
1

>  <SCORE.INTER.POLAR>
-6.29102

>  <SCORE.INTER.REPUL>
0

>  <SCORE.INTER.ROT>
1

>  <SCORE.INTER.VDW>
-13.9963

>  <SCORE.INTER.norm>
-2.41548

>  <SCORE.INTRA>
-1.58657

>  <SCORE.INTRA.DIHEDRAL>
-3.88009

>  <SCORE.INTRA.DIHEDRAL.0>
6.89091

>  <SCORE.INTRA.POLAR>
-0.0127247

>  <SCORE.INTRA.POLAR.0>
0

>  <SCORE.INTRA.REPUL>
0

>  <SCORE.INTRA.REPUL.0>
0

>  <SCORE.INTRA.VDW>
0.396737

>  <SCORE.INTRA.VDW.0>
-0.999984

>  <SCORE.INTRA.norm>
-0.132214

>  <SCORE.RESTR>
0

>  <SCORE.RESTR.CAVITY>
0

>  <SCORE.RESTR.norm>
0

>  <SCORE.SYSTEM>
-0.52992

>  <SCORE.SYSTEM.CONST>
0

>  <SCORE.SYSTEM.DIHEDRAL>
0.0693865

>  <SCORE.SYSTEM.REPUL>
0.0873508

>  <SCORE.SYSTEM.VDW>
-1.00137

>  <SCORE.SYSTEM.norm>
-0.04416

>  <SCORE.heavy>
12

>  <SCORE.norm>
-2.59186

>  <SMILES>
[NH3+][C@H]1[C@H](O)O[C@H](CO)[C@@H](O)[C@@H]1O

>  <UniqueID>
141

$$$$
439174
  rDOCK(R)          3D
libRbt.so/2013.1/901 2013/11/27
 20 20  0  0  0  0  0  0  0  0999 V2000
   34.0177   -3.3937  -64.4136 H   0  0  0  0  0  0
   33.1092   -2.9541  -64.5037 O   0  0  0  0  0  0
   32.9128   -1.6262  -64.1351 C   0  0  0  0  0  0
   33.9215   -0.9425  -63.6717 N   0  0  0  0  0  0
   33.9179    0.4632  -63.2505 C   0  0  0  0  0  0
   34.0798    0.5359  -61.7217 C   0  0  0  0  0  0
   35.2098   -0.1863  -61.2968 O   0  0  0  0  0  0
   35.1715   -0.2064  -60.3052 H   0  0  0  0  0  0
   34.1310    1.8831  -61.2765 O   0  0  0  0  0  0
   35.2542    2.5716  -61.8070 C   0  0  0  0  0  0
   35.2792    3.9767  -61.1805 C   0  0  0  0  0  0
   34.0703    4.6542  -61.3962 O   0  0  0  0  0  0
   34.2425    5.6127  -61.2027 H   0  0  0  0  0  0
   35.1723    2.6455  -63.3515 C   0  0  0  0  0  0
   36.3231    3.2723  -63.8589 O   0  0  0  0  0  0
   36.2954    4.2178  -63.5575 H   0  0  0  0  0  0
   35.0633    1.2255  -63.9365 C   0  0  0  0  0  0
   34.8187    1.2955  -65.3176 O   0  0  0  0  0  0
   35.4932    1.9146  -65.7014 H   0  0  0  0  0  0
   31.5338   -1.0485  -64.2646 C   0  0  0  0  0  0
  1  2  1  0  0  0
  2  3  1  0  0  0
  3  4  2  0  0  0
  3 20  1  0  0  0
  4  5  1  0  0  0
  5  6  1  0  0  0
  6  7  1  0  0  0
  6  9  1  0  0  0
  7  8  1  0  0  0
  9 10  1  0  0  0
 10 11  1  0  0  0
 10 14  1  0  0  0
 11 12  1  0  0  0
 12 13  1  0  0  0
 14 15  1  0  0  0
 14 17  1  0  0  0
 15 16  1  0  0  0
 17 18  1  0  0  0
 17  5  1  0  0  0
 18 19  1  0  0  0
M  END
>  <CHROM.0>
-73.06605178,-58.77616568,63.41666293

>  <CHROM.1>
0.24663728,110.21567270,-171.80461380,-55.64706990,-164.39730029,-66.78304957
170.97380096,34.34340032,1.08407291,-62.99533465,-2.38844503,1.09121949,1.15059478

>  <Energy>
28.510578691744943

>  <Genealogy>
CC(O)=N[C@H]1C(O)O[C@H](CO)[C@@H](O)[C@@H]1O (tautomer)
CC(O)=N[C@H]1[C@@H](O)O[C@H](CO)[C@@H](O)[C@@H]1O (chirality)
C/C(O)=N/[C@H]1[C@@H](O)O[C@H](CO)[C@@H](O)[C@@H]1O (cis-trans isomerization)
C/C(O)=N/[C@H]1[C@@H](O)O[C@H](CO)[C@@H](O)[C@@H]1O (3D coordinates assigned)
C/C(O)=N/[C@H]1[C@@H](O)O[C@H](CO)[C@@H](O)[C@@H]1O (nonaromatic ring conformer: 28.510578691744943 kcal/mol)

>  <Name>
439174

>  <RI>
2.59779e+07

>  <Rbt.Current_Directory>
/home/edward/Documentos/Virtual_Screening/rDock/N-terminal/2

>  <Rbt.Executable>
rbdock ($Id: //depot/dev/client3/rdock/2013.1/src/exe/rbdock.cxx#4 $)

>  <Rbt.Library>
libRbt.so (2013.1, Build901 2013/11/27)

>  <Rbt.Parameter_File>
/home/edward/anaconda3/envs/MD/share/rdock-2013.1-1/data/scripts/dock.prm

>  <Rbt.Receptor>
parameters.prm

>  <SCORE>
-23.3196

>  <SCORE.INTER>
-21.0144

>  <SCORE.INTER.CONST>
1

>  <SCORE.INTER.POLAR>
-4.77123

>  <SCORE.INTER.REPUL>
0.278398

>  <SCORE.INTER.ROT>
2

>  <SCORE.INTER.VDW>
-13.5842

>  <SCORE.INTER.norm>
-1.40096

>  <SCORE.INTRA>
-2.17148

>  <SCORE.INTRA.DIHEDRAL>
-5.41793

>  <SCORE.INTRA.DIHEDRAL.0>
7.79428

>  <SCORE.INTRA.POLAR>
-0.0158113

>  <SCORE.INTRA.POLAR.0>
0

>  <SCORE.INTRA.REPUL>
0

>  <SCORE.INTRA.REPUL.0>
0

>  <SCORE.INTRA.VDW>
0.591246

>  <SCORE.INTRA.VDW.0>
-1.74854

>  <SCORE.INTRA.norm>
-0.144765

>  <SCORE.RESTR>
0

>  <SCORE.RESTR.CAVITY>
0

>  <SCORE.RESTR.norm>
0

>  <SCORE.SYSTEM>
-0.133801

>  <SCORE.SYSTEM.CONST>
0

>  <SCORE.SYSTEM.DIHEDRAL>
0.874969

>  <SCORE.SYSTEM.VDW>
-0.571285

>  <SCORE.SYSTEM.norm>
-0.00892005

>  <SCORE.heavy>
15

>  <SCORE.norm>
-1.55464

>  <SMILES>
C/C(O)=N/[C@H]1[C@@H](O)O[C@H](CO)[C@@H](O)[C@@H]1O

>  <UniqueID>
143

$$$$
433580
  rDOCK(R)          3D
libRbt.so/2013.1/901 2013/11/27
 23 23  0  0  0  0  0  0  0  0999 V2000
   32.8681   10.7320  -52.7489 C   0  0  0  0  0  0
   33.2245   10.5892  -54.2302 C   0  0  0  0  0  0
   34.0512    9.4528  -54.4183 O   0  0  0  0  0  0
   33.6943    8.7220  -55.5821 C   0  0  0  0  0  0
   34.2042    7.2688  -55.4404 C   0  0  0  0  0  0
   33.5004    6.5821  -54.3474 N   0  3  0  0  0  0
   34.0195    6.5098  -56.7813 C   0  0  0  0  0  0
   34.5901    5.2307  -56.6785 O   0  0  0  0  0  0
   34.6757    7.1935  -57.8354 O   0  0  0  0  0  0
   34.0852    8.4638  -58.0515 C   0  0  0  0  0  0
   34.6431    9.0759  -59.3475 C   0  0  0  0  0  0
   36.0457    9.0418  -59.3720 O   0  0  0  0  0  0
   34.3187    9.3801  -56.8307 C   0  0  0  0  0  0
   35.6969    9.5788  -56.6329 O   0  0  0  0  0  0
   33.9772   11.8046  -54.6812 C   0  0  0  0  0  0
   33.4670   12.9492  -54.5558 O   0  0  0  0  0  0
   35.2597   11.6791  -55.2018 O   0  5  0  0  0  0
   33.7877    6.9839  -53.4259 H   0  0  0  0  0  0
   32.4646    6.6821  -54.4559 H   0  0  0  0  0  0
   33.7505    5.5673  -54.3404 H   0  0  0  0  0  0
   34.1058    4.7462  -55.9598 H   0  0  0  0  0  0
   36.3572    9.4292  -58.5127 H   0  0  0  0  0  0
   35.7914   10.2531  -55.9103 H   0  0  0  0  0  0
  1  2  1  0  0  0
  2  3  1  0  0  0
  2 15  1  0  0  0
  3  4  1  0  0  0
  4  5  1  0  0  0
  5  6  1  0  0  0
  5  7  1  0  0  0
  6 18  1  0  0  0
  6 19  1  0  0  0
  6 20  1  0  0  0
  7  8  1  0  0  0
  7  9  1  0  0  0
  8 21  1  0  0  0
  9 10  1  0  0  0
 10 11  1  0  0  0
 10 13  1  0  0  0
 11 12  1  0  0  0
 12 22  1  0  0  0
 13 14  1  0  0  0
 13  4  1  0  0  0
 14 23  1  0  0  0
 15 16  2  0  0  0
 15 17  1  0  0  0
M  END
>  <CHROM.0>
-176.34173365,64.21179089,-178.98539561

>  <CHROM.1>
138.76997255,-57.07124110,-157.72306017,-69.36913037,61.53925099,-50.44229593
-50.47367106,-66.33379757,34.29327319,9.04218016,-56.04262270,2.04879814
1.18202531,0.22090889

>  <Energy>
31.86131399089342

>  <Genealogy>
CC(OC1C([NH3+])C(O)OC(CO)C1O)C(=O)[O-] (protonated)
C[C@H](O[C@@H]1[C@@H]([NH3+])[C@H](O)O[C@H](CO)[C@@H]1O)C(=O)[O-] (chirality)
C[C@H](O[C@@H]1[C@@H]([NH3+])[C@H](O)O[C@H](CO)[C@@H]1O)C(=O)[O-] (3D coordinates assigned)
C[C@H](O[C@@H]1[C@@H]([NH3+])[C@H](O)O[C@H](CO)[C@@H]1O)C(=O)[O-] (nonaromatic ring conformer: 31.86131399089342 kcal/mol)

>  <Name>
433580

>  <RI>
2.59779e+07

>  <Rbt.Current_Directory>
/home/edward/Documentos/Virtual_Screening/rDock/N-terminal/2

>  <Rbt.Executable>
rbdock ($Id: //depot/dev/client3/rdock/2013.1/src/exe/rbdock.cxx#4 $)

>  <Rbt.Library>
libRbt.so (2013.1, Build901 2013/11/27)

>  <Rbt.Parameter_File>
/home/edward/anaconda3/envs/MD/share/rdock-2013.1-1/data/scripts/dock.prm

>  <Rbt.Receptor>
parameters.prm

>  <SCORE>
-22.0912

>  <SCORE.INTER>
-12.8801

>  <SCORE.INTER.CONST>
1

>  <SCORE.INTER.POLAR>
-3.70186

>  <SCORE.INTER.REPUL>
0

>  <SCORE.INTER.ROT>
4

>  <SCORE.INTER.VDW>
-9.69378

>  <SCORE.INTER.norm>
-0.757653

>  <SCORE.INTRA>
-8.98757

>  <SCORE.INTRA.DIHEDRAL>
-7.55836

>  <SCORE.INTRA.DIHEDRAL.0>
17.5497

>  <SCORE.INTRA.POLAR>
-1.94795

>  <SCORE.INTRA.POLAR.0>
0

>  <SCORE.INTRA.REPUL>
0

>  <SCORE.INTRA.REPUL.0>
0

>  <SCORE.INTRA.VDW>
1.41465

>  <SCORE.INTRA.VDW.0>
-2.23983

>  <SCORE.INTRA.norm>
-0.528681

>  <SCORE.RESTR>
0

>  <SCORE.RESTR.CAVITY>
0

>  <SCORE.RESTR.norm>
0

>  <SCORE.SYSTEM>
-0.223483

>  <SCORE.SYSTEM.CONST>
0

>  <SCORE.SYSTEM.DIHEDRAL>
0.158104

>  <SCORE.SYSTEM.REPUL>
0.170032

>  <SCORE.SYSTEM.VDW>
-1.15269

>  <SCORE.SYSTEM.norm>
-0.0131461

>  <SCORE.heavy>
17

>  <SCORE.norm>
-1.29948

>  <SMILES>
C[C@H](O[C@@H]1[C@@H]([NH3+])[C@H](O)O[C@H](CO)[C@@H]1O)C(=O)[O-]

>  <UniqueID>
145

$$$$
408523
  rDOCK(R)          3D
libRbt.so/2013.1/901 2013/11/27
 26 26  0  0  0  0  0  0  0  0999 V2000
   29.7905    2.1467  -61.7996 C   0  0  0  0  0  0
   29.2942    0.8428  -61.2755 C   0  0  0  0  0  0
   29.0816    0.7074  -60.0400 O   0  0  0  0  0  0
   29.1271   -0.2318  -62.1558 O   0  0  0  0  0  0
   29.5572   -0.2185  -63.5179 C   0  0  0  0  0  0
   31.0530   -0.5531  -63.6432 C   0  0  0  0  0  0
   31.8060    0.5241  -63.1179 O   0  0  0  0  0  0
   33.1788    0.4168  -63.4712 C   0  0  0  0  0  0
   33.9058    1.4002  -62.7344 O   0  0  0  0  0  0
   35.1694    1.8614  -63.1167 C   0  0  0  0  0  0
   35.8623    2.8815  -62.2794 C   0  0  0  0  0  0
   35.7459    1.3939  -64.1363 O   0  0  0  0  0  0
   33.7603   -1.0039  -63.1872 C   0  0  0  0  0  0
   35.1041   -0.9344  -62.6061 N   0  0  0  0  0  0
   32.8138   -1.7899  -62.2640 C   0  0  0  0  0  0
   32.7274   -1.1217  -61.0014 O   0  0  0  0  0  0
   31.9015   -1.5441  -59.9543 C   0  0  0  0  0  0
   31.8615   -0.7561  -58.6900 C   0  0  0  0  0  0
   31.2248   -2.6036  -60.0514 O   0  0  0  0  0  0
   31.4192   -1.8878  -62.9232 C   0  0  0  0  0  0
   31.4402   -2.9576  -63.8720 O   0  0  0  0  0  0
   30.2988   -3.4682  -64.5003 C   0  0  0  0  0  0
   30.4403   -4.5681  -65.4962 C   0  0  0  0  0  0
   29.1546   -3.0045  -64.2450 O   0  0  0  0  0  0
   35.3281   -1.8626  -62.1788 H   0  0  0  0  0  0
   35.7889   -0.8065  -63.3868 H   0  0  0  0  0  0
  1  2  1  0  0  0
  2  3  2  0  0  0
  2  4  1  0  0  0
  4  5  1  0  0  0
  5  6  1  0  0  0
  6  7  1  0  0  0
  7  8  1  0  0  0
  8  9  1  0  0  0
  8 13  1  0  0  0
  9 10  1  0  0  0
 10 11  1  0  0  0
 10 12  2  0  0  0
 13 14  1  0  0  0
 13 15  1  0  0  0
 14 25  1  0  0  0
 14 26  1  0  0  0
 15 16  1  0  0  0
 15 20  1  0  0  0
 16 17  1  0  0  0
 17 18  1  0  0  0
 17 19  2  0  0  0
 20 21  1  0  0  0
 20  6  1  0  0  0
 21 22  1  0  0  0
 22 23  1  0  0  0
 22 24  2  0  0  0
M  END
>  <CHROM.0>
-176.15494441,-175.28709400,-177.89891592

>  <CHROM.1>
7.98577966,82.33161451,-69.71463371,-159.48383010,-179.40880280,163.38463417
177.04968612,-178.52011224,-69.37861745,178.73368690,31.90798395,-0.59896011
-62.49130515,2.66022453,-0.42189439,-2.38405420

>  <Energy>
36.67142143097192

>  <Genealogy>
CC(=O)OC[C@H]1O[C@@H](OC(C)=O)[C@@H](N)[C@@H](OC(C)=O)[C@@H]1OC(C)=O (chirality)
CC(=O)OC[C@H]1O[C@@H](OC(C)=O)[C@@H](N)[C@@H](OC(C)=O)[C@@H]1OC(C)=O (3D coordinates assigned)
CC(=O)OC[C@H]1O[C@@H](OC(C)=O)[C@@H](N)[C@@H](OC(C)=O)[C@@H]1OC(C)=O (nonaromatic ring conformer: 36.67142143097192 kcal/mol)

>  <Name>
408523

>  <RI>
2.59779e+07

>  <Rbt.Current_Directory>
/home/edward/Documentos/Virtual_Screening/rDock/N-terminal/2

>  <Rbt.Executable>
rbdock ($Id: //depot/dev/client3/rdock/2013.1/src/exe/rbdock.cxx#4 $)

>  <Rbt.Library>
libRbt.so (2013.1, Build901 2013/11/27)

>  <Rbt.Parameter_File>
/home/edward/anaconda3/envs/MD/share/rdock-2013.1-1/data/scripts/dock.prm

>  <Rbt.Receptor>
parameters.prm

>  <SCORE>
-3.64519

>  <SCORE.INTER>
-5.6221

>  <SCORE.INTER.CONST>
1

>  <SCORE.INTER.POLAR>
-2.6868

>  <SCORE.INTER.REPUL>
0.0171758

>  <SCORE.INTER.ROT>
10

>  <SCORE.INTER.VDW>
-11.9728

>  <SCORE.INTER.norm>
-0.234254

>  <SCORE.INTRA>
2.40761

>  <SCORE.INTRA.DIHEDRAL>
-0.675403

>  <SCORE.INTRA.DIHEDRAL.0>
6.89419

>  <SCORE.INTRA.POLAR>
0

>  <SCORE.INTRA.POLAR.0>
0

>  <SCORE.INTRA.REPUL>
0

>  <SCORE.INTRA.REPUL.0>
0

>  <SCORE.INTRA.VDW>
2.74531

>  <SCORE.INTRA.VDW.0>
-4.52246

>  <SCORE.INTRA.norm>
0.100317

>  <SCORE.RESTR>
0

>  <SCORE.RESTR.CAVITY>
0

>  <SCORE.RESTR.norm>
0

>  <SCORE.SYSTEM>
-0.4307

>  <SCORE.SYSTEM.CONST>
0

>  <SCORE.SYSTEM.DIHEDRAL>
0.203529

>  <SCORE.SYSTEM.REPUL>
0.0794488

>  <SCORE.SYSTEM.VDW>
-0.929709

>  <SCORE.SYSTEM.norm>
-0.0179458

>  <SCORE.heavy>
24

>  <SCORE.norm>
-0.151883

>  <SMILES>
CC(=O)OC[C@H]1O[C@@H](OC(C)=O)[C@@H](N)[C@@H](OC(C)=O)[C@@H]1OC(C)=O

>  <UniqueID>
148

$$$$
312829
  rDOCK(R)          3D
libRbt.so/2013.1/901 2013/11/27
 28 28  0  0  0  0  0  0  0  0999 V2000
   29.7615   -2.0294  -67.6105 C   0  0  0  0  0  0
   30.6707   -2.2782  -66.4519 C   0  0  0  0  0  0
   30.7812   -1.4066  -65.5477 O   0  0  0  0  0  0
   31.3900   -3.5154  -66.3616 N   0  0  0  0  0  0
   32.3715   -3.7783  -65.3004 C   0  0  0  0  0  0
   31.8060   -4.7751  -64.2664 C   0  0  0  0  0  0
   30.5674   -4.2766  -63.7654 O   0  0  0  0  0  0
   29.8473   -4.9106  -62.7483 C   0  0  0  0  0  0
   28.5026   -4.3924  -62.3674 C   0  0  0  0  0  0
   30.3395   -5.8887  -62.1225 O   0  0  0  0  0  0
   31.5924   -6.0453  -64.8610 O   0  0  0  0  0  0
   32.8279   -6.6235  -65.2470 C   0  0  0  0  0  0
   32.5751   -8.0790  -65.6685 C   0  0  0  0  0  0
   31.6924   -8.1505  -66.7878 O   0  0  0  0  0  0
   31.6471   -9.2368  -67.6681 C   0  0  0  0  0  0
   30.7710   -9.1690  -68.8720 C   0  0  0  0  0  0
   32.3595  -10.2586  -67.4725 O   0  0  0  0  0  0
   33.4813   -5.7910  -66.3796 C   0  0  0  0  0  0
   32.6490   -5.7825  -67.5440 O   0  0  0  0  0  0
   32.9721   -5.1344  -68.7412 C   0  0  0  0  0  0
   31.9887   -5.1413  -69.8609 C   0  0  0  0  0  0
   34.0584   -4.5071  -68.8688 O   0  0  0  0  0  0
   33.6821   -4.3415  -65.9026 C   0  0  0  0  0  0
   34.7269   -4.3132  -64.9267 O   0  0  0  0  0  0
   36.0314   -4.7519  -65.1782 C   0  0  0  0  0  0
   36.4092   -5.1685  -66.5585 C   0  0  0  0  0  0
   36.9013   -4.7512  -64.2650 O   0  0  0  0  0  0
   31.1974   -4.2485  -67.0821 H   0  0  0  0  0  0
  1  2  1  0  0  0
  2  3  2  0  0  0
  2  4  1  0  0  0
  4  5  1  0  0  0
  4 28  1  0  0  0
  5  6  1  0  0  0
  6  7  1  0  0  0
  6 11  1  0  0  0
  7  8  1  0  0  0
  8  9  1  0  0  0
  8 10  2  0  0  0
 11 12  1  0  0  0
 12 13  1  0  0  0
 12 18  1  0  0  0
 13 14  1  0  0  0
 14 15  1  0  0  0
 15 16  1  0  0  0
 15 17  2  0  0  0
 18 19  1  0  0  0
 18 23  1  0  0  0
 19 20  1  0  0  0
 20 21  1  0  0  0
 20 22  2  0  0  0
 23 24  1  0  0  0
 23  5  1  0  0  0
 24 25  1  0  0  0
 25 26  1  0  0  0
 25 27  2  0  0  0
M  END
>  <CHROM.0>
-172.58472849,64.58887311,-59.54773813

>  <CHROM.1>
106.61445995,-175.78329140,-174.52067089,61.54654402,156.59727259,-174.96461473
-178.99550206,-176.91398074,-179.64732351,5.37952049,32.30591746,-5.36224702
-65.97679293,-2.06068655,-0.43742837,-2.63695794

>  <Energy>
31.140350117020542

>  <Genealogy>
CC(=O)N[C@H]1[C@@H](OC(C)=O)O[C@@H](COC(C)=O)[C@@H](OC(C)=O)[C@@H]1OC(C)=O (chirality)
CC(=O)N[C@H]1[C@@H](OC(C)=O)O[C@@H](COC(C)=O)[C@@H](OC(C)=O)[C@@H]1OC(C)=O (3D coordinates assigned)
CC(=O)N[C@H]1[C@@H](OC(C)=O)O[C@@H](COC(C)=O)[C@@H](OC(C)=O)[C@@H]1OC(C)=O (nonaromatic ring conformer: 31.140350117020542 kcal/mol)

>  <Name>
312829

>  <RI>
2.59779e+07

>  <Rbt.Current_Directory>
/home/edward/Documentos/Virtual_Screening/rDock/N-terminal/2

>  <Rbt.Executable>
rbdock ($Id: //depot/dev/client3/rdock/2013.1/src/exe/rbdock.cxx#4 $)

>  <Rbt.Library>
libRbt.so (2013.1, Build901 2013/11/27)

>  <Rbt.Parameter_File>
/home/edward/anaconda3/envs/MD/share/rdock-2013.1-1/data/scripts/dock.prm

>  <Rbt.Receptor>
parameters.prm

>  <SCORE>
-7.02392

>  <SCORE.INTER>
-5.50982

>  <SCORE.INTER.CONST>
1

>  <SCORE.INTER.POLAR>
-2.21201

>  <SCORE.INTER.REPUL>
0

>  <SCORE.INTER.ROT>
10

>  <SCORE.INTER.VDW>
-13.389

>  <SCORE.INTER.norm>
-0.204067

>  <SCORE.INTRA>
-1.40369

>  <SCORE.INTRA.DIHEDRAL>
-4.91741

>  <SCORE.INTRA.DIHEDRAL.0>
9.22934

>  <SCORE.INTRA.POLAR>
-0.252287

>  <SCORE.INTRA.POLAR.0>
0

>  <SCORE.INTRA.REPUL>
-0.0106039

>  <SCORE.INTRA.REPUL.0>
0.0114025

>  <SCORE.INTRA.VDW>
1.96581

>  <SCORE.INTRA.VDW.0>
-4.57194

>  <SCORE.INTRA.norm>
-0.0519887

>  <SCORE.RESTR>
0

>  <SCORE.RESTR.CAVITY>
0

>  <SCORE.RESTR.norm>
0

>  <SCORE.SYSTEM>
-0.110407

>  <SCORE.SYSTEM.CONST>
0

>  <SCORE.SYSTEM.DIHEDRAL>
0.372381

>  <SCORE.SYSTEM.REPUL>
0.159434

>  <SCORE.SYSTEM.VDW>
-1.09377

>  <SCORE.SYSTEM.norm>
-0.00408915

>  <SCORE.heavy>
27

>  <SCORE.norm>
-0.260145

>  <SMILES>
CC(=O)N[C@H]1[C@@H](OC(C)=O)O[C@@H](COC(C)=O)[C@@H](OC(C)=O)[C@@H]1OC(C)=O

>  <UniqueID>
149

$$$$
254124
  rDOCK(R)          3D
libRbt.so/2013.1/901 2013/11/27
 20 20  0  0  0  0  0  0  0  0999 V2000
   32.2875    2.5285  -58.9916 C   0  0  0  0  0  0
   32.0636    1.5008  -59.9326 O   0  0  0  0  0  0
   33.2605    1.2095  -60.6300 C   0  0  0  0  0  0
   33.6276    2.3262  -61.4258 O   0  0  0  0  0  0
   34.8857    2.1095  -62.0439 C   0  0  0  0  0  0
   35.3066    3.4052  -62.7526 C   0  0  0  0  0  0
   36.5115    3.2156  -63.4444 O   0  0  0  0  0  0
   34.7939    0.9399  -63.0517 C   0  0  0  0  0  0
   36.0517    0.7069  -63.6325 O   0  0  0  0  0  0
   34.2902   -0.3352  -62.3406 C   0  0  0  0  0  0
   35.2787   -0.8356  -61.4739 O   0  0  0  0  0  0
   33.0174   -0.0241  -61.5282 C   0  0  0  0  0  0
   31.8794    0.2027  -62.4299 N   0  0  0  0  0  0
   30.7925   -0.7263  -62.5421 C   0  0  0  0  0  0
   29.6769   -0.4550  -63.4978 C   0  0  0  0  0  0
   30.7549   -1.7575  -61.8176 O   0  0  0  0  0  0
   36.7421    4.0882  -63.8582 H   0  0  0  0  0  0
   35.9666   -0.1202  -64.1751 H   0  0  0  0  0  0
   34.9490   -1.7053  -61.1265 H   0  0  0  0  0  0
   31.8389    1.0772  -63.0017 H   0  0  0  0  0  0
  1  2  1  0  0  0
  2  3  1  0  0  0
  3  4  1  0  0  0
  4  5  1  0  0  0
  5  6  1  0  0  0
  5  8  1  0  0  0
  6  7  1  0  0  0
  7 17  1  0  0  0
  8  9  1  0  0  0
  8 10  1  0  0  0
  9 18  1  0  0  0
 10 11  1  0  0  0
 10 12  1  0  0  0
 11 19  1  0  0  0
 12 13  1  0  0  0
 12  3  1  0  0  0
 13 14  1  0  0  0
 13 20  1  0  0  0
 14 15  1  0  0  0
 14 16  2  0  0  0
M  END
>  <CHROM.0>
-177.75434854,-61.29949145,178.93174675

>  <CHROM.1>
-66.38452227,-176.61140100,-178.51647059,172.75356511,-173.50977239,-128.50677031
33.45040783,0.89139130,-61.97839594,2.89457773,-0.47360334,-2.39497892

>  <Energy>
28.212309169137836

>  <Genealogy>
CO[C@@H]1O[C@H](CO)[C@@H](O)[C@@H](O)[C@@H]1NC(C)=O (chirality)
CO[C@@H]1O[C@H](CO)[C@@H](O)[C@@H](O)[C@@H]1NC(C)=O (3D coordinates assigned)
CO[C@@H]1O[C@H](CO)[C@@H](O)[C@@H](O)[C@@H]1NC(C)=O (nonaromatic ring conformer: 28.212309169137836 kcal/mol)

>  <Name>
254124

>  <RI>
2.59779e+07

>  <Rbt.Current_Directory>
/home/edward/Documentos/Virtual_Screening/rDock/N-terminal/2

>  <Rbt.Executable>
rbdock ($Id: //depot/dev/client3/rdock/2013.1/src/exe/rbdock.cxx#4 $)

>  <Rbt.Library>
libRbt.so (2013.1, Build901 2013/11/27)

>  <Rbt.Parameter_File>
/home/edward/anaconda3/envs/MD/share/rdock-2013.1-1/data/scripts/dock.prm

>  <Rbt.Receptor>
parameters.prm

>  <SCORE>
-20.4414

>  <SCORE.INTER>
-18.2765

>  <SCORE.INTER.CONST>
1

>  <SCORE.INTER.POLAR>
-4.98393

>  <SCORE.INTER.REPUL>
0.0945747

>  <SCORE.INTER.ROT>
3

>  <SCORE.INTER.VDW>
-10.204

>  <SCORE.INTER.norm>
-1.14228

>  <SCORE.INTRA>
-1.11855

>  <SCORE.INTRA.DIHEDRAL>
-4.6478

>  <SCORE.INTRA.DIHEDRAL.0>
6.59302

>  <SCORE.INTRA.POLAR>
0

>  <SCORE.INTRA.POLAR.0>
0

>  <SCORE.INTRA.REPUL>
0.0319092

>  <SCORE.INTRA.REPUL.0>
0

>  <SCORE.INTRA.VDW>
1.0458

>  <SCORE.INTRA.VDW.0>
-1.41825

>  <SCORE.INTRA.norm>
-0.0699095

>  <SCORE.RESTR>
0

>  <SCORE.RESTR.CAVITY>
0

>  <SCORE.RESTR.norm>
0

>  <SCORE.SYSTEM>
-1.04642

>  <SCORE.SYSTEM.CONST>
0

>  <SCORE.SYSTEM.DIHEDRAL>
0.0388173

>  <SCORE.SYSTEM.REPUL>
0.0338378

>  <SCORE.SYSTEM.VDW>
-1.23502

>  <SCORE.SYSTEM.norm>
-0.0654014

>  <SCORE.heavy>
16

>  <SCORE.norm>
-1.27759

>  <SMILES>
CO[C@@H]1O[C@H](CO)[C@@H](O)[C@@H](O)[C@@H]1NC(C)=O

>  <UniqueID>
151

$$$$
202260
  rDOCK(R)          3D
libRbt.so/2013.1/901 2013/11/27
 27 27  0  0  0  0  0  0  0  0999 V2000
   31.8843   -3.9534  -70.5072 C   0  0  0  0  0  0
   31.8897   -4.9168  -69.3696 C   0  0  0  0  0  0
   32.6085   -5.9512  -69.4299 O   0  0  0  0  0  0
   31.0609   -4.6860  -68.2687 O   0  0  0  0  0  0
   31.0545   -5.5300  -67.1202 C   0  0  0  0  0  0
   32.3156   -5.2968  -66.2793 C   0  0  0  0  0  0
   33.4280   -5.8241  -66.9804 O   0  0  0  0  0  0
   34.5888   -5.8025  -66.1698 C   0  0  0  0  0  0
   35.6308   -6.4619  -66.8924 O   0  0  0  0  0  0
   35.6383   -7.8306  -67.1895 C   0  0  0  0  0  0
   34.4835   -8.6758  -66.7721 C   0  0  0  0  0  0
   36.5850   -8.3487  -67.8417 O   0  0  0  0  0  0
   34.9983   -4.3373  -65.8679 C   0  0  0  0  0  0
   36.2061   -4.2852  -65.0322 N   0  3  0  0  0  0
   33.8221   -3.6043  -65.1799 C   0  0  0  0  0  0
   34.1037   -2.2059  -65.0812 O   0  0  0  0  0  0
   33.5179   -1.3524  -64.1389 C   0  0  0  0  0  0
   33.9004    0.0879  -64.1214 C   0  0  0  0  0  0
   32.7045   -1.7919  -63.2813 O   0  0  0  0  0  0
   32.5280   -3.7948  -65.9906 C   0  0  0  0  0  0
   31.4126   -3.2931  -65.2496 O   0  0  0  0  0  0
   30.9701   -3.8426  -64.0410 C   0  0  0  0  0  0
   29.7887   -3.2468  -63.3556 C   0  0  0  0  0  0
   31.5884   -4.7985  -63.4986 O   0  0  0  0  0  0
   37.0027   -4.7516  -65.5209 H   0  0  0  0  0  0
   36.0383   -4.7527  -64.1115 H   0  0  0  0  0  0
   36.4896   -3.2930  -64.8700 H   0  0  0  0  0  0
  1  2  1  0  0  0
  2  3  2  0  0  0
  2  4  1  0  0  0
  4  5  1  0  0  0
  5  6  1  0  0  0
  6  7  1  0  0  0
  7  8  1  0  0  0
  8  9  1  0  0  0
  8 13  1  0  0  0
  9 10  1  0  0  0
 10 11  1  0  0  0
 10 12  2  0  0  0
 13 14  1  0  0  0
 13 15  1  0  0  0
 14 25  1  0  0  0
 14 26  1  0  0  0
 14 27  1  0  0  0
 15 16  1  0  0  0
 15 20  1  0  0  0
 16 17  1  0  0  0
 17 18  1  0  0  0
 17 19  2  0  0  0
 20 21  1  0  0  0
 20  6  1  0  0  0
 21 22  1  0  0  0
 22 23  1  0  0  0
 22 24  2  0  0  0
M  END
>  <CHROM.0>
-175.07493036,-59.97117801,-60.78715216

>  <CHROM.1>
-177.19369578,73.92184904,-70.79058942,-67.54199780,1.74118334,60.11468479
-156.54278610,179.33726363,55.15312523,-179.54168170,33.21679361,-4.57731628
-66.15096840,1.20248423,0.41787252,-2.30334728

>  <Energy>
31.902340112568133

>  <Genealogy>
CC(=O)OC[C@H]1O[C@@H](OC(C)=O)[C@H]([NH3+])[C@@H](OC(C)=O)[C@@H]1OC(C)=O (protonated)
CC(=O)OC[C@H]1O[C@@H](OC(C)=O)[C@H]([NH3+])[C@@H](OC(C)=O)[C@@H]1OC(C)=O (3D coordinates assigned)
CC(=O)OC[C@H]1O[C@@H](OC(C)=O)[C@H]([NH3+])[C@@H](OC(C)=O)[C@@H]1OC(C)=O (nonaromatic ring conformer: 31.902340112568133 kcal/mol)

>  <Name>
202260

>  <RI>
2.59779e+07

>  <Rbt.Current_Directory>
/home/edward/Documentos/Virtual_Screening/rDock/N-terminal/2

>  <Rbt.Executable>
rbdock ($Id: //depot/dev/client3/rdock/2013.1/src/exe/rbdock.cxx#4 $)

>  <Rbt.Library>
libRbt.so (2013.1, Build901 2013/11/27)

>  <Rbt.Parameter_File>
/home/edward/anaconda3/envs/MD/share/rdock-2013.1-1/data/scripts/dock.prm

>  <Rbt.Receptor>
parameters.prm

>  <SCORE>
-11.7928

>  <SCORE.INTER>
-7.9381

>  <SCORE.INTER.CONST>
1

>  <SCORE.INTER.POLAR>
-2.10053

>  <SCORE.INTER.REPUL>
0.00236381

>  <SCORE.INTER.ROT>
9

>  <SCORE.INTER.VDW>
-15.2081

>  <SCORE.INTER.norm>
-0.330754

>  <SCORE.INTRA>
-2.87305

>  <SCORE.INTRA.DIHEDRAL>
-9.08993

>  <SCORE.INTRA.DIHEDRAL.0>
13.4022

>  <SCORE.INTRA.POLAR>
0

>  <SCORE.INTRA.POLAR.0>
0

>  <SCORE.INTRA.REPUL>
0

>  <SCORE.INTRA.REPUL.0>
0

>  <SCORE.INTRA.VDW>
1.67191

>  <SCORE.INTRA.VDW.0>
-3.81992

>  <SCORE.INTRA.norm>
-0.119711

>  <SCORE.RESTR>
0

>  <SCORE.RESTR.CAVITY>
0

>  <SCORE.RESTR.norm>
0

>  <SCORE.SYSTEM>
-0.981602

>  <SCORE.SYSTEM.CONST>
0

>  <SCORE.SYSTEM.DIHEDRAL>
0.1221

>  <SCORE.SYSTEM.REPUL>
0.026379

>  <SCORE.SYSTEM.VDW>
-1.17455

>  <SCORE.SYSTEM.norm>
-0.0409001

>  <SCORE.heavy>
24

>  <SCORE.norm>
-0.491365

>  <SMILES>
CC(=O)OC[C@H]1O[C@@H](OC(C)=O)[C@H]([NH3+])[C@@H](OC(C)=O)[C@@H]1OC(C)=O

>  <UniqueID>
154

$$$$
198515
  rDOCK(R)          3D
libRbt.so/2013.1/901 2013/11/27
 29 29  0  0  0  0  0  0  0  0999 V2000
   28.9958   -4.7005  -69.5220 C   0  0  0  0  0  0
   28.7358   -3.9594  -68.2551 C   0  0  0  0  0  0
   27.5530   -3.8362  -67.8356 O   0  0  0  0  0  0
   29.8056   -3.3743  -67.5692 O   0  0  0  0  0  0
   29.6649   -2.7000  -66.3188 C   0  0  0  0  0  0
   31.0218   -2.2014  -65.7952 C   0  0  0  0  0  0
   30.8428   -1.7114  -64.4767 O   0  0  0  0  0  0
   32.0162   -1.0622  -64.0169 C   0  0  0  0  0  0
   31.7364   -0.5234  -62.7238 O   0  0  0  0  0  0
   30.7994    0.4878  -62.4795 C   0  0  0  0  0  0
   30.6078    0.9884  -61.0889 C   0  0  0  0  0  0
   30.1318    0.9961  -63.4204 O   0  0  0  0  0  0
   33.1810   -2.0740  -63.9116 C   0  0  0  0  0  0
   34.4127   -1.3957  -63.4971 N   0  0  0  0  0  0
   34.7159   -1.0918  -62.1278 C   0  0  0  0  0  0
   33.8721   -1.3169  -61.2185 O   0  0  0  0  0  0
   36.0229   -0.4590  -61.7746 C   0  0  0  0  0  0
   37.4735   -1.5274  -62.4793 Br  0  0  0  0  0  0
   33.4081   -2.7625  -65.2678 C   0  0  0  0  0  0
   34.3787   -3.7987  -65.1127 O   0  0  0  0  0  0
   35.0707   -4.3753  -66.1828 C   0  0  0  0  0  0
   36.1291   -5.3879  -65.9093 C   0  0  0  0  0  0
   34.7827   -4.0795  -67.3742 O   0  0  0  0  0  0
   32.0789   -3.3277  -65.8046 C   0  0  0  0  0  0
   31.6305   -4.4081  -64.9796 O   0  0  0  0  0  0
   32.1271   -5.7133  -65.0621 C   0  0  0  0  0  0
   31.6546   -6.7363  -64.0873 C   0  0  0  0  0  0
   32.9207   -6.0487  -65.9823 O   0  0  0  0  0  0
   35.1468   -1.2165  -64.2198 H   0  0  0  0  0  0
  1  2  1  0  0  0
  2  3  2  0  0  0
  2  4  1  0  0  0
  4  5  1  0  0  0
  5  6  1  0  0  0
  6  7  1  0  0  0
  7  8  1  0  0  0
  8  9  1  0  0  0
  8 13  1  0  0  0
  9 10  1  0  0  0
 10 11  1  0  0  0
 10 12  2  0  0  0
 13 14  1  0  0  0
 13 19  1  0  0  0
 14 15  1  0  0  0
 14 29  1  0  0  0
 15 16  2  0  0  0
 15 17  1  0  0  0
 17 18  1  0  0  0
 19 20  1  0  0  0
 19 24  1  0  0  0
 20 21  1  0  0  0
 21 22  1  0  0  0
 21 23  2  0  0  0
 24 25  1  0  0  0
 24  6  1  0  0  0
 25 26  1  0  0  0
 26 27  1  0  0  0
 26 28  2  0  0  0
M  END
>  <CHROM.0>
71.66312848,-60.66289814,62.37569474

>  <CHROM.1>
-176.96383071,178.29586962,-171.98732322,-64.65886234,-178.97627325,82.32069628
-54.46523644,-162.42124343,175.99380226,160.62937414,175.71330523,33.04826040
-2.56183698,-64.48074244,-2.49359331,-0.26672217,0.72590409

>  <Energy>
30.668851904107207

>  <Genealogy>
CC(=O)OC[C@H]1O[C@@H](OC(C)=O)[C@H](NC(=O)CBr)[C@@H](OC(C)=O)[C@H]1OC(C)=O (3D coordinates assigned)
CC(=O)OC[C@H]1O[C@@H](OC(C)=O)[C@H](NC(=O)CBr)[C@@H](OC(C)=O)[C@H]1OC(C)=O (nonaromatic ring conformer: 30.668851904107207 kcal/mol)

>  <Name>
198515

>  <RI>
2.59779e+07

>  <Rbt.Current_Directory>
/home/edward/Documentos/Virtual_Screening/rDock/N-terminal/2

>  <Rbt.Executable>
rbdock ($Id: //depot/dev/client3/rdock/2013.1/src/exe/rbdock.cxx#4 $)

>  <Rbt.Library>
libRbt.so (2013.1, Build901 2013/11/27)

>  <Rbt.Parameter_File>
/home/edward/anaconda3/envs/MD/share/rdock-2013.1-1/data/scripts/dock.prm

>  <Rbt.Receptor>
parameters.prm

>  <SCORE>
-9.21359

>  <SCORE.INTER>
-7.58998

>  <SCORE.INTER.CONST>
1

>  <SCORE.INTER.POLAR>
-1.15073

>  <SCORE.INTER.REPUL>
0

>  <SCORE.INTER.ROT>
11

>  <SCORE.INTER.VDW>
-20.0775

>  <SCORE.INTER.norm>
-0.271071

>  <SCORE.INTRA>
-1.52899

>  <SCORE.INTRA.DIHEDRAL>
-6.26675

>  <SCORE.INTRA.DIHEDRAL.0>
13.0096

>  <SCORE.INTRA.POLAR>
0

>  <SCORE.INTRA.POLAR.0>
0

>  <SCORE.INTRA.REPUL>
0

>  <SCORE.INTRA.REPUL.0>
0

>  <SCORE.INTRA.VDW>
1.60439

>  <SCORE.INTRA.VDW.0>
-6.39587

>  <SCORE.INTRA.norm>
-0.0546067

>  <SCORE.RESTR>
0

>  <SCORE.RESTR.CAVITY>
0

>  <SCORE.RESTR.norm>
0

>  <SCORE.SYSTEM>
-0.0946254

>  <SCORE.SYSTEM.CONST>
0

>  <SCORE.SYSTEM.DIHEDRAL>
0.680654

>  <SCORE.SYSTEM.POLAR>
-0.0207653

>  <SCORE.SYSTEM.REPUL>
0.00441974

>  <SCORE.SYSTEM.VDW>
-0.386449

>  <SCORE.SYSTEM.norm>
-0.00337948

>  <SCORE.heavy>
28

>  <SCORE.norm>
-0.329057

>  <SMILES>
CC(=O)OC[C@H]1O[C@@H](OC(C)=O)[C@H](NC(=O)CBr)[C@@H](OC(C)=O)[C@H]1OC(C)=O

>  <UniqueID>
155

$$$$
198514
  rDOCK(R)          3D
libRbt.so/2013.1/901 2013/11/27
 30 30  0  0  0  0  0  0  0  0999 V2000
   36.1224   -0.7636  -63.5195 H   0  0  0  0  0  0
   35.9789   -0.1050  -62.7638 O   0  0  0  0  0  0
   34.7249    0.0626  -62.1792 C   0  0  0  0  0  0
   34.5783    0.9862  -61.2230 C   0  0  0  0  0  0
   36.0534    2.0503  -60.6320 Br  0  0  0  0  0  0
   33.6304   -0.7589  -62.6337 N   0  0  0  0  0  0
   33.8130   -1.3510  -63.4758 H   0  0  0  0  0  0
   32.3074   -0.8484  -61.9924 C   0  0  0  0  0  0
   31.2711   -0.0270  -62.7926 C   0  0  0  0  0  0
   30.0600    0.1462  -62.0557 O   0  0  0  0  0  0
   28.9351    0.8184  -62.5462 C   0  0  0  0  0  0
   28.9389    1.3350  -63.6963 O   0  0  0  0  0  0
   27.7058    0.8981  -61.7076 C   0  0  0  0  0  0
   31.0048   -0.5696  -64.0816 O   0  0  0  0  0  0
   30.6065   -1.9385  -64.0882 C   0  0  0  0  0  0
   29.1044   -2.1392  -63.7770 C   0  0  0  0  0  0
   28.3033   -1.2645  -64.5721 O   0  0  0  0  0  0
   28.2631   -1.2862  -65.9702 C   0  0  0  0  0  0
   28.9237   -2.1344  -66.6265 O   0  0  0  0  0  0
   27.4087   -0.3023  -66.6941 C   0  0  0  0  0  0
   31.5466   -2.8732  -63.2841 C   0  0  0  0  0  0
   32.7622   -3.0447  -64.0189 O   0  0  0  0  0  0
   32.8491   -3.7495  -65.2250 C   0  0  0  0  0  0
   31.8261   -4.2725  -65.7444 O   0  0  0  0  0  0
   34.1658   -3.8702  -65.9124 C   0  0  0  0  0  0
   31.8430   -2.3139  -61.8851 C   0  0  0  0  0  0
   30.6640   -2.4167  -61.0831 O   0  0  0  0  0  0
   29.9684   -3.6108  -60.8672 C   0  0  0  0  0  0
   30.3688   -4.6944  -61.3718 O   0  0  0  0  0  0
   28.7105   -3.5908  -60.0686 C   0  0  0  0  0  0
  1  2  1  0  0  0
  2  3  1  0  0  0
  3  4  2  0  0  0
  3  6  1  0  0  0
  4  5  1  0  0  0
  6  7  1  0  0  0
  6  8  1  0  0  0
  8  9  1  0  0  0
  9 10  1  0  0  0
  9 14  1  0  0  0
 10 11  1  0  0  0
 11 12  2  0  0  0
 11 13  1  0  0  0
 14 15  1  0  0  0
 15 16  1  0  0  0
 15 21  1  0  0  0
 16 17  1  0  0  0
 17 18  1  0  0  0
 18 19  2  0  0  0
 18 20  1  0  0  0
 21 22  1  0  0  0
 21 26  1  0  0  0
 22 23  1  0  0  0
 23 24  2  0  0  0
 23 25  1  0  0  0
 26 27  1  0  0  0
 26  8  1  0  0  0
 27 28  1  0  0  0
 28 29  2  0  0  0
 28 30  1  0  0  0
M  END
>  <CHROM.0>
-173.44279608,-174.86908718,-58.31165528

>  <CHROM.1>
-177.21001592,102.81221952,-178.26915490,-0.80176604,48.60865947,61.39980770
2.22425074,-68.84842987,0.69664922,176.31414066,0.92323923,31.83280621,-0.93768947
-62.86221126,-0.60885086,0.12364735,-2.56157030

>  <Energy>
39.732460937053254

>  <Genealogy>
CC(=O)OC[C@H]1O[C@@H](OC(C)=O)[C@H](NC(O)=CBr)[C@@H](OC(C)=O)[C@@H]1OC(C)=O (tautomer)
CC(=O)OC[C@H]1O[C@@H](OC(C)=O)[C@H](N/C(O)=C/Br)[C@@H](OC(C)=O)[C@@H]1OC(C)=O (cis-trans isomerization)
CC(=O)OC[C@H]1O[C@@H](OC(C)=O)[C@H](N/C(O)=C/Br)[C@@H](OC(C)=O)[C@@H]1OC(C)=O (3D coordinates assigned)
CC(=O)OC[C@H]1O[C@@H](OC(C)=O)[C@H](N/C(O)=C/Br)[C@@H](OC(C)=O)[C@@H]1OC(C)=O (nonaromatic ring conformer: 39.732460937053254 kcal/mol)

>  <Name>
198514

>  <RI>
2.59779e+07

>  <Rbt.Current_Directory>
/home/edward/Documentos/Virtual_Screening/rDock/N-terminal/2

>  <Rbt.Executable>
rbdock ($Id: //depot/dev/client3/rdock/2013.1/src/exe/rbdock.cxx#4 $)

>  <Rbt.Library>
libRbt.so (2013.1, Build901 2013/11/27)

>  <Rbt.Parameter_File>
/home/edward/anaconda3/envs/MD/share/rdock-2013.1-1/data/scripts/dock.prm

>  <Rbt.Receptor>
parameters.prm

>  <SCORE>
-7.39362

>  <SCORE.INTER>
-4.54459

>  <SCORE.INTER.CONST>
1

>  <SCORE.INTER.POLAR>
-1.3894

>  <SCORE.INTER.REPUL>
0.0479404

>  <SCORE.INTER.ROT>
10

>  <SCORE.INTER.VDW>
-15.4603

>  <SCORE.INTER.norm>
-0.162307

>  <SCORE.INTRA>
-2.52497

>  <SCORE.INTRA.DIHEDRAL>
-5.33415

>  <SCORE.INTRA.DIHEDRAL.0>
9.23949

>  <SCORE.INTRA.POLAR>
-0.519177

>  <SCORE.INTRA.POLAR.0>
0

>  <SCORE.INTRA.REPUL>
0.0854454

>  <SCORE.INTRA.REPUL.0>
0.0597564

>  <SCORE.INTRA.VDW>
1.48008

>  <SCORE.INTRA.VDW.0>
-6.9506

>  <SCORE.INTRA.norm>
-0.0901777

>  <SCORE.RESTR>
0

>  <SCORE.RESTR.CAVITY>
0

>  <SCORE.RESTR.norm>
0

>  <SCORE.SYSTEM>
-0.32405

>  <SCORE.SYSTEM.CONST>
0

>  <SCORE.SYSTEM.DIHEDRAL>
0.353298

>  <SCORE.SYSTEM.REPUL>
0.0710237

>  <SCORE.SYSTEM.VDW>
-0.855818

>  <SCORE.SYSTEM.norm>
-0.0115732

>  <SCORE.heavy>
28

>  <SCORE.norm>
-0.264058

>  <SMILES>
CC(=O)OC[C@H]1O[C@@H](OC(C)=O)[C@H](N/C(O)=C/Br)[C@@H](OC(C)=O)[C@@H]1OC(C)=O

>  <UniqueID>
158

$$$$
193108
  rDOCK(R)          3D
libRbt.so/2013.1/901 2013/11/27
 22 22  0  0  0  0  0  0  0  0999 V2000
   31.8711    0.2171  -62.5045 H   0  0  0  0  0  0
   31.7720   -0.5561  -63.1525 O   0  0  0  0  0  0
   32.8730   -1.1958  -63.7239 C   0  0  0  0  0  0
   32.6770   -2.3274  -64.4165 C   0  0  0  0  0  0
   34.0753   -3.3297  -65.2611 Br  0  0  0  0  0  0
   34.1927   -0.6352  -63.5628 N   0  0  0  0  0  0
   35.0103   -1.1132  -64.0016 H   0  0  0  0  0  0
   34.4998    0.5912  -62.8122 C   0  0  0  0  0  0
   34.4898    0.3542  -61.2824 C   0  0  0  0  0  0
   33.2399   -0.1441  -60.8833 O   0  0  0  0  0  0
   33.3215   -0.4126  -59.9306 H   0  0  0  0  0  0
   34.7574    1.5639  -60.5871 O   0  0  0  0  0  0
   36.0634    2.0344  -60.8872 C   0  0  0  0  0  0
   36.4199    3.1945  -59.9429 C   0  0  0  0  0  0
   37.6812    3.7324  -60.2410 O   0  0  0  0  0  0
   38.3474    3.0178  -60.0648 H   0  0  0  0  0  0
   36.1720    2.4416  -62.3785 C   0  0  0  0  0  0
   35.2734    3.4855  -62.6674 O   0  0  0  0  0  0
   35.6115    3.9488  -63.4777 H   0  0  0  0  0  0
   35.8436    1.2153  -63.2526 C   0  0  0  0  0  0
   35.8364    1.5499  -64.6193 O   0  0  0  0  0  0
   35.4765    0.7749  -65.1245 H   0  0  0  0  0  0
  1  2  1  0  0  0
  2  3  1  0  0  0
  3  4  2  0  0  0
  3  6  1  0  0  0
  4  5  1  0  0  0
  6  7  1  0  0  0
  6  8  1  0  0  0
  8  9  1  0  0  0
  9 10  1  0  0  0
  9 12  1  0  0  0
 10 11  1  0  0  0
 12 13  1  0  0  0
 13 14  1  0  0  0
 13 17  1  0  0  0
 14 15  1  0  0  0
 15 16  1  0  0  0
 17 18  1  0  0  0
 17 20  1  0  0  0
 18 19  1  0  0  0
 20 21  1  0  0  0
 20  8  1  0  0  0
 21 22  1  0  0  0
M  END
>  <CHROM.0>
71.23312486,-60.33968895,63.50567536

>  <CHROM.1>
170.47674522,77.08789560,171.41301886,-177.37432557,-64.39774571,157.77012920
-47.25967355,34.60834115,-0.09269938,-63.06393002,1.99401623,-0.62996954
-2.28517860

>  <Energy>
29.99736626791655

>  <Genealogy>
OC[C@H]1O[C@@H](O)[C@H](NC(O)=CBr)[C@@H](O)[C@H]1O (tautomer)
OC[C@H]1O[C@@H](O)[C@H](N/C(O)=C\Br)[C@@H](O)[C@H]1O (cis-trans isomerization)
OC[C@H]1O[C@@H](O)[C@H](N/C(O)=C\Br)[C@@H](O)[C@H]1O (3D coordinates assigned)
OC[C@H]1O[C@@H](O)[C@H](N/C(O)=C\Br)[C@@H](O)[C@H]1O (nonaromatic ring conformer: 29.99736626791655 kcal/mol)

>  <Name>
193108

>  <RI>
2.59779e+07

>  <Rbt.Current_Directory>
/home/edward/Documentos/Virtual_Screening/rDock/N-terminal/2

>  <Rbt.Executable>
rbdock ($Id: //depot/dev/client3/rdock/2013.1/src/exe/rbdock.cxx#4 $)

>  <Rbt.Library>
libRbt.so (2013.1, Build901 2013/11/27)

>  <Rbt.Parameter_File>
/home/edward/anaconda3/envs/MD/share/rdock-2013.1-1/data/scripts/dock.prm

>  <Rbt.Receptor>
parameters.prm

>  <SCORE>
-27.0339

>  <SCORE.INTER>
-24.4184

>  <SCORE.INTER.CONST>
1

>  <SCORE.INTER.POLAR>
-4.51606

>  <SCORE.INTER.REPUL>
0

>  <SCORE.INTER.ROT>
2

>  <SCORE.INTER.VDW>
-16.4638

>  <SCORE.INTER.norm>
-1.52615

>  <SCORE.INTRA>
-2.53183

>  <SCORE.INTRA.DIHEDRAL>
-3.78093

>  <SCORE.INTRA.DIHEDRAL.0>
10.3033

>  <SCORE.INTRA.POLAR>
-0.289285

>  <SCORE.INTRA.POLAR.0>
0

>  <SCORE.INTRA.REPUL>
0

>  <SCORE.INTRA.REPUL.0>
0

>  <SCORE.INTRA.VDW>
0.342205

>  <SCORE.INTRA.VDW.0>
-1.9033

>  <SCORE.INTRA.norm>
-0.158239

>  <SCORE.RESTR>
0

>  <SCORE.RESTR.CAVITY>
0

>  <SCORE.RESTR.norm>
0

>  <SCORE.SYSTEM>
-0.0836304

>  <SCORE.SYSTEM.CONST>
0

>  <SCORE.SYSTEM.DIHEDRAL>
0.66599

>  <SCORE.SYSTEM.POLAR>
-0.0222325

>  <SCORE.SYSTEM.REPUL>
0.00316016

>  <SCORE.SYSTEM.VDW>
-0.356836

>  <SCORE.SYSTEM.norm>
-0.0052269

>  <SCORE.heavy>
16

>  <SCORE.norm>
-1.68962

>  <SMILES>
OC[C@H]1O[C@@H](O)[C@H](N/C(O)=C\Br)[C@@H](O)[C@H]1O

>  <UniqueID>
159

$$$$
129618
  rDOCK(R)          3D
libRbt.so/2013.1/901 2013/11/27
 30 30  0  0  0  0  0  0  0  0999 V2000
   33.0412    1.2514  -63.2810 H   0  0  0  0  0  0
   33.7985    0.6053  -63.4725 O   0  0  0  0  0  0
   34.5042   -0.0381  -62.4547 C   0  0  0  0  0  0
   35.5941   -0.7511  -62.7713 C   0  0  0  0  0  0
   36.5657   -1.6167  -61.5887 Cl  0  0  0  0  0  0
   34.0593    0.0816  -61.0874 N   0  0  0  0  0  0
   34.6472   -0.3138  -60.3204 H   0  0  0  0  0  0
   32.7911    0.6969  -60.6702 C   0  0  0  0  0  0
   32.7505    2.2149  -60.9622 C   0  0  0  0  0  0
   33.8081    2.8614  -60.2516 O   0  0  0  0  0  0
   34.0664    4.2365  -60.3009 C   0  0  0  0  0  0
   33.3724    5.0028  -61.0222 O   0  0  0  0  0  0
   35.1353    4.8113  -59.4359 C   0  0  0  0  0  0
   31.5276    2.7577  -60.4973 O   0  0  0  0  0  0
   30.4272    2.2179  -61.2111 C   0  0  0  0  0  0
   29.1686    2.9903  -60.7943 C   0  0  0  0  0  0
   28.9688    4.1112  -61.6507 O   0  0  0  0  0  0
   28.4852    3.9920  -62.9553 C   0  0  0  0  0  0
   28.3457    2.8587  -63.4902 O   0  0  0  0  0  0
   28.1868    5.2240  -63.7396 C   0  0  0  0  0  0
   30.2844    0.7067  -60.9061 C   0  0  0  0  0  0
   29.1858    0.1698  -61.6470 O   0  0  0  0  0  0
   29.1521    0.0858  -63.0435 C   0  0  0  0  0  0
   30.1289    0.4719  -63.7412 O   0  0  0  0  0  0
   27.9277   -0.4338  -63.7154 C   0  0  0  0  0  0
   31.5833   -0.0185  -61.3022 C   0  0  0  0  0  0
   31.5571   -1.3732  -60.8473 O   0  0  0  0  0  0
   31.4172   -1.7416  -59.5039 C   0  0  0  0  0  0
   31.3622   -0.8701  -58.5943 O   0  0  0  0  0  0
   31.3709   -3.1860  -59.1408 C   0  0  0  0  0  0
  1  2  1  0  0  0
  2  3  1  0  0  0
  3  4  2  0  0  0
  3  6  1  0  0  0
  4  5  1  0  0  0
  6  7  1  0  0  0
  6  8  1  0  0  0
  8  9  1  0  0  0
  9 10  1  0  0  0
  9 14  1  0  0  0
 10 11  1  0  0  0
 11 12  2  0  0  0
 11 13  1  0  0  0
 14 15  1  0  0  0
 15 16  1  0  0  0
 15 21  1  0  0  0
 16 17  1  0  0  0
 17 18  1  0  0  0
 18 19  2  0  0  0
 18 20  1  0  0  0
 21 22  1  0  0  0
 21 26  1  0  0  0
 22 23  1  0  0  0
 23 24  2  0  0  0
 23 25  1  0  0  0
 26 27  1  0  0  0
 26  8  1  0  0  0
 27 28  1  0  0  0
 28 29  2  0  0  0
 28 30  1  0  0  0
M  END
>  <CHROM.0>
-78.14627909,63.07067093,-61.68772170

>  <CHROM.1>
-172.00677432,-66.27618705,179.45388863,-1.52352774,90.30356912,75.17368727
-8.21706540,65.59308897,1.19620877,61.61152702,-3.11071838,31.85093292,1.16360238
-61.46640347,-0.53583312,-0.22695100,-0.01346176

>  <Energy>
34.55793289347701

>  <Genealogy>
CC(=O)OC[C@H]1O[C@@H](OC(C)=O)[C@H](NC(O)=CCl)[C@@H](OC(C)=O)[C@@H]1OC(C)=O (tautomer)
CC(=O)OC[C@H]1O[C@@H](OC(C)=O)[C@H](N/C(O)=C\Cl)[C@@H](OC(C)=O)[C@@H]1OC(C)=O (cis-trans isomerization)
CC(=O)OC[C@H]1O[C@@H](OC(C)=O)[C@H](N/C(O)=C\Cl)[C@@H](OC(C)=O)[C@@H]1OC(C)=O (3D coordinates assigned)
CC(=O)OC[C@H]1O[C@@H](OC(C)=O)[C@H](N/C(O)=C\Cl)[C@@H](OC(C)=O)[C@@H]1OC(C)=O (nonaromatic ring conformer: 34.55793289347701 kcal/mol)

>  <Name>
129618

>  <RI>
2.59779e+07

>  <Rbt.Current_Directory>
/home/edward/Documentos/Virtual_Screening/rDock/N-terminal/2

>  <Rbt.Executable>
rbdock ($Id: //depot/dev/client3/rdock/2013.1/src/exe/rbdock.cxx#4 $)

>  <Rbt.Library>
libRbt.so (2013.1, Build901 2013/11/27)

>  <Rbt.Parameter_File>
/home/edward/anaconda3/envs/MD/share/rdock-2013.1-1/data/scripts/dock.prm

>  <Rbt.Receptor>
parameters.prm

>  <SCORE>
-10.2284

>  <SCORE.INTER>
-8.14717

>  <SCORE.INTER.CONST>
1

>  <SCORE.INTER.POLAR>
-2.28535

>  <SCORE.INTER.REPUL>
0

>  <SCORE.INTER.ROT>
10

>  <SCORE.INTER.VDW>
-15.777

>  <SCORE.INTER.norm>
-0.29097

>  <SCORE.INTRA>
-2.94151

>  <SCORE.INTRA.DIHEDRAL>
-9.09513

>  <SCORE.INTRA.DIHEDRAL.0>
16.316

>  <SCORE.INTRA.POLAR>
0

>  <SCORE.INTRA.POLAR.0>
0

>  <SCORE.INTRA.REPUL>
0

>  <SCORE.INTRA.REPUL.0>
0

>  <SCORE.INTRA.VDW>
1.60606

>  <SCORE.INTRA.VDW.0>
-6.07241

>  <SCORE.INTRA.norm>
-0.105054

>  <SCORE.RESTR>
0

>  <SCORE.RESTR.CAVITY>
0

>  <SCORE.RESTR.norm>
0

>  <SCORE.SYSTEM>
0.860265

>  <SCORE.SYSTEM.CONST>
0

>  <SCORE.SYSTEM.DIHEDRAL>
1.56682

>  <SCORE.SYSTEM.REPUL>
0.140108

>  <SCORE.SYSTEM.VDW>
-0.623686

>  <SCORE.SYSTEM.norm>
0.0307238

>  <SCORE.heavy>
28

>  <SCORE.norm>
-0.3653

>  <SMILES>
CC(=O)OC[C@H]1O[C@@H](OC(C)=O)[C@H](N/C(O)=C\Cl)[C@@H](OC(C)=O)[C@@H]1OC(C)=O

>  <UniqueID>
162

$$$$
127132
  rDOCK(R)          3D
libRbt.so/2013.1/901 2013/11/27
 28 28  0  0  0  0  0  0  0  0999 V2000
   30.4586   -0.8472  -68.5804 H   0  0  0  0  0  0
   29.6254   -1.2822  -68.2028 O   0  0  0  0  0  0
   29.5924   -1.7993  -66.9102 C   0  0  0  0  0  0
   30.6639   -1.6959  -66.1768 N   0  0  0  0  0  0
   30.8443   -2.1825  -64.8024 C   0  0  0  0  0  0
   30.9202   -0.9781  -63.8424 C   0  0  0  0  0  0
   29.7527   -0.1686  -63.9857 O   0  0  0  0  0  0
   29.5133    0.9873  -63.2336 C   0  0  0  0  0  0
   30.3299    1.3655  -62.3503 O   0  0  0  0  0  0
   28.3043    1.8106  -63.5202 C   0  0  0  0  0  0
   32.0509   -0.1816  -64.1462 O   0  0  0  0  0  0
   33.2500   -0.8904  -63.8796 C   0  0  0  0  0  0
   34.4227    0.0840  -64.0483 C   0  0  0  0  0  0
   34.3009    1.1665  -63.1307 O   0  0  0  0  0  0
   35.2065    2.2295  -63.0900 C   0  0  0  0  0  0
   36.1856    2.2733  -63.8834 O   0  0  0  0  0  0
   35.0402    3.2958  -62.0619 C   0  0  0  0  0  0
   33.3761   -2.1050  -64.8341 C   0  0  0  0  0  0
   34.5458   -2.8642  -64.5178 O   0  0  0  0  0  0
   35.1300   -3.8019  -65.3781 C   0  0  0  0  0  0
   34.6313   -4.0453  -66.5103 O   0  0  0  0  0  0
   36.3349   -4.5532  -64.9261 C   0  0  0  0  0  0
   32.1381   -3.0106  -64.6864 C   0  0  0  0  0  0
   32.1463   -4.0272  -65.6908 O   0  0  0  0  0  0
   31.3235   -5.1586  -65.6657 C   0  0  0  0  0  0
   31.3663   -6.0125  -66.5924 O   0  0  0  0  0  0
   30.4297   -5.3860  -64.4953 C   0  0  0  0  0  0
   28.3234   -2.4258  -66.3985 C   0  0  0  0  0  0
  1  2  1  0  0  0
  2  3  1  0  0  0
  3  4  2  0  0  0
  3 28  1  0  0  0
  4  5  1  0  0  0
  5  6  1  0  0  0
  6  7  1  0  0  0
  6 11  1  0  0  0
  7  8  1  0  0  0
  8  9  2  0  0  0
  8 10  1  0  0  0
 11 12  1  0  0  0
 12 13  1  0  0  0
 12 18  1  0  0  0
 13 14  1  0  0  0
 14 15  1  0  0  0
 15 16  2  0  0  0
 15 17  1  0  0  0
 18 19  1  0  0  0
 18 23  1  0  0  0
 19 20  1  0  0  0
 20 21  2  0  0  0
 20 22  1  0  0  0
 23 24  1  0  0  0
 23  5  1  0  0  0
 24 25  1  0  0  0
 25 26  2  0  0  0
 25 27  1  0  0  0
M  END
>  <CHROM.0>
73.59226173,61.15639897,-63.82188758

>  <CHROM.1>
0.92553622,-109.73532284,178.85591268,-1.37412351,60.61406408,-177.84642751
0.16644009,-163.02730025,-0.76524304,-71.74621843,179.09285678,32.21879593
-1.44573890,-64.71663307,1.90656859,0.14281834,-2.72911091

>  <Energy>
33.96016182292468

>  <Genealogy>
CC(=O)OC[C@H]1OC(OC(C)=O)[C@@H](N=C(C)O)[C@@H](OC(C)=O)[C@@H]1OC(C)=O (tautomer)
CC(=O)OC[C@H]1O[C@@H](OC(C)=O)[C@@H](N=C(C)O)[C@@H](OC(C)=O)[C@@H]1OC(C)=O (chirality)
CC(=O)OC[C@H]1O[C@@H](OC(C)=O)[C@@H](/N=C(/C)O)[C@@H](OC(C)=O)[C@@H]1OC(C)=O (cis-trans isomerization)
CC(=O)OC[C@H]1O[C@@H](OC(C)=O)[C@@H](/N=C(/C)O)[C@@H](OC(C)=O)[C@@H]1OC(C)=O (3D coordinates assigned)
CC(=O)OC[C@H]1O[C@@H](OC(C)=O)[C@@H](/N=C(/C)O)[C@@H](OC(C)=O)[C@@H]1OC(C)=O (nonaromatic ring conformer: 33.96016182292468 kcal/mol)

>  <Name>
127132

>  <RI>
2.59779e+07

>  <Rbt.Current_Directory>
/home/edward/Documentos/Virtual_Screening/rDock/N-terminal/2

>  <Rbt.Executable>
rbdock ($Id: //depot/dev/client3/rdock/2013.1/src/exe/rbdock.cxx#4 $)

>  <Rbt.Library>
libRbt.so (2013.1, Build901 2013/11/27)

>  <Rbt.Parameter_File>
/home/edward/anaconda3/envs/MD/share/rdock-2013.1-1/data/scripts/dock.prm

>  <Rbt.Receptor>
parameters.prm

>  <SCORE>
-8.5247

>  <SCORE.INTER>
-7.3219

>  <SCORE.INTER.CONST>
1

>  <SCORE.INTER.POLAR>
-1.80868

>  <SCORE.INTER.REPUL>
0.0963079

>  <SCORE.INTER.ROT>
10

>  <SCORE.INTER.VDW>
-17.0539

>  <SCORE.INTER.norm>
-0.271182

>  <SCORE.INTRA>
-2.09667

>  <SCORE.INTRA.DIHEDRAL>
-9.2449

>  <SCORE.INTRA.DIHEDRAL.0>
11.593

>  <SCORE.INTRA.POLAR>
0

>  <SCORE.INTRA.POLAR.0>
0

>  <SCORE.INTRA.REPUL>
0

>  <SCORE.INTRA.REPUL.0>
0

>  <SCORE.INTRA.VDW>
2.52578

>  <SCORE.INTRA.VDW.0>
-5.20849

>  <SCORE.INTRA.norm>
-0.0776544

>  <SCORE.RESTR>
0

>  <SCORE.RESTR.CAVITY>
0

>  <SCORE.RESTR.norm>
0

>  <SCORE.SYSTEM>
0.893874

>  <SCORE.SYSTEM.CONST>
0

>  <SCORE.SYSTEM.DIHEDRAL>
0.952304

>  <SCORE.SYSTEM.POLAR>
-0.0144808

>  <SCORE.SYSTEM.REPUL>
0.150151

>  <SCORE.SYSTEM.VDW>
-0.283798

>  <SCORE.SYSTEM.norm>
0.0331064

>  <SCORE.heavy>
27

>  <SCORE.norm>
-0.315729

>  <SMILES>
CC(=O)OC[C@H]1O[C@@H](OC(C)=O)[C@@H](/N=C(/C)O)[C@@H](OC(C)=O)[C@@H]1OC(C)=O

>  <UniqueID>
164

$$$$
122253
  rDOCK(R)          3D
libRbt.so/2013.1/901 2013/11/27
 26 27  0  0  0  0  0  0  0  0999 V2000
   30.0007    0.5958  -60.0200 H   0  0  0  0  0  0
   30.3265    0.0772  -59.2131 O   0  0  0  0  0  0
   31.6535   -0.3394  -59.1105 C   0  0  0  0  0  0
   32.5018   -0.0891  -60.0623 N   0  0  0  0  0  0
   32.1729    0.6311  -61.2959 C   0  0  0  0  0  0
   33.1088    1.8489  -61.4428 C   0  0  0  0  0  0
   33.0090    2.6502  -60.2771 O   0  0  0  0  0  0
   33.6518    3.8966  -60.4520 C   0  0  0  0  0  0
   33.5582    4.6706  -59.1700 C   0  0  0  0  0  0
   34.5131    4.4708  -58.1592 C   0  0  0  0  0  0
   34.4535    5.2158  -56.9773 C   0  0  0  0  0  0
   33.4489    6.1715  -56.8016 C   0  0  0  0  0  0
   32.5051    6.3873  -57.8098 C   0  0  0  0  0  0
   32.5613    5.6447  -58.9937 C   0  0  0  0  0  0
   34.4594    1.4274  -61.5560 O   0  0  0  0  0  0
   34.7005    0.6491  -62.7218 C   0  0  0  0  0  0
   34.6966    1.5142  -64.0062 C   0  0  0  0  0  0
   35.7736    2.4132  -64.0083 O   0  0  0  0  0  0
   35.6827    2.9670  -64.8273 H   0  0  0  0  0  0
   33.8030   -0.6166  -62.7719 C   0  0  0  0  0  0
   33.9637   -1.2887  -63.9950 O   0  0  0  0  0  0
   34.9402   -1.3442  -64.1667 H   0  0  0  0  0  0
   32.3178   -0.2943  -62.5200 C   0  0  0  0  0  0
   31.7520    0.3074  -63.6565 O   0  0  0  0  0  0
   32.2087    1.1807  -63.7778 H   0  0  0  0  0  0
   32.1019   -1.1046  -57.9077 C   0  0  0  0  0  0
  1  2  1  0  0  0
  2  3  1  0  0  0
  3  4  2  0  0  0
  3 26  1  0  0  0
  4  5  1  0  0  0
  5  6  1  0  0  0
  6  7  1  0  0  0
  6 15  1  0  0  0
  7  8  1  0  0  0
  8  9  1  0  0  0
  9 10  2  0  0  0
 10 11  1  0  0  0
 11 12  2  0  0  0
 12 13  1  0  0  0
 13 14  2  0  0  0
 14  9  1  0  0  0
 15 16  1  0  0  0
 16 17  1  0  0  0
 16 20  1  0  0  0
 17 18  1  0  0  0
 18 19  1  0  0  0
 20 21  1  0  0  0
 20 23  1  0  0  0
 21 22  1  0  0  0
 23 24  1  0  0  0
 23  5  1  0  0  0
 24 25  1  0  0  0
M  END
>  <CHROM.0>
-177.51387801,-173.18710503,177.53501295

>  <CHROM.1>
-1.11364982,123.56386858,-169.29694173,-177.74849441,85.43373322,65.96564630
-176.88277071,46.26177507,57.00920966,33.22820866,1.91062610,-60.70951943
1.55358947,-0.93532654,-2.39401259

>  <Energy>
46.970924657213835

>  <Genealogy>
CC(O)=N[C@H]1[C@@H](OCc2ccccc2)O[C@H](CO)[C@H](O)[C@@H]1O (tautomer)
C/C(O)=N/[C@H]1[C@@H](OCc2ccccc2)O[C@H](CO)[C@H](O)[C@@H]1O (cis-trans isomerization)
C/C(O)=N/[C@H]1[C@@H](OCc2ccccc2)O[C@H](CO)[C@H](O)[C@@H]1O (3D coordinates assigned)
C/C(O)=N/[C@H]1[C@@H](OCc2ccccc2)O[C@H](CO)[C@H](O)[C@@H]1O (nonaromatic ring conformer: 46.970924657213835 kcal/mol)

>  <Name>
122253

>  <RI>
2.59779e+07

>  <Rbt.Current_Directory>
/home/edward/Documentos/Virtual_Screening/rDock/N-terminal/2

>  <Rbt.Executable>
rbdock ($Id: //depot/dev/client3/rdock/2013.1/src/exe/rbdock.cxx#4 $)

>  <Rbt.Library>
libRbt.so (2013.1, Build901 2013/11/27)

>  <Rbt.Parameter_File>
/home/edward/anaconda3/envs/MD/share/rdock-2013.1-1/data/scripts/dock.prm

>  <Rbt.Receptor>
parameters.prm

>  <SCORE>
-20.3635

>  <SCORE.INTER>
-15.9767

>  <SCORE.INTER.CONST>
1

>  <SCORE.INTER.POLAR>
-3.66824

>  <SCORE.INTER.REPUL>
0

>  <SCORE.INTER.ROT>
5

>  <SCORE.INTER.VDW>
-13.9047

>  <SCORE.INTER.norm>
-0.726213

>  <SCORE.INTRA>
-3.9876

>  <SCORE.INTRA.DIHEDRAL>
-10.365

>  <SCORE.INTRA.DIHEDRAL.0>
13.0167

>  <SCORE.INTRA.POLAR>
0

>  <SCORE.INTRA.POLAR.0>
0

>  <SCORE.INTRA.REPUL>
0

>  <SCORE.INTRA.REPUL.0>
0

>  <SCORE.INTRA.VDW>
1.1949

>  <SCORE.INTRA.VDW.0>
-2.45665

>  <SCORE.INTRA.norm>
-0.181255

>  <SCORE.RESTR>
0

>  <SCORE.RESTR.CAVITY>
0

>  <SCORE.RESTR.norm>
0

>  <SCORE.SYSTEM>
-0.399251

>  <SCORE.SYSTEM.CONST>
0

>  <SCORE.SYSTEM.DIHEDRAL>
0.287034

>  <SCORE.SYSTEM.REPUL>
0.0792728

>  <SCORE.SYSTEM.VDW>
-0.939132

>  <SCORE.SYSTEM.norm>
-0.0181478

>  <SCORE.heavy>
22

>  <SCORE.norm>
-0.925616

>  <SMILES>
C/C(O)=N/[C@H]1[C@@H](OCc2ccccc2)O[C@H](CO)[C@H](O)[C@@H]1O

>  <UniqueID>
166

$$$$
118328
  rDOCK(R)          3D
libRbt.so/2013.1/901 2013/11/27
 31 33  0  0  0  0  0  0  0  0999 V2000
   29.6066    2.5102  -60.3555 C   0  0  0  0  0  0
   30.9606    2.0859  -59.8892 C   0  0  0  0  0  0
   31.0884    1.5749  -58.7437 O   0  0  0  0  0  0
   32.0921    2.2175  -60.7624 N   0  0  0  0  0  0
   33.4263    1.7039  -60.4228 C   0  0  0  0  0  0
   33.8173    0.5641  -61.3878 C   0  0  0  0  0  0
   32.7965   -0.4363  -61.4024 O   0  0  0  0  0  0
   32.7082   -1.5122  -62.3013 C   0  0  0  0  0  0
   31.6751   -2.4363  -62.1175 C   0  0  0  0  0  0
   31.5373   -3.5356  -62.9683 C   0  0  0  0  0  0
   32.4382   -3.7276  -64.0328 C   0  0  0  0  0  0
   32.3485   -4.8214  -64.9236 C   0  0  0  0  0  0
   31.2757   -5.8714  -64.7945 C   0  0  0  0  0  0
   33.2903   -4.9257  -65.9565 C   0  0  0  0  0  0
   34.2868   -3.9550  -66.0780 C   0  0  0  0  0  0
   35.1377   -4.0409  -67.0015 O   0  0  0  0  0  0
   34.3452   -2.9394  -65.2247 O   0  0  0  0  0  0
   33.4795   -2.7888  -64.2270 C   0  0  0  0  0  0
   33.6077   -1.6914  -63.3690 C   0  0  0  0  0  0
   33.9499    1.0713  -62.7028 O   0  0  0  0  0  0
   35.0538    1.9574  -62.7940 C   0  0  0  0  0  0
   35.2498    2.3087  -64.2768 C   0  0  0  0  0  0
   36.4657    2.9811  -64.4761 O   0  0  0  0  0  0
   34.7989    3.2247  -61.9405 C   0  0  0  0  0  0
   35.9414    4.0427  -61.9564 O   0  0  0  0  0  0
   34.4808    2.8244  -60.4842 C   0  0  0  0  0  0
   34.0238    3.9384  -59.7596 O   0  0  0  0  0  0
   31.9250    2.5857  -61.7259 H   0  0  0  0  0  0
   36.4204    3.8269  -63.9582 H   0  0  0  0  0  0
   35.7127    4.8707  -61.4588 H   0  0  0  0  0  0
   34.7599    4.6043  -59.7556 H   0  0  0  0  0  0
  1  2  1  0  0  0
  2  3  2  0  0  0
  2  4  1  0  0  0
  4  5  1  0  0  0
  4 28  1  0  0  0
  5  6  1  0  0  0
  6  7  1  0  0  0
  6 20  1  0  0  0
  7  8  1  0  0  0
  8  9  2  0  0  0
  9 10  1  0  0  0
 10 11  2  0  0  0
 11 12  1  0  0  0
 12 13  1  0  0  0
 12 14  2  0  0  0
 14 15  1  0  0  0
 15 16  2  0  0  0
 15 17  1  0  0  0
 17 18  1  0  0  0
 18 19  2  0  0  0
 18 11  1  0  0  0
 19  8  1  0  0  0
 20 21  1  0  0  0
 21 22  1  0  0  0
 21 24  1  0  0  0
 22 23  1  0  0  0
 23 29  1  0  0  0
 24 25  1  0  0  0
 24 26  1  0  0  0
 25 30  1  0  0  0
 26 27  1  0  0  0
 26  5  1  0  0  0
 27 31  1  0  0  0
M  END
>  <CHROM.0>
-176.58797997,-176.33801803,62.50606893

>  <CHROM.1>
114.39119950,169.85441995,176.58387063,-169.14619884,-61.95788274,175.75248756
175.11976905,33.38066591,-0.20805733,-62.72059818,1.50337562,0.66117621,0.57561872

>  <Energy>
52.909840480335816

>  <Genealogy>
CC(=O)N[C@@H]1[C@H](O)[C@@H](O)[C@H](CO)O[C@@H]1Oc1ccc2c(C)cc(=O)oc2c1 (chirality)
CC(=O)N[C@@H]1[C@H](O)[C@@H](O)[C@H](CO)O[C@@H]1Oc1ccc2c(C)cc(=O)oc2c1 (3D coordinates assigned)
CC(=O)N[C@@H]1[C@H](O)[C@@H](O)[C@H](CO)O[C@@H]1Oc1ccc2c(C)cc(=O)oc2c1 (nonaromatic ring conformer: 52.909840480335816 kcal/mol)

>  <Name>
118328

>  <RI>
2.59779e+07

>  <Rbt.Current_Directory>
/home/edward/Documentos/Virtual_Screening/rDock/N-terminal/2

>  <Rbt.Executable>
rbdock ($Id: //depot/dev/client3/rdock/2013.1/src/exe/rbdock.cxx#4 $)

>  <Rbt.Library>
libRbt.so (2013.1, Build901 2013/11/27)

>  <Rbt.Parameter_File>
/home/edward/anaconda3/envs/MD/share/rdock-2013.1-1/data/scripts/dock.prm

>  <Rbt.Receptor>
parameters.prm

>  <SCORE>
-26.5332

>  <SCORE.INTER>
-19.9138

>  <SCORE.INTER.CONST>
1

>  <SCORE.INTER.POLAR>
-3.11642

>  <SCORE.INTER.REPUL>
0.00516235

>  <SCORE.INTER.ROT>
4

>  <SCORE.INTER.VDW>
-18.7438

>  <SCORE.INTER.norm>
-0.737548

>  <SCORE.INTRA>
-6.08203

>  <SCORE.INTRA.DIHEDRAL>
-11.3025

>  <SCORE.INTRA.DIHEDRAL.0>
13.6748

>  <SCORE.INTRA.POLAR>
-0.543044

>  <SCORE.INTRA.POLAR.0>
0

>  <SCORE.INTRA.REPUL>
0

>  <SCORE.INTRA.REPUL.0>
0

>  <SCORE.INTRA.VDW>
1.41558

>  <SCORE.INTRA.VDW.0>
-3.30088

>  <SCORE.INTRA.norm>
-0.22526

>  <SCORE.RESTR>
0

>  <SCORE.RESTR.CAVITY>
0

>  <SCORE.RESTR.norm>
0

>  <SCORE.SYSTEM>
-0.53735

>  <SCORE.SYSTEM.CONST>
0

>  <SCORE.SYSTEM.DIHEDRAL>
0.154219

>  <SCORE.SYSTEM.REPUL>
0.0826526

>  <SCORE.SYSTEM.VDW>
-1.02772

>  <SCORE.SYSTEM.norm>
-0.0199018

>  <SCORE.heavy>
27

>  <SCORE.norm>
-0.982711

>  <SMILES>
CC(=O)N[C@@H]1[C@H](O)[C@@H](O)[C@H](CO)O[C@@H]1Oc1ccc2c(C)cc(=O)oc2c1

>  <UniqueID>
167

$$$$
112106
  rDOCK(R)          3D
libRbt.so/2013.1/901 2013/11/27
 29 31  0  0  0  0  0  0  0  0999 V2000
   32.7431   -2.9942  -64.1072 C   0  0  0  0  0  0
   32.7805   -1.5518  -63.7208 C   0  0  0  0  0  0
   31.7256   -0.9883  -63.3220 O   0  0  0  0  0  0
   34.0195   -0.8303  -63.7723 N   0  0  0  0  0  0
   34.1676    0.5306  -63.2461 C   0  0  0  0  0  0
   34.6491    0.4789  -61.7870 C   0  0  0  0  0  0
   33.6787   -0.2195  -61.0085 O   0  0  0  0  0  0
   32.3134    0.1071  -60.9306 C   0  0  0  0  0  0
   31.8257    1.3611  -61.3500 C   0  0  0  0  0  0
   30.4650    1.6596  -61.2628 C   0  0  0  0  0  0
   29.5678    0.7199  -60.7565 C   0  0  0  0  0  0
   30.0269   -0.5334  -60.3298 C   0  0  0  0  0  0
   29.1266   -1.4805  -59.8168 C   0  0  0  0  0  0
   29.5868   -2.7280  -59.3897 C   0  0  0  0  0  0
   30.9448   -3.0407  -59.4708 C   0  0  0  0  0  0
   31.8530   -2.1088  -59.9798 C   0  0  0  0  0  0
   31.4085   -0.8460  -60.4157 C   0  0  0  0  0  0
   34.7884    1.7938  -61.2791 O   0  0  0  0  0  0
   35.8363    2.4772  -61.9464 C   0  0  0  0  0  0
   36.0533    3.8182  -61.2317 C   0  0  0  0  0  0
   36.5074    3.6090  -59.9228 O   0  0  0  0  0  0
   35.4749    2.6822  -63.4392 C   0  0  0  0  0  0
   36.5450    3.3007  -64.1074 O   0  0  0  0  0  0
   35.1776    1.3189  -64.0958 C   0  0  0  0  0  0
   34.6468    1.5089  -65.3826 O   0  0  0  0  0  0
   34.8810   -1.3502  -64.0566 H   0  0  0  0  0  0
   35.8197    3.0479  -59.4790 H   0  0  0  0  0  0
   36.5899    4.2364  -63.7786 H   0  0  0  0  0  0
   35.3838    1.8520  -65.9522 H   0  0  0  0  0  0
  1  2  1  0  0  0
  2  3  2  0  0  0
  2  4  1  0  0  0
  4  5  1  0  0  0
  4 26  1  0  0  0
  5  6  1  0  0  0
  6  7  1  0  0  0
  6 18  1  0  0  0
  7  8  1  0  0  0
  8  9  2  0  0  0
  9 10  1  0  0  0
 10 11  2  0  0  0
 11 12  1  0  0  0
 12 13  2  0  0  0
 13 14  1  0  0  0
 14 15  2  0  0  0
 15 16  1  0  0  0
 16 17  2  0  0  0
 17  8  1  0  0  0
 17 12  1  0  0  0
 18 19  1  0  0  0
 19 20  1  0  0  0
 19 22  1  0  0  0
 20 21  1  0  0  0
 21 27  1  0  0  0
 22 23  1  0  0  0
 22 24  1  0  0  0
 23 28  1  0  0  0
 24 25  1  0  0  0
 24  5  1  0  0  0
 25 29  1  0  0  0
M  END
>  <CHROM.0>
-173.67724815,-174.29161365,65.11235852

>  <CHROM.1>
92.54191163,-54.89420587,-16.41275204,64.81448199,-57.68920815,-70.26650552
-168.82774298,33.17619665,0.40090507,-61.91657901,-3.07532204,0.73151665
0.96691520

>  <Energy>
46.34817455745138

>  <Genealogy>
CC(=O)N[C@H]1[C@H](Oc2cccc3ccccc23)O[C@H](CO)[C@@H](O)[C@@H]1O (3D coordinates assigned)
CC(=O)N[C@H]1[C@H](Oc2cccc3ccccc23)O[C@H](CO)[C@@H](O)[C@@H]1O (nonaromatic ring conformer: 46.34817455745138 kcal/mol)

>  <Name>
112106

>  <RI>
2.59779e+07

>  <Rbt.Current_Directory>
/home/edward/Documentos/Virtual_Screening/rDock/N-terminal/2

>  <Rbt.Executable>
rbdock ($Id: //depot/dev/client3/rdock/2013.1/src/exe/rbdock.cxx#4 $)

>  <Rbt.Library>
libRbt.so (2013.1, Build901 2013/11/27)

>  <Rbt.Parameter_File>
/home/edward/anaconda3/envs/MD/share/rdock-2013.1-1/data/scripts/dock.prm

>  <Rbt.Receptor>
parameters.prm

>  <SCORE>
-23.978

>  <SCORE.INTER>
-21.008

>  <SCORE.INTER.CONST>
1

>  <SCORE.INTER.POLAR>
-4.16467

>  <SCORE.INTER.REPUL>
0.458262

>  <SCORE.INTER.ROT>
4

>  <SCORE.INTER.VDW>
-18.5394

>  <SCORE.INTER.norm>
-0.840321

>  <SCORE.INTRA>
-2.51413

>  <SCORE.INTRA.DIHEDRAL>
-4.19522

>  <SCORE.INTRA.DIHEDRAL.0>
6.8387

>  <SCORE.INTRA.POLAR>
-0.0207508

>  <SCORE.INTRA.POLAR.0>
0

>  <SCORE.INTRA.REPUL>
0

>  <SCORE.INTRA.REPUL.0>
0

>  <SCORE.INTRA.VDW>
-0.345969

>  <SCORE.INTRA.VDW.0>
-2.64133

>  <SCORE.INTRA.norm>
-0.100565

>  <SCORE.RESTR>
0

>  <SCORE.RESTR.CAVITY>
0

>  <SCORE.RESTR.norm>
0

>  <SCORE.SYSTEM>
-0.455854

>  <SCORE.SYSTEM.CONST>
0

>  <SCORE.SYSTEM.DIHEDRAL>
0.483303

>  <SCORE.SYSTEM.REPUL>
0.0706007

>  <SCORE.SYSTEM.VDW>
-1.05051

>  <SCORE.SYSTEM.norm>
-0.0182342

>  <SCORE.heavy>
25

>  <SCORE.norm>
-0.95912

>  <SMILES>
CC(=O)N[C@H]1[C@H](Oc2cccc3ccccc23)O[C@H](CO)[C@@H](O)[C@@H]1O

>  <UniqueID>
169

$$$$
102416
  rDOCK(R)          3D
libRbt.so/2013.1/901 2013/11/27
 28 29  0  0  0  0  0  0  0  0999 V2000
   31.3869   -1.7310  -59.7252 C   0  0  0  0  0  0
   32.3364   -1.8730  -60.8696 C   0  0  0  0  0  0
   32.2570   -2.8801  -61.6243 O   0  0  0  0  0  0
   33.3461   -0.8777  -61.0889 N   0  0  0  0  0  0
   34.3123   -0.9760  -62.1917 C   0  0  0  0  0  0
   33.7776   -0.2316  -63.4555 C   0  0  0  0  0  0
   33.8108   -1.1308  -64.5641 O   0  0  0  0  0  0
   32.9019   -2.1785  -64.7803 C   0  0  0  0  0  0
   31.5743   -2.1411  -64.3141 C   0  0  0  0  0  0
   30.7105   -3.2131  -64.5574 C   0  0  0  0  0  0
   31.1546   -4.3423  -65.2687 C   0  0  0  0  0  0
   30.2681   -5.4478  -65.5212 N   0  3  0  0  0  0
   29.0880   -5.4240  -65.1139 O   0  0  0  0  0  0
   30.7066   -6.5509  -66.2177 O   0  5  0  0  0  0
   32.4814   -4.3749  -65.7301 C   0  0  0  0  0  0
   33.3436   -3.3022  -65.4861 C   0  0  0  0  0  0
   34.5476    0.9170  -63.7790 O   0  0  0  0  0  0
   34.6852    1.7504  -62.6450 C   0  0  0  0  0  0
   35.1409    3.1408  -63.1110 C   0  0  0  0  0  0
   36.3506    3.0624  -63.8167 O   0  0  0  0  0  0
   35.6966    1.1196  -61.6551 C   0  0  0  0  0  0
   35.3720    1.5195  -60.3478 O   0  0  0  0  0  0
   35.6938   -0.4306  -61.7629 C   0  0  0  0  0  0
   36.6481   -0.8397  -62.7111 O   0  0  0  0  0  0
   33.4177   -0.0972  -60.3983 H   0  0  0  0  0  0
   36.6334    3.9962  -64.0002 H   0  0  0  0  0  0
   36.0847    1.1674  -59.7528 H   0  0  0  0  0  0
   36.6257   -1.8323  -62.7344 H   0  0  0  0  0  0
  1  2  1  0  0  0
  2  3  2  0  0  0
  2  4  1  0  0  0
  4  5  1  0  0  0
  4 25  1  0  0  0
  5  6  1  0  0  0
  6  7  1  0  0  0
  6 17  1  0  0  0
  7  8  1  0  0  0
  8  9  2  0  0  0
  9 10  1  0  0  0
 10 11  2  0  0  0
 11 12  1  0  0  0
 11 15  1  0  0  0
 12 13  2  0  0  0
 12 14  1  0  0  0
 15 16  2  0  0  0
 16  8  1  0  0  0
 17 18  1  0  0  0
 18 19  1  0  0  0
 18 21  1  0  0  0
 19 20  1  0  0  0
 20 26  1  0  0  0
 21 22  1  0  0  0
 21 23  1  0  0  0
 22 27  1  0  0  0
 23 24  1  0  0  0
 23  5  1  0  0  0
 24 28  1  0  0  0
M  END
>  <CHROM.0>
-173.97112508,-58.15470751,-59.74426468

>  <CHROM.1>
91.97352167,75.55052312,28.40980445,-58.16517813,-174.03980432,-174.93777765
-58.68591961,33.28355220,-1.46935128,-63.31553778,0.57568891,0.84503766,1.29104794

>  <Energy>
47.48876030027342

>  <Genealogy>
CC(=O)N[C@H]1[C@H](Oc2ccc([N+](=O)[O-])cc2)O[C@H](CO)[C@@H](O)[C@@H]1O (3D coordinates assigned)
CC(=O)N[C@H]1[C@H](Oc2ccc([N+](=O)[O-])cc2)O[C@H](CO)[C@@H](O)[C@@H]1O (nonaromatic ring conformer: 47.48876030027342 kcal/mol)

>  <Name>
102416

>  <RI>
2.59779e+07

>  <Rbt.Current_Directory>
/home/edward/Documentos/Virtual_Screening/rDock/N-terminal/2

>  <Rbt.Executable>
rbdock ($Id: //depot/dev/client3/rdock/2013.1/src/exe/rbdock.cxx#4 $)

>  <Rbt.Library>
libRbt.so (2013.1, Build901 2013/11/27)

>  <Rbt.Parameter_File>
/home/edward/anaconda3/envs/MD/share/rdock-2013.1-1/data/scripts/dock.prm

>  <Rbt.Receptor>
parameters.prm

>  <SCORE>
-17.6613

>  <SCORE.INTER>
-15.04

>  <SCORE.INTER.CONST>
1

>  <SCORE.INTER.POLAR>
-2.28317

>  <SCORE.INTER.REPUL>
0.0661949

>  <SCORE.INTER.ROT>
4

>  <SCORE.INTER.VDW>
-17.0082

>  <SCORE.INTER.norm>
-0.626666

>  <SCORE.INTRA>
-1.68069

>  <SCORE.INTRA.DIHEDRAL>
-1.89097

>  <SCORE.INTRA.DIHEDRAL.0>
5.80889

>  <SCORE.INTRA.POLAR>
0

>  <SCORE.INTRA.POLAR.0>
0

>  <SCORE.INTRA.REPUL>
0.00100701

>  <SCORE.INTRA.REPUL.0>
0

>  <SCORE.INTRA.VDW>
-0.740236

>  <SCORE.INTRA.VDW.0>
-2.06276

>  <SCORE.INTRA.norm>
-0.0700286

>  <SCORE.RESTR>
0

>  <SCORE.RESTR.CAVITY>
0

>  <SCORE.RESTR.norm>
0

>  <SCORE.SYSTEM>
-0.940633

>  <SCORE.SYSTEM.CONST>
0

>  <SCORE.SYSTEM.DIHEDRAL>
0.194996

>  <SCORE.SYSTEM.REPUL>
0.023266

>  <SCORE.SYSTEM.VDW>
-1.15446

>  <SCORE.SYSTEM.norm>
-0.0391931

>  <SCORE.heavy>
24

>  <SCORE.norm>
-0.735888

>  <SMILES>
CC(=O)N[C@H]1[C@H](Oc2ccc([N+](=O)[O-])cc2)O[C@H](CO)[C@@H](O)[C@@H]1O

>  <UniqueID>
172

$$$$
99461
  rDOCK(R)          3D
libRbt.so/2013.1/901 2013/11/27
 28 28  0  0  0  0  0  0  0  0999 V2000
   31.8400    9.9908  -63.1097 C   0  0  0  0  0  0
   32.5849    9.9290  -61.8166 C   0  0  0  0  0  0
   32.4809   10.8791  -60.9946 O   0  0  0  0  0  0
   33.3703    8.7706  -61.4997 N   0  0  0  0  0  0
   34.0487    8.5911  -60.2122 C   0  0  0  0  0  0
   34.7355    9.9029  -59.7755 C   0  0  0  0  0  0
   35.7421   10.2583  -60.7247 O   0  0  0  0  0  0
   36.3647   11.5115  -60.7741 C   0  0  0  0  0  0
   37.5274   11.7170  -61.6835 C   0  0  0  0  0  0
   35.9824   12.4556  -60.0307 O   0  0  0  0  0  0
   35.3682    9.7173  -58.5227 O   0  0  0  0  0  0
   34.4104    9.4753  -57.5050 C   0  0  0  0  0  0
   35.1367    9.4724  -56.1517 C   0  0  0  0  0  0
   35.8300   10.7032  -55.9489 O   0  0  0  0  0  0
   35.1894   11.9448  -55.8732 C   0  0  0  0  0  0
   36.0016   13.1772  -55.6640 C   0  0  0  0  0  0
   33.9324   12.0286  -55.9305 O   0  0  0  0  0  0
   33.6906    8.1289  -57.7588 C   0  0  0  0  0  0
   32.6814    7.9125  -56.7693 O   0  0  0  0  0  0
   31.5737    8.7478  -56.5834 C   0  0  0  0  0  0
   30.5705    8.4070  -55.5354 C   0  0  0  0  0  0
   31.3922    9.7587  -57.3150 O   0  0  0  0  0  0
   33.0285    8.1556  -59.1483 C   0  0  0  0  0  0
   32.5375    6.8559  -59.4851 O   0  0  0  0  0  0
   33.3410    5.7119  -59.5512 C   0  0  0  0  0  0
   32.7290    4.4085  -59.9353 C   0  0  0  0  0  0
   34.5784    5.7738  -59.3177 O   0  0  0  0  0  0
   33.3901    7.9821  -62.1862 H   0  0  0  0  0  0
  1  2  1  0  0  0
  2  3  2  0  0  0
  2  4  1  0  0  0
  4  5  1  0  0  0
  4 28  1  0  0  0
  5  6  1  0  0  0
  6  7  1  0  0  0
  6 11  1  0  0  0
  7  8  1  0  0  0
  8  9  1  0  0  0
  8 10  2  0  0  0
 11 12  1  0  0  0
 12 13  1  0  0  0
 12 18  1  0  0  0
 13 14  1  0  0  0
 14 15  1  0  0  0
 15 16  1  0  0  0
 15 17  2  0  0  0
 18 19  1  0  0  0
 18 23  1  0  0  0
 19 20  1  0  0  0
 20 21  1  0  0  0
 20 22  2  0  0  0
 23 24  1  0  0  0
 23  5  1  0  0  0
 24 25  1  0  0  0
 25 26  1  0  0  0
 25 27  2  0  0  0
M  END
>  <CHROM.0>
-175.76611316,-59.71208207,63.63510544

>  <CHROM.1>
-43.29256299,166.82278060,171.83484896,56.99515422,62.13603919,-179.77207516
61.82317793,178.81543036,62.60118548,-178.97395481,33.95481578,9.43386328
-58.79507397,-2.58831236,0.95623688,1.32748788

>  <Energy>
32.0085864282444

>  <Genealogy>
CC(=O)N[C@H]1[C@H](OC(C)=O)O[C@H](COC(C)=O)[C@@H](OC(C)=O)[C@@H]1OC(C)=O (3D coordinates assigned)
CC(=O)N[C@H]1[C@H](OC(C)=O)O[C@H](COC(C)=O)[C@@H](OC(C)=O)[C@@H]1OC(C)=O (nonaromatic ring conformer: 32.0085864282444 kcal/mol)

>  <Name>
99461

>  <RI>
2.59779e+07

>  <Rbt.Current_Directory>
/home/edward/Documentos/Virtual_Screening/rDock/N-terminal/2

>  <Rbt.Executable>
rbdock ($Id: //depot/dev/client3/rdock/2013.1/src/exe/rbdock.cxx#4 $)

>  <Rbt.Library>
libRbt.so (2013.1, Build901 2013/11/27)

>  <Rbt.Parameter_File>
/home/edward/anaconda3/envs/MD/share/rdock-2013.1-1/data/scripts/dock.prm

>  <Rbt.Receptor>
parameters.prm

>  <SCORE>
-7.58616

>  <SCORE.INTER>
-2.21031

>  <SCORE.INTER.CONST>
1

>  <SCORE.INTER.POLAR>
-1.50169

>  <SCORE.INTER.REPUL>
0

>  <SCORE.INTER.ROT>
10

>  <SCORE.INTER.VDW>
-12.5046

>  <SCORE.INTER.norm>
-0.0818635

>  <SCORE.INTRA>
-4.26325

>  <SCORE.INTRA.DIHEDRAL>
-11.7644

>  <SCORE.INTRA.DIHEDRAL.0>
14.1526

>  <SCORE.INTRA.POLAR>
0

>  <SCORE.INTRA.POLAR.0>
0

>  <SCORE.INTRA.REPUL>
0

>  <SCORE.INTRA.REPUL.0>
0

>  <SCORE.INTRA.VDW>
1.61896

>  <SCORE.INTRA.VDW.0>
-5.15087

>  <SCORE.INTRA.norm>
-0.157898

>  <SCORE.RESTR>
0

>  <SCORE.RESTR.CAVITY>
0

>  <SCORE.RESTR.norm>
0

>  <SCORE.SYSTEM>
-1.11259

>  <SCORE.SYSTEM.CONST>
0

>  <SCORE.SYSTEM.DIHEDRAL>
0.153519

>  <SCORE.SYSTEM.REPUL>
0.0283168

>  <SCORE.SYSTEM.VDW>
-1.33094

>  <SCORE.SYSTEM.norm>
-0.0412072

>  <SCORE.heavy>
27

>  <SCORE.norm>
-0.280969

>  <SMILES>
CC(=O)N[C@H]1[C@H](OC(C)=O)O[C@H](COC(C)=O)[C@@H](OC(C)=O)[C@@H]1OC(C)=O

>  <UniqueID>
173

$$$$
96523
  rDOCK(R)          3D
libRbt.so/2013.1/901 2013/11/27
 20 20  0  0  0  0  0  0  0  0999 V2000
   31.6821   -1.1104  -65.1271 H   0  0  0  0  0  0
   32.4603   -0.7700  -64.5791 O   0  0  0  0  0  0
   33.5804   -1.5427  -64.2600 C   0  0  0  0  0  0
   34.5707   -1.0792  -63.5518 N   0  0  0  0  0  0
   34.6686    0.2539  -62.9519 C   0  0  0  0  0  0
   35.4361    0.1905  -61.6118 C   0  0  0  0  0  0
   36.6901   -0.4506  -61.7937 O   0  0  0  0  0  0
   36.5348   -1.8509  -61.7210 C   0  0  0  0  0  0
   35.5892    1.4907  -61.0573 O   0  0  0  0  0  0
   36.3544    2.3365  -61.9027 C   0  0  0  0  0  0
   36.5988    3.6646  -61.1702 C   0  0  0  0  0  0
   37.2908    3.4562  -59.9670 O   0  0  0  0  0  0
   38.1517    3.0208  -60.2004 H   0  0  0  0  0  0
   35.6405    2.5550  -63.2561 C   0  0  0  0  0  0
   36.4436    3.3544  -64.0875 O   0  0  0  0  0  0
   36.4267    4.2726  -63.7106 H   0  0  0  0  0  0
   35.3898    1.1941  -63.9292 C   0  0  0  0  0  0
   34.5948    1.3642  -65.0754 O   0  0  0  0  0  0
   35.0716    2.0034  -65.6666 H   0  0  0  0  0  0
   33.6555   -2.9414  -64.7725 C   0  0  0  0  0  0
  1  2  1  0  0  0
  2  3  1  0  0  0
  3  4  2  0  0  0
  3 20  1  0  0  0
  4  5  1  0  0  0
  5  6  1  0  0  0
  6  7  1  0  0  0
  6  9  1  0  0  0
  7  8  1  0  0  0
  9 10  1  0  0  0
 10 11  1  0  0  0
 10 14  1  0  0  0
 11 12  1  0  0  0
 12 13  1  0  0  0
 14 15  1  0  0  0
 14 17  1  0  0  0
 15 16  1  0  0  0
 17 18  1  0  0  0
 17  5  1  0  0  0
 18 19  1  0  0  0
M  END
>  <CHROM.0>
71.72741222,-61.83122826,65.83052547

>  <CHROM.1>
179.98719649,146.27923015,-84.24412833,59.67782738,59.15851796,-71.13704444
177.74689383,35.36165267,0.74004662,-62.85864555,2.59729288,0.97190704,2.77698462

>  <Energy>
31.34483298792023

>  <Genealogy>
CO[C@H]1O[C@H](CO)[C@@H](O)[C@H](O)[C@H]1N=C(C)O (tautomer)
CO[C@H]1O[C@H](CO)[C@@H](O)[C@H](O)[C@H]1/N=C(\C)O (cis-trans isomerization)
CO[C@H]1O[C@H](CO)[C@@H](O)[C@H](O)[C@H]1/N=C(\C)O (3D coordinates assigned)
CO[C@H]1O[C@H](CO)[C@@H](O)[C@H](O)[C@H]1/N=C(\C)O (nonaromatic ring conformer: 31.34483298792023 kcal/mol)

>  <Name>
96523

>  <RI>
2.59779e+07

>  <Rbt.Current_Directory>
/home/edward/Documentos/Virtual_Screening/rDock/N-terminal/2

>  <Rbt.Executable>
rbdock ($Id: //depot/dev/client3/rdock/2013.1/src/exe/rbdock.cxx#4 $)

>  <Rbt.Library>
libRbt.so (2013.1, Build901 2013/11/27)

>  <Rbt.Parameter_File>
/home/edward/anaconda3/envs/MD/share/rdock-2013.1-1/data/scripts/dock.prm

>  <Rbt.Receptor>
parameters.prm

>  <SCORE>
-23.6725

>  <SCORE.INTER>
-21.2041

>  <SCORE.INTER.CONST>
1

>  <SCORE.INTER.POLAR>
-3.84953

>  <SCORE.INTER.REPUL>
0.0184213

>  <SCORE.INTER.ROT>
3

>  <SCORE.INTER.VDW>
-16.6078

>  <SCORE.INTER.norm>
-1.32526

>  <SCORE.INTRA>
-2.41787

>  <SCORE.INTRA.DIHEDRAL>
-8.52989

>  <SCORE.INTRA.DIHEDRAL.0>
12.6867

>  <SCORE.INTRA.POLAR>
-0.00128648

>  <SCORE.INTRA.POLAR.0>
0

>  <SCORE.INTRA.REPUL>
0

>  <SCORE.INTRA.REPUL.0>
0

>  <SCORE.INTRA.VDW>
1.85145

>  <SCORE.INTRA.VDW.0>
-1.78331

>  <SCORE.INTRA.norm>
-0.151117

>  <SCORE.RESTR>
0

>  <SCORE.RESTR.CAVITY>
0

>  <SCORE.RESTR.norm>
0

>  <SCORE.SYSTEM>
-0.0505323

>  <SCORE.SYSTEM.CONST>
0

>  <SCORE.SYSTEM.DIHEDRAL>
0.840631

>  <SCORE.SYSTEM.POLAR>
-0.0205477

>  <SCORE.SYSTEM.REPUL>
0.00460786

>  <SCORE.SYSTEM.VDW>
-0.424025

>  <SCORE.SYSTEM.norm>
-0.00315827

>  <SCORE.heavy>
16

>  <SCORE.norm>
-1.47953

>  <SMILES>
CO[C@H]1O[C@H](CO)[C@@H](O)[C@H](O)[C@H]1/N=C(\C)O

>  <UniqueID>
175

$$$$
90220
  rDOCK(R)          3D
libRbt.so/2013.1/901 2013/11/27
 28 29  0  0  0  0  0  0  0  0999 V2000
   31.8296   -1.6173  -59.0174 C   0  0  0  0  0  0
   31.8425   -0.5750  -60.0873 C   0  0  0  0  0  0
   30.7535   -0.0870  -60.4944 O   0  0  0  0  0  0
   33.0915   -0.1104  -60.6175 N   0  0  0  0  0  0
   33.1659    0.9065  -61.6754 C   0  0  0  0  0  0
   33.6194    2.2653  -61.0975 C   0  0  0  0  0  0
   32.7116    2.6789  -60.0737 O   0  0  0  0  0  0
   32.9401    3.6929  -59.1279 C   0  0  0  0  0  0
   31.8401    4.4303  -58.6773 C   0  0  0  0  0  0
   32.0023    5.4522  -57.7379 C   0  0  0  0  0  0
   33.2753    5.7547  -57.2265 C   0  0  0  0  0  0
   33.4406    6.8080  -56.2595 N   0  3  0  0  0  0
   34.5697    7.0810  -55.8016 O   0  0  0  0  0  0
   32.3556    7.5335  -55.8233 O   0  5  0  0  0  0
   34.3812    5.0104  -57.6743 C   0  0  0  0  0  0
   34.2173    3.9882  -58.6140 C   0  0  0  0  0  0
   34.9069    2.1581  -60.5171 O   0  0  0  0  0  0
   35.9160    1.8154  -61.4585 C   0  0  0  0  0  0
   36.4140    3.0376  -62.2673 C   0  0  0  0  0  0
   35.4324    3.5541  -63.1244 O   0  0  0  0  0  0
   35.5966    0.5268  -62.2700 C   0  0  0  0  0  0
   36.5035    0.3805  -63.3334 O   0  0  0  0  0  0
   34.1420    0.4649  -62.7794 C   0  0  0  0  0  0
   33.9850    1.2705  -63.9190 O   0  0  0  0  0  0
   33.9722   -0.4906  -60.2012 H   0  0  0  0  0  0
   35.8376    4.3217  -63.6063 H   0  0  0  0  0  0
   36.2099   -0.4115  -63.8555 H   0  0  0  0  0  0
   34.2030    2.2005  -63.6481 H   0  0  0  0  0  0
  1  2  1  0  0  0
  2  3  2  0  0  0
  2  4  1  0  0  0
  4  5  1  0  0  0
  4 25  1  0  0  0
  5  6  1  0  0  0
  6  7  1  0  0  0
  6 17  1  0  0  0
  7  8  1  0  0  0
  8  9  2  0  0  0
  9 10  1  0  0  0
 10 11  2  0  0  0
 11 12  1  0  0  0
 11 15  1  0  0  0
 12 13  2  0  0  0
 12 14  1  0  0  0
 15 16  2  0  0  0
 16  8  1  0  0  0
 17 18  1  0  0  0
 18 19  1  0  0  0
 18 21  1  0  0  0
 19 20  1  0  0  0
 20 26  1  0  0  0
 21 22  1  0  0  0
 21 23  1  0  0  0
 22 27  1  0  0  0
 23 24  1  0  0  0
 23  5  1  0  0  0
 24 28  1  0  0  0
M  END
>  <CHROM.0>
71.49204837,-177.61557512,179.51634108

>  <CHROM.1>
105.62777210,165.18798646,148.13790944,-67.30191150,-179.39103491,-175.57803714
61.62083721,33.73853588,2.74926395,-60.05016906,1.39695471,-0.68808348,-2.48760612

>  <Energy>
48.88383513686146

>  <Genealogy>
CC(=O)N[C@H]1[C@@H](Oc2ccc([N+](=O)[O-])cc2)O[C@H](CO)[C@H](O)[C@@H]1O (3D coordinates assigned)
CC(=O)N[C@H]1[C@@H](Oc2ccc([N+](=O)[O-])cc2)O[C@H](CO)[C@H](O)[C@@H]1O (nonaromatic ring conformer: 48.88383513686146 kcal/mol)

>  <Name>
90220

>  <RI>
2.59779e+07

>  <Rbt.Current_Directory>
/home/edward/Documentos/Virtual_Screening/rDock/N-terminal/2

>  <Rbt.Executable>
rbdock ($Id: //depot/dev/client3/rdock/2013.1/src/exe/rbdock.cxx#4 $)

>  <Rbt.Library>
libRbt.so (2013.1, Build901 2013/11/27)

>  <Rbt.Parameter_File>
/home/edward/anaconda3/envs/MD/share/rdock-2013.1-1/data/scripts/dock.prm

>  <Rbt.Receptor>
parameters.prm

>  <SCORE>
-23.3704

>  <SCORE.INTER>
-17.3978

>  <SCORE.INTER.CONST>
1

>  <SCORE.INTER.POLAR>
-3.27807

>  <SCORE.INTER.REPUL>
0

>  <SCORE.INTER.ROT>
4

>  <SCORE.INTER.VDW>
-15.6524

>  <SCORE.INTER.norm>
-0.724909

>  <SCORE.INTRA>
-6.54598

>  <SCORE.INTRA.DIHEDRAL>
-7.54575

>  <SCORE.INTRA.DIHEDRAL.0>
11.9834

>  <SCORE.INTRA.POLAR>
-1

>  <SCORE.INTRA.POLAR.0>
0

>  <SCORE.INTRA.REPUL>
0

>  <SCORE.INTRA.REPUL.0>
0

>  <SCORE.INTRA.VDW>
0.626893

>  <SCORE.INTRA.VDW.0>
-2.67395

>  <SCORE.INTRA.norm>
-0.272749

>  <SCORE.RESTR>
0

>  <SCORE.RESTR.CAVITY>
0

>  <SCORE.RESTR.norm>
0

>  <SCORE.SYSTEM>
0.573438

>  <SCORE.SYSTEM.CONST>
0

>  <SCORE.SYSTEM.DIHEDRAL>
0.661472

>  <SCORE.SYSTEM.POLAR>
-0.0213465

>  <SCORE.SYSTEM.REPUL>
0.0584111

>  <SCORE.SYSTEM.VDW>
0.0232249

>  <SCORE.SYSTEM.norm>
0.0238932

>  <SCORE.heavy>
24

>  <SCORE.norm>
-0.973765

>  <SMILES>
CC(=O)N[C@H]1[C@@H](Oc2ccc([N+](=O)[O-])cc2)O[C@H](CO)[C@H](O)[C@@H]1O

>  <UniqueID>
178

$$$$
84265
  rDOCK(R)          3D
libRbt.so/2013.1/901 2013/11/27
 20 20  0  0  0  0  0  0  0  0999 V2000
   34.9835    4.7227  -56.8658 H   0  0  0  0  0  0
   34.0106    4.7822  -57.1411 O   0  0  0  0  0  0
   33.5585    4.2557  -58.3485 C   0  0  0  0  0  0
   34.4241    3.6803  -59.1334 N   0  0  0  0  0  0
   34.1602    3.0828  -60.4471 C   0  0  0  0  0  0
   35.0442    3.7453  -61.5329 C   0  0  0  0  0  0
   36.4045    3.7384  -61.1672 O   0  0  0  0  0  0
   36.4721    4.1847  -60.2830 H   0  0  0  0  0  0
   34.8659    3.1192  -62.7950 O   0  0  0  0  0  0
   35.2454    1.7511  -62.7602 C   0  0  0  0  0  0
   35.1769    1.1896  -64.1862 C   0  0  0  0  0  0
   36.1163    1.8298  -65.0056 O   0  0  0  0  0  0
   36.0217    1.4204  -65.9046 H   0  0  0  0  0  0
   34.3374    0.9582  -61.7934 C   0  0  0  0  0  0
   33.0056    1.0030  -62.2453 O   0  0  0  0  0  0
   32.8262    1.9378  -62.5270 H   0  0  0  0  0  0
   34.4443    1.5707  -60.3868 C   0  0  0  0  0  0
   33.5313    0.9361  -59.5275 O   0  0  0  0  0  0
   33.8348   -0.0036  -59.4248 H   0  0  0  0  0  0
   32.0955    4.3433  -58.6904 C   0  0  0  0  0  0
  1  2  1  0  0  0
  2  3  1  0  0  0
  3  4  2  0  0  0
  3 20  1  0  0  0
  4  5  1  0  0  0
  5  6  1  0  0  0
  6  7  1  0  0  0
  6  9  1  0  0  0
  7  8  1  0  0  0
  9 10  1  0  0  0
 10 11  1  0  0  0
 10 14  1  0  0  0
 11 12  1  0  0  0
 12 13  1  0  0  0
 14 15  1  0  0  0
 14 17  1  0  0  0
 15 16  1  0  0  0
 17 18  1  0  0  0
 17  5  1  0  0  0
 18 19  1  0  0  0
M  END
>  <CHROM.0>
-177.66413919,-62.02396156,62.49196827

>  <CHROM.1>
-0.26831465,122.47679148,-55.66532252,64.31791847,179.79794682,-43.41612839
-172.18831631,34.44166232,2.65881129,-61.03206278,-1.96836179,-0.80061823
-2.27674233

>  <Energy>
28.288852408511435

>  <Genealogy>
CC(O)=N[C@H]1[C@@H](O)O[C@H](CO)[C@H](O)[C@@H]1O (tautomer)
C/C(O)=N\[C@H]1[C@@H](O)O[C@H](CO)[C@H](O)[C@@H]1O (cis-trans isomerization)
C/C(O)=N\[C@H]1[C@@H](O)O[C@H](CO)[C@H](O)[C@@H]1O (3D coordinates assigned)
C/C(O)=N\[C@H]1[C@@H](O)O[C@H](CO)[C@H](O)[C@@H]1O (nonaromatic ring conformer: 28.288852408511435 kcal/mol)

>  <Name>
84265

>  <RI>
2.59779e+07

>  <Rbt.Current_Directory>
/home/edward/Documentos/Virtual_Screening/rDock/N-terminal/2

>  <Rbt.Executable>
rbdock ($Id: //depot/dev/client3/rdock/2013.1/src/exe/rbdock.cxx#4 $)

>  <Rbt.Library>
libRbt.so (2013.1, Build901 2013/11/27)

>  <Rbt.Parameter_File>
/home/edward/anaconda3/envs/MD/share/rdock-2013.1-1/data/scripts/dock.prm

>  <Rbt.Receptor>
parameters.prm

>  <SCORE>
-22.9589

>  <SCORE.INTER>
-18.8738

>  <SCORE.INTER.CONST>
1

>  <SCORE.INTER.POLAR>
-3.92215

>  <SCORE.INTER.REPUL>
0.154123

>  <SCORE.INTER.ROT>
2

>  <SCORE.INTER.VDW>
-13.7091

>  <SCORE.INTER.norm>
-1.25825

>  <SCORE.INTRA>
-2.95897

>  <SCORE.INTRA.DIHEDRAL>
-5.8383

>  <SCORE.INTRA.DIHEDRAL.0>
7.66106

>  <SCORE.INTRA.POLAR>
-0.0659737

>  <SCORE.INTRA.POLAR.0>
0

>  <SCORE.INTRA.REPUL>
0

>  <SCORE.INTRA.REPUL.0>
0

>  <SCORE.INTRA.VDW>
0.184491

>  <SCORE.INTRA.VDW.0>
-1.46002

>  <SCORE.INTRA.norm>
-0.197264

>  <SCORE.RESTR>
0

>  <SCORE.RESTR.CAVITY>
0

>  <SCORE.RESTR.norm>
0

>  <SCORE.SYSTEM>
-1.12613

>  <SCORE.SYSTEM.CONST>
0

>  <SCORE.SYSTEM.DIHEDRAL>
0.0776893

>  <SCORE.SYSTEM.REPUL>
0.0335891

>  <SCORE.SYSTEM.VDW>
-1.33292

>  <SCORE.SYSTEM.norm>
-0.0750754

>  <SCORE.heavy>
15

>  <SCORE.norm>
-1.53059

>  <SMILES>
C/C(O)=N\[C@H]1[C@@H](O)O[C@H](CO)[C@H](O)[C@@H]1O

>  <UniqueID>
179

$$$$
82398
  rDOCK(R)          3D
libRbt.so/2013.1/901 2013/11/27
 28 29  0  0  0  0  0  0  0  0999 V2000
   36.2076    3.8767  -63.2459 H   0  0  0  0  0  0
   36.2716    2.8831  -63.4206 O   0  0  0  0  0  0
   35.6282    1.9177  -62.6412 C   0  0  0  0  0  0
   34.9465    2.2228  -61.5741 N   0  0  0  0  0  0
   34.7213    3.5660  -61.0357 C   0  0  0  0  0  0
   33.2101    3.9057  -60.9826 C   0  0  0  0  0  0
   32.4751    2.9399  -60.2148 O   0  0  0  0  0  0
   32.3299    1.5741  -60.5074 C   0  0  0  0  0  0
   32.3999    1.0577  -61.8146 C   0  0  0  0  0  0
   32.2605   -0.3149  -62.0400 C   0  0  0  0  0  0
   32.0355   -1.1963  -60.9695 C   0  0  0  0  0  0
   31.8968   -2.6093  -61.2058 N   0  3  0  0  0  0
   31.6931   -3.3966  -60.2583 O   0  0  0  0  0  0
   31.9900   -3.1175  -62.4813 O   0  5  0  0  0  0
   31.9439   -0.6731  -59.6677 C   0  0  0  0  0  0
   32.0849    0.6991  -59.4442 C   0  0  0  0  0  0
   33.0166    5.2051  -60.4454 O   0  0  0  0  0  0
   33.4600    5.2923  -59.0982 C   0  0  0  0  0  0
   33.1270    6.6923  -58.5702 C   0  0  0  0  0  0
   33.5765    6.8172  -57.2493 O   0  0  0  0  0  0
   33.3133    7.7273  -56.9536 H   0  0  0  0  0  0
   34.9828    5.0225  -59.0043 C   0  0  0  0  0  0
   35.4332    5.0849  -57.6728 O   0  0  0  0  0  0
   35.0841    5.9254  -57.2754 H   0  0  0  0  0  0
   35.3214    3.6553  -59.6227 C   0  0  0  0  0  0
   36.7178    3.5112  -59.6807 O   0  0  0  0  0  0
   36.9006    2.6026  -60.0366 H   0  0  0  0  0  0
   35.7442    0.4840  -63.0361 C   0  0  0  0  0  0
  1  2  1  0  0  0
  2  3  1  0  0  0
  3  4  2  0  0  0
  3 28  1  0  0  0
  4  5  1  0  0  0
  5  6  1  0  0  0
  6  7  1  0  0  0
  6 17  1  0  0  0
  7  8  1  0  0  0
  8  9  2  0  0  0
  9 10  1  0  0  0
 10 11  2  0  0  0
 11 12  1  0  0  0
 11 15  1  0  0  0
 12 13  2  0  0  0
 12 14  1  0  0  0
 15 16  2  0  0  0
 16  8  1  0  0  0
 17 18  1  0  0  0
 18 19  1  0  0  0
 18 22  1  0  0  0
 19 20  1  0  0  0
 20 21  1  0  0  0
 22 23  1  0  0  0
 22 25  1  0  0  0
 23 24  1  0  0  0
 25 26  1  0  0  0
 25  5  1  0  0  0
 26 27  1  0  0  0
M  END
>  <CHROM.0>
-79.01287168,-60.23549603,62.55763435

>  <CHROM.1>
-3.81515009,119.91258346,-62.90902374,-26.98938153,-178.86092438,-178.46320388
-49.24345753,-62.76672157,33.68714218,2.19564136,-60.49526416,-1.22856603
-0.66491859,-2.59490659

>  <Energy>
43.69704602924156

>  <Genealogy>
CC(O)=N[C@H]1[C@@H](Oc2ccc([N+](=O)[O-])cc2)O[C@H](CO)[C@@H](O)[C@@H]1O (tautomer)
C/C(O)=N\[C@H]1[C@@H](Oc2ccc([N+](=O)[O-])cc2)O[C@H](CO)[C@@H](O)[C@@H]1O (cis-trans isomerization)
C/C(O)=N\[C@H]1[C@@H](Oc2ccc([N+](=O)[O-])cc2)O[C@H](CO)[C@@H](O)[C@@H]1O (3D coordinates assigned)
C/C(O)=N\[C@H]1[C@@H](Oc2ccc([N+](=O)[O-])cc2)O[C@H](CO)[C@@H](O)[C@@H]1O (nonaromatic ring conformer: 43.69704602924156 kcal/mol)

>  <Name>
82398

>  <RI>
2.59779e+07

>  <Rbt.Current_Directory>
/home/edward/Documentos/Virtual_Screening/rDock/N-terminal/2

>  <Rbt.Executable>
rbdock ($Id: //depot/dev/client3/rdock/2013.1/src/exe/rbdock.cxx#4 $)

>  <Rbt.Library>
libRbt.so (2013.1, Build901 2013/11/27)

>  <Rbt.Parameter_File>
/home/edward/anaconda3/envs/MD/share/rdock-2013.1-1/data/scripts/dock.prm

>  <Rbt.Receptor>
parameters.prm

>  <SCORE>
-18.0742

>  <SCORE.INTER>
-14.5303

>  <SCORE.INTER.CONST>
1

>  <SCORE.INTER.POLAR>
-2.67499

>  <SCORE.INTER.REPUL>
0.0661674

>  <SCORE.INTER.ROT>
4

>  <SCORE.INTER.VDW>
-15.1662

>  <SCORE.INTER.norm>
-0.605429

>  <SCORE.INTRA>
-3.4905

>  <SCORE.INTRA.DIHEDRAL>
-4.85863

>  <SCORE.INTRA.DIHEDRAL.0>
6.60422

>  <SCORE.INTRA.POLAR>
-0.753635

>  <SCORE.INTRA.POLAR.0>
0

>  <SCORE.INTRA.REPUL>
0

>  <SCORE.INTRA.REPUL.0>
0

>  <SCORE.INTRA.VDW>
1.50118

>  <SCORE.INTRA.VDW.0>
-3.34361

>  <SCORE.INTRA.norm>
-0.145437

>  <SCORE.RESTR>
0

>  <SCORE.RESTR.CAVITY>
0

>  <SCORE.RESTR.norm>
0

>  <SCORE.SYSTEM>
-0.0533911

>  <SCORE.SYSTEM.CONST>
0

>  <SCORE.SYSTEM.DIHEDRAL>
1.67384

>  <SCORE.SYSTEM.VDW>
-0.890312

>  <SCORE.SYSTEM.norm>
-0.00222463

>  <SCORE.heavy>
24

>  <SCORE.norm>
-0.753091

>  <SMILES>
C/C(O)=N\[C@H]1[C@@H](Oc2ccc([N+](=O)[O-])cc2)O[C@H](CO)[C@@H](O)[C@@H]1O

>  <UniqueID>
182

$$$$
82313
  rDOCK(R)          3D
libRbt.so/2013.1/901 2013/11/27
 20 20  0  0  0  0  0  0  0  0999 V2000
   32.7891   -2.9776  -63.9735 C   0  0  0  0  0  0
   32.9505   -1.6196  -63.3725 C   0  0  0  0  0  0
   31.9928   -1.1032  -62.7355 O   0  0  0  0  0  0
   34.1756   -0.8967  -63.5575 N   0  0  0  0  0  0
   34.4014    0.4304  -62.9723 C   0  0  0  0  0  0
   35.0159    0.3019  -61.5631 C   0  0  0  0  0  0
   36.1763   -0.4922  -61.5916 O   0  0  0  0  0  0
   35.2786    1.5790  -60.9989 O   0  0  0  0  0  0
   36.2278    2.3090  -61.7630 C   0  0  0  0  0  0
   36.5392    3.6182  -61.0223 C   0  0  0  0  0  0
   37.2159    3.3533  -59.8229 O   0  0  0  0  0  0
   35.6835    2.6017  -63.1793 C   0  0  0  0  0  0
   36.6588    3.2789  -63.9305 O   0  0  0  0  0  0
   35.3248    1.2744  -63.8744 C   0  0  0  0  0  0
   34.7257    1.5072  -65.1257 O   0  0  0  0  0  0
   34.9167   -1.3292  -64.1553 H   0  0  0  0  0  0
   35.8869   -1.4000  -61.8699 H   0  0  0  0  0  0
   38.0983    2.9727  -60.0724 H   0  0  0  0  0  0
   36.6500    4.2244  -63.6276 H   0  0  0  0  0  0
   35.3782    2.0038  -65.6858 H   0  0  0  0  0  0
  1  2  1  0  0  0
  2  3  2  0  0  0
  2  4  1  0  0  0
  4  5  1  0  0  0
  4 16  1  0  0  0
  5  6  1  0  0  0
  6  7  1  0  0  0
  6  8  1  0  0  0
  7 17  1  0  0  0
  8  9  1  0  0  0
  9 10  1  0  0  0
  9 12  1  0  0  0
 10 11  1  0  0  0
 11 18  1  0  0  0
 12 13  1  0  0  0
 12 14  1  0  0  0
 13 19  1  0  0  0
 14 15  1  0  0  0
 14  5  1  0  0  0
 15 20  1  0  0  0
M  END
>  <CHROM.0>
-174.42166026,-59.69615589,60.39103406

>  <CHROM.1>
89.48756517,-63.73915506,67.22501537,65.82447507,-77.58713794,-176.60975976
35.05631745,0.90643984,-62.62669302,3.09697806,-0.96215158,-1.21525700

>  <Energy>
25.04008642669394

>  <Genealogy>
CC(=O)N[C@H]1[C@@H](O)O[C@H](CO)[C@@H](O)[C@@H]1O (3D coordinates assigned)
CC(=O)N[C@H]1[C@@H](O)O[C@H](CO)[C@@H](O)[C@@H]1O (nonaromatic ring conformer: 25.04008642669394 kcal/mol)

>  <Name>
82313

>  <RI>
2.59779e+07

>  <Rbt.Current_Directory>
/home/edward/Documentos/Virtual_Screening/rDock/N-terminal/2

>  <Rbt.Executable>
rbdock ($Id: //depot/dev/client3/rdock/2013.1/src/exe/rbdock.cxx#4 $)

>  <Rbt.Library>
libRbt.so (2013.1, Build901 2013/11/27)

>  <Rbt.Parameter_File>
/home/edward/anaconda3/envs/MD/share/rdock-2013.1-1/data/scripts/dock.prm

>  <Rbt.Receptor>
parameters.prm

>  <SCORE>
-27.9436

>  <SCORE.INTER>
-26.2605

>  <SCORE.INTER.CONST>
1

>  <SCORE.INTER.POLAR>
-5.18993

>  <SCORE.INTER.REPUL>
0

>  <SCORE.INTER.ROT>
2

>  <SCORE.INTER.VDW>
-16.0147

>  <SCORE.INTER.norm>
-1.7507

>  <SCORE.INTRA>
-0.579283

>  <SCORE.INTRA.DIHEDRAL>
-1.37643

>  <SCORE.INTRA.DIHEDRAL.0>
4.62313

>  <SCORE.INTRA.POLAR>
0

>  <SCORE.INTRA.POLAR.0>
0

>  <SCORE.INTRA.REPUL>
0

>  <SCORE.INTRA.REPUL.0>
0

>  <SCORE.INTRA.VDW>
0.108933

>  <SCORE.INTRA.VDW.0>
-1.4053

>  <SCORE.INTRA.norm>
-0.0386189

>  <SCORE.RESTR>
0

>  <SCORE.RESTR.CAVITY>
0

>  <SCORE.RESTR.norm>
0

>  <SCORE.SYSTEM>
-1.10387

>  <SCORE.SYSTEM.CONST>
0

>  <SCORE.SYSTEM.DIHEDRAL>
0.153682

>  <SCORE.SYSTEM.REPUL>
0.0245393

>  <SCORE.SYSTEM.VDW>
-1.30341

>  <SCORE.SYSTEM.norm>
-0.0735913

>  <SCORE.heavy>
15

>  <SCORE.norm>
-1.86291

>  <SMILES>
CC(=O)N[C@H]1[C@@H](O)O[C@H](CO)[C@@H](O)[C@@H]1O

>  <UniqueID>
183

$$$$
35717
  rDOCK(R)          3D
libRbt.so/2013.1/901 2013/11/27
 20 20  0  0  0  0  0  0  0  0999 V2000
   31.2990   -0.9603  -63.8887 C   0  0  0  0  0  0
   32.7723   -0.7172  -63.9263 C   0  0  0  0  0  0
   33.5625   -1.6949  -64.0234 O   0  0  0  0  0  0
   33.2767    0.6252  -63.8876 N   0  0  0  0  0  0
   34.7146    0.9259  -63.8929 C   0  0  0  0  0  0
   34.9408    2.4551  -63.9199 C   0  0  0  0  0  0
   36.2821    2.7749  -64.1908 O   0  0  0  0  0  0
   34.5001    3.0924  -62.7285 O   0  0  0  0  0  0
   35.1102    2.5951  -61.5417 C   0  0  0  0  0  0
   36.5369    3.1533  -61.3440 C   0  0  0  0  0  0
   37.0405    2.7603  -60.0964 O   0  0  0  0  0  0
   34.9757    1.0534  -61.3920 C   0  0  0  0  0  0
   35.7138    0.5792  -60.2948 O   0  0  0  0  0  0
   35.3947    0.3000  -62.6620 C   0  0  0  0  0  0
   36.7920    0.3208  -62.8059 O   0  0  0  0  0  0
   32.5853    1.4097  -63.8775 H   0  0  0  0  0  0
   36.3551    3.7649  -64.1674 H   0  0  0  0  0  0
   38.0164    2.9397  -60.1225 H   0  0  0  0  0  0
   35.4449   -0.3664  -60.1556 H   0  0  0  0  0  0
   37.0069   -0.2215  -63.6093 H   0  0  0  0  0  0
  1  2  1  0  0  0
  2  3  2  0  0  0
  2  4  1  0  0  0
  4  5  1  0  0  0
  4 16  1  0  0  0
  5  6  1  0  0  0
  6  7  1  0  0  0
  6  8  1  0  0  0
  7 17  1  0  0  0
  8  9  1  0  0  0
  9 10  1  0  0  0
  9 12  1  0  0  0
 10 11  1  0  0  0
 11 18  1  0  0  0
 12 13  1  0  0  0
 12 14  1  0  0  0
 13 19  1  0  0  0
 14 15  1  0  0  0
 14  5  1  0  0  0
 15 20  1  0  0  0
M  END
>  <CHROM.0>
-176.27979238,-61.14568956,59.27099503

>  <CHROM.1>
177.04760969,-178.47388158,173.38780930,165.78008515,169.29928204,-61.22407644
34.92535417,1.16751124,-62.67505958,-3.04532826,-0.85004027,-0.75798725

>  <Energy>
31.947141271669913

>  <Genealogy>
CC(=O)N[C@H]1[C@H](O)O[C@H](CO)[C@H](O)[C@@H]1O (chirality)
CC(=O)N[C@H]1[C@H](O)O[C@H](CO)[C@H](O)[C@@H]1O (3D coordinates assigned)
CC(=O)N[C@H]1[C@H](O)O[C@H](CO)[C@H](O)[C@@H]1O (nonaromatic ring conformer: 31.947141271669913 kcal/mol)

>  <Name>
35717

>  <RI>
2.59779e+07

>  <Rbt.Current_Directory>
/home/edward/Documentos/Virtual_Screening/rDock/N-terminal/2

>  <Rbt.Executable>
rbdock ($Id: //depot/dev/client3/rdock/2013.1/src/exe/rbdock.cxx#4 $)

>  <Rbt.Library>
libRbt.so (2013.1, Build901 2013/11/27)

>  <Rbt.Parameter_File>
/home/edward/anaconda3/envs/MD/share/rdock-2013.1-1/data/scripts/dock.prm

>  <Rbt.Receptor>
parameters.prm

>  <SCORE>
-20.9975

>  <SCORE.INTER>
-19.3632

>  <SCORE.INTER.CONST>
1

>  <SCORE.INTER.POLAR>
-3.93892

>  <SCORE.INTER.REPUL>
0.000196197

>  <SCORE.INTER.ROT>
2

>  <SCORE.INTER.VDW>
-13.3719

>  <SCORE.INTER.norm>
-1.29088

>  <SCORE.INTRA>
-0.52114

>  <SCORE.INTRA.DIHEDRAL>
-2.24646

>  <SCORE.INTRA.DIHEDRAL.0>
5.64211

>  <SCORE.INTRA.POLAR>
0

>  <SCORE.INTRA.POLAR.0>
0

>  <SCORE.INTRA.REPUL>
0

>  <SCORE.INTRA.REPUL.0>
0

>  <SCORE.INTRA.VDW>
0.60209

>  <SCORE.INTRA.VDW.0>
-1.72623

>  <SCORE.INTRA.norm>
-0.0347426

>  <SCORE.RESTR>
0

>  <SCORE.RESTR.CAVITY>
0

>  <SCORE.RESTR.norm>
0

>  <SCORE.SYSTEM>
-1.1131

>  <SCORE.SYSTEM.CONST>
0

>  <SCORE.SYSTEM.DIHEDRAL>
0.0771795

>  <SCORE.SYSTEM.REPUL>
0.0297509

>  <SCORE.SYSTEM.VDW>
-1.30044

>  <SCORE.SYSTEM.norm>
-0.0742066

>  <SCORE.heavy>
15

>  <SCORE.norm>
-1.39983

>  <SMILES>
CC(=O)N[C@H]1[C@H](O)O[C@H](CO)[C@H](O)[C@@H]1O

>  <UniqueID>
186

$$$$
29327
  rDOCK(R)          3D
libRbt.so/2013.1/901 2013/11/27
 23 23  0  0  0  0  0  0  0  0999 V2000
   31.4033   -3.5487  -63.2036 C   0  0  0  0  0  0
   32.6207   -2.8213  -63.5764 N   0  0  0  0  0  0
   33.4899   -3.3471  -64.5495 N   0  0  0  0  0  0
   34.2693   -2.6158  -65.1950 O   0  0  0  0  0  0
   32.8613   -1.4978  -63.0629 C   0  0  0  0  0  0
   32.0003   -0.9455  -62.3238 O   0  0  0  0  0  0
   34.0727   -0.7960  -63.3906 N   0  0  0  0  0  0
   34.3681    0.5431  -62.8655 C   0  0  0  0  0  0
   35.0057    0.4440  -61.4646 C   0  0  0  0  0  0
   36.1353   -0.3936  -61.4849 O   0  0  0  0  0  0
   35.3267    1.7302  -60.9556 O   0  0  0  0  0  0
   36.2833    2.3953  -61.7679 C   0  0  0  0  0  0
   36.6578    3.7205  -61.0872 C   0  0  0  0  0  0
   37.3186    3.4768  -59.8743 O   0  0  0  0  0  0
   35.7159    2.6463  -63.1856 C   0  0  0  0  0  0
   36.6917    3.2507  -63.9979 O   0  0  0  0  0  0
   35.3015    1.3085  -63.8194 C   0  0  0  0  0  0
   34.6325    1.5397  -65.0329 O   0  0  0  0  0  0
   34.7607   -1.2484  -64.0337 H   0  0  0  0  0  0
   35.8034   -1.3051  -61.6954 H   0  0  0  0  0  0
   38.1867    3.0516  -60.1003 H   0  0  0  0  0  0
   36.7557    4.2022  -63.7218 H   0  0  0  0  0  0
   35.2249    2.1146  -65.5844 H   0  0  0  0  0  0
  1  2  1  0  0  0
  2  3  1  0  0  0
  2  5  1  0  0  0
  3  4  2  0  0  0
  5  6  2  0  0  0
  5  7  1  0  0  0
  7  8  1  0  0  0
  7 19  1  0  0  0
  8  9  1  0  0  0
  9 10  1  0  0  0
  9 11  1  0  0  0
 10 20  1  0  0  0
 11 12  1  0  0  0
 12 13  1  0  0  0
 12 15  1  0  0  0
 13 14  1  0  0  0
 14 21  1  0  0  0
 15 16  1  0  0  0
 15 17  1  0  0  0
 16 22  1  0  0  0
 17 18  1  0  0  0
 17  8  1  0  0  0
 18 23  1  0  0  0
M  END
>  <CHROM.0>
-176.63533960,-179.26998717,178.54747997

>  <CHROM.1>
156.80319269,84.47947063,-65.45503473,65.55521541,66.48421852,-75.46794881
174.16470163,34.71943230,0.31054297,-62.82469576,2.82403110,-0.97593383,-1.58771882

>  <Energy>
29.605579550964123

>  <Genealogy>
CN(N=O)C(=O)N[C@H]1[C@@H](O)O[C@H](CO)[C@@H](O)[C@@H]1O (3D coordinates assigned)
CN(N=O)C(=O)N[C@H]1[C@@H](O)O[C@H](CO)[C@@H](O)[C@@H]1O (nonaromatic ring conformer: 29.605579550964123 kcal/mol)

>  <Name>
29327

>  <RI>
2.59779e+07

>  <Rbt.Current_Directory>
/home/edward/Documentos/Virtual_Screening/rDock/N-terminal/2

>  <Rbt.Executable>
rbdock ($Id: //depot/dev/client3/rdock/2013.1/src/exe/rbdock.cxx#4 $)

>  <Rbt.Library>
libRbt.so (2013.1, Build901 2013/11/27)

>  <Rbt.Parameter_File>
/home/edward/anaconda3/envs/MD/share/rdock-2013.1-1/data/scripts/dock.prm

>  <Rbt.Receptor>
parameters.prm

>  <SCORE>
-30.1203

>  <SCORE.INTER>
-26.0279

>  <SCORE.INTER.CONST>
1

>  <SCORE.INTER.POLAR>
-5.19788

>  <SCORE.INTER.REPUL>
0

>  <SCORE.INTER.ROT>
3

>  <SCORE.INTER.VDW>
-16.7551

>  <SCORE.INTER.norm>
-1.44599

>  <SCORE.INTRA>
-3.63886

>  <SCORE.INTRA.DIHEDRAL>
-6.80733

>  <SCORE.INTRA.DIHEDRAL.0>
10.5901

>  <SCORE.INTRA.POLAR>
-0.010463

>  <SCORE.INTRA.POLAR.0>
0

>  <SCORE.INTRA.REPUL>
0

>  <SCORE.INTRA.REPUL.0>
0

>  <SCORE.INTRA.VDW>
-0.199619

>  <SCORE.INTRA.VDW.0>
-0.844429

>  <SCORE.INTRA.norm>
-0.202159

>  <SCORE.RESTR>
0

>  <SCORE.RESTR.CAVITY>
0

>  <SCORE.RESTR.norm>
0

>  <SCORE.SYSTEM>
-0.453598

>  <SCORE.SYSTEM.CONST>
0

>  <SCORE.SYSTEM.DIHEDRAL>
0.0687583

>  <SCORE.SYSTEM.REPUL>
0.0884343

>  <SCORE.SYSTEM.VDW>
-0.930148

>  <SCORE.SYSTEM.norm>
-0.0251999

>  <SCORE.heavy>
18

>  <SCORE.norm>
-1.67335

>  <SMILES>
CN(N=O)C(=O)N[C@H]1[C@@H](O)O[C@H](CO)[C@@H](O)[C@@H]1O

>  <UniqueID>
187

$$$$
24154
  rDOCK(R)          3D
libRbt.so/2013.1/901 2013/11/27
 19 19  0  0  0  0  0  0  0  0999 V2000
   33.6852    4.2579  -61.2641 N   0  3  0  0  0  0
   35.0221    3.6525  -61.1607 C   0  0  0  0  0  0
   34.9661    2.3454  -60.3406 C   0  0  0  0  0  0
   36.2550    1.9491  -59.9500 O   0  0  0  0  0  0
   34.2813    1.2993  -61.0195 O   0  0  0  0  0  0
   34.8332    0.9701  -62.2903 C   0  0  0  0  0  0
   36.1095    0.1081  -62.1663 C   0  0  0  0  0  0
   35.8499   -1.0296  -61.3898 O   0  0  0  0  0  0
   34.9540    2.1960  -63.2345 C   0  0  0  0  0  0
   35.6377    1.8451  -64.4109 O   0  0  0  0  0  0
   35.6329    3.3985  -62.5555 C   0  0  0  0  0  0
   37.0162    3.1752  -62.4500 O   0  0  0  0  0  0
   33.2372    4.3057  -60.3202 H   0  0  0  0  0  0
   33.7345    5.2187  -61.6726 H   0  0  0  0  0  0
   33.0782    3.6655  -61.8763 H   0  0  0  0  0  0
   36.8236    2.0011  -60.7620 H   0  0  0  0  0  0
   35.2115   -1.5817  -61.9122 H   0  0  0  0  0  0
   35.5757    2.6238  -65.0241 H   0  0  0  0  0  0
   37.4236    4.0257  -62.1393 H   0  0  0  0  0  0
  1  2  1  0  0  0
  1 13  1  0  0  0
  1 14  1  0  0  0
  1 15  1  0  0  0
  2  3  1  0  0  0
  3  4  1  0  0  0
  3  5  1  0  0  0
  4 16  1  0  0  0
  5  6  1  0  0  0
  6  7  1  0  0  0
  6  9  1  0  0  0
  7  8  1  0  0  0
  8 17  1  0  0  0
  9 10  1  0  0  0
  9 11  1  0  0  0
 10 18  1  0  0  0
 11 12  1  0  0  0
 11  2  1  0  0  0
 12 19  1  0  0  0
M  END
>  <CHROM.0>
-177.75507974,-61.30144969,-61.05293804

>  <CHROM.1>
48.87748562,-48.04188440,54.20775813,66.51797101,172.36832027,-66.15575270
35.37289033,2.00324652,-61.85461123,2.39976529,1.25238161,-0.73981420

>  <Energy>
31.386920894482145

>  <Genealogy>
[NH3+][C@H]1C(O)O[C@H](CO)[C@H](O)[C@@H]1O (protonated)
[NH3+][C@H]1[C@H](O)O[C@H](CO)[C@H](O)[C@@H]1O (chirality)
[NH3+][C@H]1[C@H](O)O[C@H](CO)[C@H](O)[C@@H]1O (3D coordinates assigned)
[NH3+][C@H]1[C@H](O)O[C@H](CO)[C@H](O)[C@@H]1O (nonaromatic ring conformer: 31.386920894482145 kcal/mol)

>  <Name>
24154

>  <RI>
2.59779e+07

>  <Rbt.Current_Directory>
/home/edward/Documentos/Virtual_Screening/rDock/N-terminal/2

>  <Rbt.Executable>
rbdock ($Id: //depot/dev/client3/rdock/2013.1/src/exe/rbdock.cxx#4 $)

>  <Rbt.Library>
libRbt.so (2013.1, Build901 2013/11/27)

>  <Rbt.Parameter_File>
/home/edward/anaconda3/envs/MD/share/rdock-2013.1-1/data/scripts/dock.prm

>  <Rbt.Receptor>
parameters.prm

>  <SCORE>
-22.9211

>  <SCORE.INTER>
-20.1464

>  <SCORE.INTER.CONST>
1

>  <SCORE.INTER.POLAR>
-4.30722

>  <SCORE.INTER.REPUL>
0.0360839

>  <SCORE.INTER.ROT>
1

>  <SCORE.INTER.VDW>
-12.0823

>  <SCORE.INTER.norm>
-1.67887

>  <SCORE.INTRA>
-1.77939

>  <SCORE.INTRA.DIHEDRAL>
-2.7305

>  <SCORE.INTRA.DIHEDRAL.0>
4.98602

>  <SCORE.INTRA.POLAR>
-0.462876

>  <SCORE.INTRA.POLAR.0>
0

>  <SCORE.INTRA.REPUL>
0

>  <SCORE.INTRA.REPUL.0>
0

>  <SCORE.INTRA.VDW>
1.15963

>  <SCORE.INTRA.VDW.0>
-1.33617

>  <SCORE.INTRA.norm>
-0.148283

>  <SCORE.RESTR>
0

>  <SCORE.RESTR.CAVITY>
0

>  <SCORE.RESTR.norm>
0

>  <SCORE.SYSTEM>
-0.995236

>  <SCORE.SYSTEM.CONST>
0

>  <SCORE.SYSTEM.DIHEDRAL>
0.0386661

>  <SCORE.SYSTEM.REPUL>
0.0338398

>  <SCORE.SYSTEM.VDW>
-1.18377

>  <SCORE.SYSTEM.norm>
-0.0829363

>  <SCORE.heavy>
12

>  <SCORE.norm>
-1.91009

>  <SMILES>
[NH3+][C@H]1[C@H](O)O[C@H](CO)[C@H](O)[C@@H]1O

>  <UniqueID>
189

$$$$
24139
  rDOCK(R)          3D
libRbt.so/2013.1/901 2013/11/27
 20 20  0  0  0  0  0  0  0  0999 V2000
   32.5174   -2.6271  -64.5025 C   0  0  0  0  0  0
   32.7123   -1.3089  -63.8273 C   0  0  0  0  0  0
   31.7087   -0.6692  -63.4112 O   0  0  0  0  0  0
   34.0330   -0.7664  -63.6878 N   0  0  0  0  0  0
   34.2909    0.5608  -63.1196 C   0  0  0  0  0  0
   34.8454    0.4244  -61.6890 C   0  0  0  0  0  0
   33.8885   -0.2182  -60.8913 O   0  0  0  0  0  0
   35.1111    1.7053  -61.1428 O   0  0  0  0  0  0
   36.1549    2.3460  -61.8580 C   0  0  0  0  0  0
   36.5329    3.6338  -61.1145 C   0  0  0  0  0  0
   37.2053    3.3320  -59.9223 O   0  0  0  0  0  0
   35.7153    2.6336  -63.3156 C   0  0  0  0  0  0
   36.7763    3.2070  -64.0380 O   0  0  0  0  0  0
   35.2988    1.3191  -63.9988 C   0  0  0  0  0  0
   34.7131    1.5918  -65.2461 O   0  0  0  0  0  0
   34.8282   -1.2842  -64.1271 H   0  0  0  0  0  0
   34.2778   -0.2786  -59.9802 H   0  0  0  0  0  0
   38.0778    2.9421  -60.1897 H   0  0  0  0  0  0
   36.8300    4.1617  -63.7710 H   0  0  0  0  0  0
   35.4499    1.8436  -65.8620 H   0  0  0  0  0  0
  1  2  1  0  0  0
  2  3  2  0  0  0
  2  4  1  0  0  0
  4  5  1  0  0  0
  4 16  1  0  0  0
  5  6  1  0  0  0
  6  7  1  0  0  0
  6  8  1  0  0  0
  7 17  1  0  0  0
  8  9  1  0  0  0
  9 10  1  0  0  0
  9 12  1  0  0  0
 10 11  1  0  0  0
 11 18  1  0  0  0
 12 13  1  0  0  0
 12 14  1  0  0  0
 13 19  1  0  0  0
 14 15  1  0  0  0
 14  5  1  0  0  0
 15 20  1  0  0  0
M  END
>  <CHROM.0>
-174.84840966,-177.23046097,61.53893550

>  <CHROM.1>
104.85788231,-179.44855199,71.39589661,67.76184955,-77.66808378,-164.52360591
34.79700794,1.04184187,-62.76400446,-2.82015198,0.87119725,1.64414723

>  <Energy>
23.001806454535302

>  <Genealogy>
CC(=O)N[C@H]1[C@H](O)O[C@H](CO)[C@@H](O)[C@@H]1O (3D coordinates assigned)
CC(=O)N[C@H]1[C@H](O)O[C@H](CO)[C@@H](O)[C@@H]1O (nonaromatic ring conformer: 23.001806454535302 kcal/mol)

>  <Name>
24139

>  <RI>
2.59779e+07

>  <Rbt.Current_Directory>
/home/edward/Documentos/Virtual_Screening/rDock/N-terminal/2

>  <Rbt.Executable>
rbdock ($Id: //depot/dev/client3/rdock/2013.1/src/exe/rbdock.cxx#4 $)

>  <Rbt.Library>
libRbt.so (2013.1, Build901 2013/11/27)

>  <Rbt.Parameter_File>
/home/edward/anaconda3/envs/MD/share/rdock-2013.1-1/data/scripts/dock.prm

>  <Rbt.Receptor>
parameters.prm

>  <SCORE>
-30.5637

>  <SCORE.INTER>
-28.9127

>  <SCORE.INTER.CONST>
1

>  <SCORE.INTER.POLAR>
-6.0408

>  <SCORE.INTER.REPUL>
0

>  <SCORE.INTER.ROT>
2

>  <SCORE.INTER.VDW>
-15.774

>  <SCORE.INTER.norm>
-1.92751

>  <SCORE.INTRA>
-1.11991

>  <SCORE.INTRA.DIHEDRAL>
-2.75738

>  <SCORE.INTRA.DIHEDRAL.0>
7.48956

>  <SCORE.INTRA.POLAR>
0

>  <SCORE.INTRA.POLAR.0>
0

>  <SCORE.INTRA.REPUL>
0

>  <SCORE.INTRA.REPUL.0>
0

>  <SCORE.INTRA.VDW>
0.258785

>  <SCORE.INTRA.VDW.0>
-1.79913

>  <SCORE.INTRA.norm>
-0.0746604

>  <SCORE.RESTR>
0

>  <SCORE.RESTR.CAVITY>
0

>  <SCORE.RESTR.norm>
0

>  <SCORE.SYSTEM>
-0.53107

>  <SCORE.SYSTEM.CONST>
0

>  <SCORE.SYSTEM.DIHEDRAL>
0.179638

>  <SCORE.SYSTEM.REPUL>
0.0794939

>  <SCORE.SYSTEM.VDW>
-1.01836

>  <SCORE.SYSTEM.norm>
-0.0354046

>  <SCORE.heavy>
15

>  <SCORE.norm>
-2.03758

>  <SMILES>
CC(=O)N[C@H]1[C@H](O)O[C@H](CO)[C@@H](O)[C@@H]1O

>  <UniqueID>
191

$$$$
18897
  rDOCK(R)          3D
libRbt.so/2013.1/901 2013/11/27
 19 19  0  0  0  0  0  0  0  0999 V2000
   36.2998    3.6971  -62.4662 N   0  3  0  0  0  0
   35.0622    3.0464  -62.9324 C   0  0  0  0  0  0
   34.1721    2.5770  -61.7609 C   0  0  0  0  0  0
   33.9682    3.6307  -60.8538 O   0  0  0  0  0  0
   34.8060    1.3695  -61.0481 C   0  0  0  0  0  0
   33.9027    0.8540  -60.1035 O   0  0  0  0  0  0
   35.2276    0.2722  -62.0637 C   0  0  0  0  0  0
   34.0546   -0.5907  -62.5771 C   0  0  0  0  0  0
   34.5466   -1.6394  -63.3649 O   0  0  0  0  0  0
   36.0239    0.7928  -63.1228 O   0  0  0  0  0  0
   35.3687    1.8321  -63.8401 C   0  0  0  0  0  0
   36.1563    2.2273  -64.9345 O   0  0  0  0  0  0
   36.1816    4.1004  -61.5093 H   0  0  0  0  0  0
   37.0773    2.9987  -62.4427 H   0  0  0  0  0  0
   36.5893    4.4543  -63.1255 H   0  0  0  0  0  0
   33.5163    4.3603  -61.3529 H   0  0  0  0  0  0
   34.3497    0.0789  -59.6730 H   0  0  0  0  0  0
   35.0642   -1.2151  -64.0976 H   0  0  0  0  0  0
   35.9304    1.6359  -65.6991 H   0  0  0  0  0  0
  1  2  1  0  0  0
  1 13  1  0  0  0
  1 14  1  0  0  0
  1 15  1  0  0  0
  2  3  1  0  0  0
  3  4  1  0  0  0
  3  5  1  0  0  0
  4 16  1  0  0  0
  5  6  1  0  0  0
  5  7  1  0  0  0
  6 17  1  0  0  0
  7  8  1  0  0  0
  7 10  1  0  0  0
  8  9  1  0  0  0
  9 18  1  0  0  0
 10 11  1  0  0  0
 11 12  1  0  0  0
 11  2  1  0  0  0
 12 19  1  0  0  0
M  END
>  <CHROM.0>
-174.04045151,-64.33881272,-61.96243729

>  <CHROM.1>
-25.10401824,60.39163742,179.78208709,-173.44919182,-57.62885358,-149.39948720
34.98621636,1.51137116,-62.43314772,-1.37139256,-1.05572412,-2.77186976

>  <Energy>
28.819056257157534

>  <Genealogy>
[NH3+]C1C(O)[C@@H](O)C(CO)O[C@@H]1O (protonated)
[NH3+][C@H]1[C@@H](O)O[C@H](CO)[C@H](O)[C@H]1O (chirality)
[NH3+][C@H]1[C@@H](O)O[C@H](CO)[C@H](O)[C@H]1O (3D coordinates assigned)
[NH3+][C@H]1[C@@H](O)O[C@H](CO)[C@H](O)[C@H]1O (nonaromatic ring conformer: 28.819056257157534 kcal/mol)

>  <Name>
18897

>  <RI>
2.59779e+07

>  <Rbt.Current_Directory>
/home/edward/Documentos/Virtual_Screening/rDock/N-terminal/2

>  <Rbt.Executable>
rbdock ($Id: //depot/dev/client3/rdock/2013.1/src/exe/rbdock.cxx#4 $)

>  <Rbt.Library>
libRbt.so (2013.1, Build901 2013/11/27)

>  <Rbt.Parameter_File>
/home/edward/anaconda3/envs/MD/share/rdock-2013.1-1/data/scripts/dock.prm

>  <Rbt.Receptor>
parameters.prm

>  <SCORE>
-23.5828

>  <SCORE.INTER>
-23.4993

>  <SCORE.INTER.CONST>
1

>  <SCORE.INTER.POLAR>
-5.81075

>  <SCORE.INTER.REPUL>
0.208615

>  <SCORE.INTER.ROT>
1

>  <SCORE.INTER.VDW>
-11.1859

>  <SCORE.INTER.norm>
-1.95828

>  <SCORE.INTRA>
0.860554

>  <SCORE.INTRA.DIHEDRAL>
0.43407

>  <SCORE.INTRA.DIHEDRAL.0>
5.94454

>  <SCORE.INTRA.POLAR>
-0.014096

>  <SCORE.INTRA.POLAR.0>
-0.000956215

>  <SCORE.INTRA.REPUL>
0

>  <SCORE.INTRA.REPUL.0>
0

>  <SCORE.INTRA.VDW>
0.691445

>  <SCORE.INTRA.VDW.0>
-1.37887

>  <SCORE.INTRA.norm>
0.0717128

>  <SCORE.RESTR>
0

>  <SCORE.RESTR.CAVITY>
0

>  <SCORE.RESTR.norm>
0

>  <SCORE.SYSTEM>
-0.944012

>  <SCORE.SYSTEM.CONST>
0

>  <SCORE.SYSTEM.DIHEDRAL>
0.285336

>  <SCORE.SYSTEM.REPUL>
0.0234622

>  <SCORE.SYSTEM.VDW>
-1.20399

>  <SCORE.SYSTEM.norm>
-0.0786676

>  <SCORE.heavy>
12

>  <SCORE.norm>
-1.96523

>  <SMILES>
[NH3+][C@H]1[C@@H](O)O[C@H](CO)[C@H](O)[C@H]1O

>  <UniqueID>
194

$$$$
5300
  rDOCK(R)          3D
libRbt.so/2013.1/901 2013/11/27
 23 23  0  0  0  0  0  0  0  0999 V2000
   31.5920   -2.9023  -63.4248 C   0  0  0  0  0  0
   31.8743   -1.4649  -63.4836 N   0  0  0  0  0  0
   30.8739   -0.5626  -63.8881 N   0  0  0  0  0  0
   29.7022   -0.9371  -64.1020 O   0  0  0  0  0  0
   33.2153   -0.9801  -63.2864 C   0  0  0  0  0  0
   34.1623   -1.7991  -63.1270 O   0  0  0  0  0  0
   33.4858    0.4320  -63.2703 N   0  0  0  0  0  0
   34.8499    0.9625  -63.1359 C   0  0  0  0  0  0
   35.4534    0.5860  -61.7548 C   0  0  0  0  0  0
   36.0771   -0.6679  -61.8341 O   0  0  0  0  0  0
   36.4224    1.5458  -61.3831 O   0  0  0  0  0  0
   35.7947    2.7570  -60.9824 C   0  0  0  0  0  0
   36.8878    3.8114  -60.7722 C   0  0  0  0  0  0
   37.6108    4.0000  -61.9579 O   0  0  0  0  0  0
   34.7225    3.2502  -62.0130 C   0  0  0  0  0  0
   33.4312    3.0362  -61.5015 O   0  0  0  0  0  0
   34.8582    2.5016  -63.3502 C   0  0  0  0  0  0
   36.0585    2.8924  -63.9688 O   0  0  0  0  0  0
   32.6791    1.0941  -63.3100 H   0  0  0  0  0  0
   35.3846   -1.3140  -62.1324 H   0  0  0  0  0  0
   36.9568    4.3245  -62.6300 H   0  0  0  0  0  0
   33.3250    3.6495  -60.7278 H   0  0  0  0  0  0
   35.9374    2.7554  -64.9449 H   0  0  0  0  0  0
  1  2  1  0  0  0
  2  3  1  0  0  0
  2  5  1  0  0  0
  3  4  2  0  0  0
  5  6  2  0  0  0
  5  7  1  0  0  0
  7  8  1  0  0  0
  7 19  1  0  0  0
  8  9  1  0  0  0
  9 10  1  0  0  0
  9 11  1  0  0  0
 10 20  1  0  0  0
 11 12  1  0  0  0
 12 13  1  0  0  0
 12 15  1  0  0  0
 13 14  1  0  0  0
 14 21  1  0  0  0
 15 16  1  0  0  0
 15 17  1  0  0  0
 16 22  1  0  0  0
 17 18  1  0  0  0
 17  8  1  0  0  0
 18 23  1  0  0  0
M  END
>  <CHROM.0>
-178.11894581,63.26134477,-179.29924733

>  <CHROM.1>
5.82732174,-64.37866094,-57.93620062,59.12356846,61.29469701,67.58900623
83.59114836,34.30084829,0.92885050,-62.62788382,-2.39771632,-0.31073125,0.05778839

>  <Energy>
36.799577805089406

>  <Genealogy>
CN(N=O)C(=O)N[C@@H]1[C@@H](O)O[C@@H](CO)[C@H](O)[C@H]1O (chirality)
CN(N=O)C(=O)N[C@@H]1[C@@H](O)O[C@@H](CO)[C@H](O)[C@H]1O (3D coordinates assigned)
CN(N=O)C(=O)N[C@@H]1[C@@H](O)O[C@@H](CO)[C@H](O)[C@H]1O (nonaromatic ring conformer: 36.799577805089406 kcal/mol)

>  <Name>
5300

>  <RI>
2.59779e+07

>  <Rbt.Current_Directory>
/home/edward/Documentos/Virtual_Screening/rDock/N-terminal/2

>  <Rbt.Executable>
rbdock ($Id: //depot/dev/client3/rdock/2013.1/src/exe/rbdock.cxx#4 $)

>  <Rbt.Library>
libRbt.so (2013.1, Build901 2013/11/27)

>  <Rbt.Parameter_File>
/home/edward/anaconda3/envs/MD/share/rdock-2013.1-1/data/scripts/dock.prm

>  <Rbt.Receptor>
parameters.prm

>  <SCORE>
-19.9847

>  <SCORE.INTER>
-16.1527

>  <SCORE.INTER.CONST>
1

>  <SCORE.INTER.POLAR>
-3.44309

>  <SCORE.INTER.REPUL>
0.0943109

>  <SCORE.INTER.ROT>
3

>  <SCORE.INTER.VDW>
-13.3177

>  <SCORE.INTER.norm>
-0.89737

>  <SCORE.INTRA>
-3.60086

>  <SCORE.INTRA.DIHEDRAL>
-0.746079

>  <SCORE.INTRA.DIHEDRAL.0>
4.73472

>  <SCORE.INTRA.POLAR>
-1.1298

>  <SCORE.INTRA.POLAR.0>
0

>  <SCORE.INTRA.REPUL>
0

>  <SCORE.INTRA.REPUL.0>
0

>  <SCORE.INTRA.VDW>
0.613504

>  <SCORE.INTRA.VDW.0>
-0.834834

>  <SCORE.INTRA.norm>
-0.200048

>  <SCORE.RESTR>
0

>  <SCORE.RESTR.CAVITY>
0

>  <SCORE.RESTR.norm>
0

>  <SCORE.SYSTEM>
-0.23122

>  <SCORE.SYSTEM.CONST>
0

>  <SCORE.SYSTEM.DIHEDRAL>
0.072231

>  <SCORE.SYSTEM.REPUL>
0.17495

>  <SCORE.SYSTEM.VDW>
-1.14208

>  <SCORE.SYSTEM.norm>
-0.0128455

>  <SCORE.heavy>
18

>  <SCORE.norm>
-1.11026

>  <SMILES>
CN(N=O)C(=O)N[C@@H]1[C@@H](O)O[C@@H](CO)[C@H](O)[C@H]1O

>  <UniqueID>
195

$$$$
899
  rDOCK(R)          3D
libRbt.so/2013.1/901 2013/11/27
 20 20  0  0  0  0  0  0  0  0999 V2000
   33.4387    5.6294  -60.4294 H   0  0  0  0  0  0
   33.7686    4.7829  -60.8773 O   0  0  0  0  0  0
   34.5429    3.8538  -60.1827 C   0  0  0  0  0  0
   35.0011    2.7955  -60.7814 N   0  0  0  0  0  0
   34.7559    2.4746  -62.1911 C   0  0  0  0  0  0
   33.7835    1.2828  -62.2838 C   0  0  0  0  0  0
   32.6094    1.5432  -61.5573 O   0  0  0  0  0  0
   32.1297    2.2685  -62.0366 H   0  0  0  0  0  0
   34.4418   -0.0182  -61.7583 C   0  0  0  0  0  0
   33.8248   -1.1404  -62.3427 O   0  0  0  0  0  0
   32.8675   -1.1286  -62.0790 H   0  0  0  0  0  0
   35.9813   -0.0008  -61.9890 C   0  0  0  0  0  0
   36.5866   -1.4089  -62.1034 C   0  0  0  0  0  0
   37.9672   -1.3289  -62.3358 O   0  0  0  0  0  0
   38.3791   -0.9923  -61.4975 H   0  0  0  0  0  0
   36.2795    0.7412  -63.1565 O   0  0  0  0  0  0
   36.0968    2.1344  -62.9239 C   0  0  0  0  0  0
   36.1494    2.8096  -64.1526 O   0  0  0  0  0  0
   36.0129    3.7739  -63.9582 H   0  0  0  0  0  0
   34.8782    4.0898  -58.7456 C   0  0  0  0  0  0
  1  2  1  0  0  0
  2  3  1  0  0  0
  3  4  2  0  0  0
  3 20  1  0  0  0
  4  5  1  0  0  0
  5  6  1  0  0  0
  6  7  1  0  0  0
  6  9  1  0  0  0
  7  8  1  0  0  0
  9 10  1  0  0  0
  9 12  1  0  0  0
 10 11  1  0  0  0
 12 13  1  0  0  0
 12 16  1  0  0  0
 13 14  1  0  0  0
 14 15  1  0  0  0
 16 17  1  0  0  0
 17 18  1  0  0  0
 17  5  1  0  0  0
 18 19  1  0  0  0
M  END
>  <CHROM.0>
-177.75111189,-61.42687704,-179.66827755

>  <CHROM.1>
-177.48573138,-108.55192002,68.16022539,-61.07791582,178.85244714,69.79020449
54.85100639,35.10449236,1.49980573,-61.85219225,-2.00839994,-0.41388934,-2.91881310

>  <Energy>
33.90360144532422

>  <Genealogy>
CC(O)=NC1C(O)OC(CO)C(O)C1O (tautomer)
CC(O)=N[C@@H]1[C@H](O)[C@@H](O)[C@@H](CO)O[C@H]1O (chirality)
C/C(O)=N\[C@@H]1[C@H](O)[C@@H](O)[C@@H](CO)O[C@H]1O (cis-trans isomerization)
C/C(O)=N\[C@@H]1[C@H](O)[C@@H](O)[C@@H](CO)O[C@H]1O (3D coordinates assigned)
C/C(O)=N\[C@@H]1[C@H](O)[C@@H](O)[C@@H](CO)O[C@H]1O (nonaromatic ring conformer: 33.90360144532422 kcal/mol)

>  <Name>
899

>  <RI>
2.59779e+07

>  <Rbt.Current_Directory>
/home/edward/Documentos/Virtual_Screening/rDock/N-terminal/2

>  <Rbt.Executable>
rbdock ($Id: //depot/dev/client3/rdock/2013.1/src/exe/rbdock.cxx#4 $)

>  <Rbt.Library>
libRbt.so (2013.1, Build901 2013/11/27)

>  <Rbt.Parameter_File>
/home/edward/anaconda3/envs/MD/share/rdock-2013.1-1/data/scripts/dock.prm

>  <Rbt.Receptor>
parameters.prm

>  <SCORE>
-20.9894

>  <SCORE.INTER>
-18.0974

>  <SCORE.INTER.CONST>
1

>  <SCORE.INTER.POLAR>
-3.92288

>  <SCORE.INTER.REPUL>
0.200352

>  <SCORE.INTER.ROT>
2

>  <SCORE.INTER.VDW>
-13.1614

>  <SCORE.INTER.norm>
-1.2065

>  <SCORE.INTRA>
-1.84529

>  <SCORE.INTRA.DIHEDRAL>
-3.94734

>  <SCORE.INTRA.DIHEDRAL.0>
5.28786

>  <SCORE.INTRA.POLAR>
0

>  <SCORE.INTRA.POLAR.0>
0

>  <SCORE.INTRA.REPUL>
0

>  <SCORE.INTRA.REPUL.0>
0

>  <SCORE.INTRA.VDW>
0.128383

>  <SCORE.INTRA.VDW.0>
-1.30457

>  <SCORE.INTRA.norm>
-0.123019

>  <SCORE.RESTR>
0

>  <SCORE.RESTR.CAVITY>
0

>  <SCORE.RESTR.norm>
0

>  <SCORE.SYSTEM>
-1.0467

>  <SCORE.SYSTEM.CONST>
0

>  <SCORE.SYSTEM.DIHEDRAL>
0.0355144

>  <SCORE.SYSTEM.REPUL>
0.0338289

>  <SCORE.SYSTEM.VDW>
-1.2336

>  <SCORE.SYSTEM.norm>
-0.0697802

>  <SCORE.heavy>
15

>  <SCORE.norm>
-1.39929

>  <SMILES>
C/C(O)=N\[C@@H]1[C@H](O)[C@@H](O)[C@@H](CO)O[C@H]1O

>  <UniqueID>
198

$$$$
739
  rDOCK(R)          3D
libRbt.so/2013.1/901 2013/11/27
 19 19  0  0  0  0  0  0  0  0999 V2000
   36.1471   -0.7461  -62.7883 N   0  3  0  0  0  0
   35.0860    0.0362  -62.1323 C   0  0  0  0  0  0
   35.5797    0.5874  -60.7768 C   0  0  0  0  0  0
   34.4995    1.0713  -60.0178 O   0  0  0  0  0  0
   36.5741    1.5858  -60.9567 O   0  0  0  0  0  0
   36.0668    2.7173  -61.6496 C   0  0  0  0  0  0
   37.1643    3.7875  -61.6873 C   0  0  0  0  0  0
   37.7526    3.9044  -60.4212 O   0  0  0  0  0  0
   35.6212    2.3364  -63.0825 C   0  0  0  0  0  0
   35.0338    3.4478  -63.7134 O   0  0  0  0  0  0
   34.5857    1.1993  -63.0197 C   0  0  0  0  0  0
   34.2923    0.7316  -64.3120 O   0  0  0  0  0  0
   36.2809   -1.6608  -62.3006 H   0  0  0  0  0  0
   35.9249   -0.9185  -63.7947 H   0  0  0  0  0  0
   37.0521   -0.2250  -62.7316 H   0  0  0  0  0  0
   34.0096    0.2735  -59.6879 H   0  0  0  0  0  0
   38.1680    3.0239  -60.2279 H   0  0  0  0  0  0
   35.7285    4.1545  -63.7729 H   0  0  0  0  0  0
   33.5506    0.0776  -64.2228 H   0  0  0  0  0  0
  1  2  1  0  0  0
  1 13  1  0  0  0
  1 14  1  0  0  0
  1 15  1  0  0  0
  2  3  1  0  0  0
  3  4  1  0  0  0
  3  5  1  0  0  0
  4 16  1  0  0  0
  5  6  1  0  0  0
  6  7  1  0  0  0
  6  9  1  0  0  0
  7  8  1  0  0  0
  8 17  1  0  0  0
  9 10  1  0  0  0
  9 11  1  0  0  0
 10 18  1  0  0  0
 11 12  1  0  0  0
 11  2  1  0  0  0
 12 19  1  0  0  0
M  END
>  <CHROM.0>
-175.93352287,-62.69936355,63.06921365

>  <CHROM.1>
72.73763354,73.70961084,-45.27650792,62.48802083,61.92154319,63.08187571
35.70966387,1.71391096,-62.04858858,-2.94421373,-1.03422066,-0.75568723

>  <Energy>
24.76480741120639

>  <Genealogy>
[NH3+]C1C(O)OC(CO)C(O)C1O (protonated)
[NH3+][C@@H]1[C@H](O)[C@@H](O)[C@H](CO)O[C@H]1O (chirality)
[NH3+][C@@H]1[C@H](O)[C@@H](O)[C@H](CO)O[C@H]1O (3D coordinates assigned)
[NH3+][C@@H]1[C@H](O)[C@@H](O)[C@H](CO)O[C@H]1O (nonaromatic ring conformer: 24.76480741120639 kcal/mol)

>  <Name>
739

>  <RI>
2.59779e+07

>  <Rbt.Current_Directory>
/home/edward/Documentos/Virtual_Screening/rDock/N-terminal/2

>  <Rbt.Executable>
rbdock ($Id: //depot/dev/client3/rdock/2013.1/src/exe/rbdock.cxx#4 $)

>  <Rbt.Library>
libRbt.so (2013.1, Build901 2013/11/27)

>  <Rbt.Parameter_File>
/home/edward/anaconda3/envs/MD/share/rdock-2013.1-1/data/scripts/dock.prm

>  <Rbt.Receptor>
parameters.prm

>  <SCORE>
-22.3083

>  <SCORE.INTER>
-19.6727

>  <SCORE.INTER.CONST>
1

>  <SCORE.INTER.POLAR>
-3.78954

>  <SCORE.INTER.REPUL>
0.0803572

>  <SCORE.INTER.ROT>
1

>  <SCORE.INTER.VDW>
-13.59

>  <SCORE.INTER.norm>
-1.63939

>  <SCORE.INTRA>
-1.52105

>  <SCORE.INTRA.DIHEDRAL>
-4.56806

>  <SCORE.INTRA.DIHEDRAL.0>
6.86093

>  <SCORE.INTRA.POLAR>
-0.0292467

>  <SCORE.INTRA.POLAR.0>
0

>  <SCORE.INTRA.REPUL>
0

>  <SCORE.INTRA.REPUL.0>
0

>  <SCORE.INTRA.VDW>
0.862419

>  <SCORE.INTRA.VDW.0>
-1.26832

>  <SCORE.INTRA.norm>
-0.126754

>  <SCORE.RESTR>
0

>  <SCORE.RESTR.CAVITY>
0

>  <SCORE.RESTR.norm>
0

>  <SCORE.SYSTEM>
-1.11458

>  <SCORE.SYSTEM.CONST>
0

>  <SCORE.SYSTEM.DIHEDRAL>
0.163579

>  <SCORE.SYSTEM.REPUL>
0.0287847

>  <SCORE.SYSTEM.VDW>
-1.34029

>  <SCORE.SYSTEM.norm>
-0.0928816

>  <SCORE.heavy>
12

>  <SCORE.norm>
-1.85903

>  <SMILES>
[NH3+][C@@H]1[C@H](O)[C@@H](O)[C@H](CO)O[C@H]1O

>  <UniqueID>
199

$$$$
ZINC000001471333
  rDOCK(R)          3D
libRbt.so/2013.1/901 2013/11/27
 26 27  0  0  0  0  0  0  0  0999 V2000
   31.6485    1.2789  -63.4334 H   0  0  0  0  0  0
   31.4624    0.3339  -63.7469 O   0  0  0  0  0  0
   32.4773   -0.6209  -63.8053 C   0  0  0  0  0  0
   33.6856   -0.3305  -63.4243 N   0  0  0  0  0  0
   34.1000    0.9622  -62.8719 C   0  0  0  0  0  0
   34.5804    0.8054  -61.4122 C   0  0  0  0  0  0
   33.5089    0.3038  -60.6157 O   0  0  0  0  0  0
   32.5814    1.0979  -59.9241 C   0  0  0  0  0  0
   32.0394    0.7222  -58.6796 C   0  0  0  0  0  0
   31.1185    1.5522  -58.0330 C   0  0  0  0  0  0
   30.7145    2.7583  -58.6242 C   0  0  0  0  0  0
   29.7567    3.6662  -57.9113 C   0  0  0  0  0  0
   31.2661    3.1393  -59.8562 C   0  0  0  0  0  0
   32.1872    2.3099  -60.5022 C   0  0  0  0  0  0
   34.9809    2.0630  -60.8946 O   0  0  0  0  0  0
   36.1307    2.5412  -61.5718 C   0  0  0  0  0  0
   36.6126    3.8195  -60.8712 C   0  0  0  0  0  0
   37.3224    3.4986  -59.7048 O   0  0  0  0  0  0
   38.1612    3.0522  -59.9927 H   0  0  0  0  0  0
   35.7880    2.8228  -63.0582 C   0  0  0  0  0  0
   36.8940    3.3248  -63.7694 O   0  0  0  0  0  0
   36.9441    4.3027  -63.6069 H   0  0  0  0  0  0
   35.2367    1.5505  -63.7310 C   0  0  0  0  0  0
   36.2701    0.6073  -63.8871 O   0  0  0  0  0  0
   35.8602   -0.2154  -64.2621 H   0  0  0  0  0  0
   32.1854   -1.9817  -64.3499 C   0  0  0  0  0  0
  1  2  1  0  0  0
  2  3  1  0  0  0
  3  4  2  0  0  0
  3 26  1  0  0  0
  4  5  1  0  0  0
  5  6  1  0  0  0
  6  7  1  0  0  0
  6 15  1  0  0  0
  7  8  1  0  0  0
  8  9  2  0  0  0
  9 10  1  0  0  0
 10 11  2  0  0  0
 11 12  1  0  0  0
 11 13  1  0  0  0
 13 14  2  0  0  0
 14  8  1  0  0  0
 15 16  1  0  0  0
 16 17  1  0  0  0
 16 20  1  0  0  0
 17 18  1  0  0  0
 18 19  1  0  0  0
 20 21  1  0  0  0
 20 23  1  0  0  0
 21 22  1  0  0  0
 23 24  1  0  0  0
 23  5  1  0  0  0
 24 25  1  0  0  0
M  END
>  <CHROM.0>
-71.68516594,-176.37143945,-62.54290781

>  <CHROM.1>
1.80552553,116.37318821,-91.02372284,-145.30444311,78.68537839,67.58972706
-83.17399252,55.13869154,33.77453504,1.59730767,-61.48463738,2.50866707,0.40696887
0.94582751

>  <Energy>
39.146357771489974

>  <Genealogy>
CC(O)=N[C@H]1[C@H](Oc2ccc(C)cc2)O[C@H](CO)[C@@H](O)[C@H]1O (tautomer)
C/C(O)=N/[C@H]1[C@H](Oc2ccc(C)cc2)O[C@H](CO)[C@@H](O)[C@H]1O (cis-trans isomerization)
C/C(O)=N/[C@H]1[C@H](Oc2ccc(C)cc2)O[C@H](CO)[C@@H](O)[C@H]1O (3D coordinates assigned)
C/C(O)=N/[C@H]1[C@H](Oc2ccc(C)cc2)O[C@H](CO)[C@@H](O)[C@H]1O (nonaromatic ring conformer: 39.146357771489974 kcal/mol)

>  <Name>
ZINC000001471333

>  <RI>
2.59779e+07

>  <Rbt.Current_Directory>
/home/edward/Documentos/Virtual_Screening/rDock/N-terminal/2

>  <Rbt.Executable>
rbdock ($Id: //depot/dev/client3/rdock/2013.1/src/exe/rbdock.cxx#4 $)

>  <Rbt.Library>
libRbt.so (2013.1, Build901 2013/11/27)

>  <Rbt.Parameter_File>
/home/edward/anaconda3/envs/MD/share/rdock-2013.1-1/data/scripts/dock.prm

>  <Rbt.Receptor>
parameters.prm

>  <SCORE>
-22.0864

>  <SCORE.INTER>
-23.7756

>  <SCORE.INTER.CONST>
1

>  <SCORE.INTER.POLAR>
-4.82359

>  <SCORE.INTER.REPUL>
0.314812

>  <SCORE.INTER.ROT>
4

>  <SCORE.INTER.VDW>
-18.3495

>  <SCORE.INTER.norm>
-1.08071

>  <SCORE.INTRA>
1.10032

>  <SCORE.INTRA.DIHEDRAL>
2.50189

>  <SCORE.INTRA.DIHEDRAL.0>
6.84329

>  <SCORE.INTRA.POLAR>
-0.084946

>  <SCORE.INTRA.POLAR.0>
0

>  <SCORE.INTRA.REPUL>
0

>  <SCORE.INTRA.REPUL.0>
0

>  <SCORE.INTRA.VDW>
0.138193

>  <SCORE.INTRA.VDW.0>
-2.2247

>  <SCORE.INTRA.norm>
0.0500146

>  <SCORE.RESTR>
0

>  <SCORE.RESTR.CAVITY>
0

>  <SCORE.RESTR.norm>
0

>  <SCORE.SYSTEM>
0.588835

>  <SCORE.SYSTEM.CONST>
0

>  <SCORE.SYSTEM.DIHEDRAL>
0.749696

>  <SCORE.SYSTEM.REPUL>
0.0521077

>  <SCORE.SYSTEM.VDW>
-0.0465513

>  <SCORE.SYSTEM.norm>
0.0267652

>  <SCORE.heavy>
22

>  <SCORE.norm>
-1.00393

>  <SMILES>
C/C(O)=N/[C@H]1[C@H](Oc2ccc(C)cc2)O[C@H](CO)[C@@H](O)[C@H]1O

>  <UniqueID>
202

$$$$
ZINC000003956714
  rDOCK(R)          3D
libRbt.so/2013.1/901 2013/11/27
 26 27  0  0  0  0  0  0  0  0999 V2000
   36.8271   -1.3628  -62.0064 C   0  0  0  0  0  0
   35.7855   -0.3170  -62.2350 C   0  0  0  0  0  0
   34.8052   -0.5686  -62.9872 O   0  0  0  0  0  0
   35.9170    0.9693  -61.6142 N   0  0  0  0  0  0
   34.9666    2.0653  -61.8507 C   0  0  0  0  0  0
   34.0132    2.2260  -60.6516 C   0  0  0  0  0  0
   33.3947    0.9748  -60.4085 O   0  0  0  0  0  0
   32.3743    1.0907  -59.4347 C   0  0  0  0  0  0
   31.5789   -0.1852  -59.3561 C   0  0  0  0  0  0
   32.1708   -1.4186  -59.6758 C   0  0  0  0  0  0
   31.4306   -2.6009  -59.5765 C   0  0  0  0  0  0
   30.0986   -2.5606  -59.1551 C   0  0  0  0  0  0
   29.5048   -1.3377  -58.8309 C   0  0  0  0  0  0
   30.2417   -0.1531  -58.9286 C   0  0  0  0  0  0
   34.7193    2.6283  -59.4844 O   0  0  0  0  0  0
   35.3607    3.8910  -59.6309 C   0  0  0  0  0  0
   34.3681    5.0742  -59.6518 C   0  0  0  0  0  0
   33.6794    5.1141  -60.8722 O   0  0  0  0  0  0
   36.3598    3.9148  -60.8123 C   0  0  0  0  0  0
   37.4763    3.1268  -60.4804 O   0  0  0  0  0  0
   35.6985    3.3946  -62.1056 C   0  0  0  0  0  0
   36.6513    3.2362  -63.1253 O   0  0  0  0  0  0
   36.7398    1.1318  -60.9899 H   0  0  0  0  0  0
   34.3125    5.4749  -61.5453 H   0  0  0  0  0  0
   38.2238    3.4176  -61.0653 H   0  0  0  0  0  0
   36.9001    4.1484  -63.4289 H   0  0  0  0  0  0
  1  2  1  0  0  0
  2  3  2  0  0  0
  2  4  1  0  0  0
  4  5  1  0  0  0
  4 23  1  0  0  0
  5  6  1  0  0  0
  6  7  1  0  0  0
  6 15  1  0  0  0
  7  8  1  0  0  0
  8  9  1  0  0  0
  9 10  2  0  0  0
 10 11  1  0  0  0
 11 12  2  0  0  0
 12 13  1  0  0  0
 13 14  2  0  0  0
 14  9  1  0  0  0
 15 16  1  0  0  0
 16 17  1  0  0  0
 16 19  1  0  0  0
 17 18  1  0  0  0
 18 24  1  0  0  0
 19 20  1  0  0  0
 19 21  1  0  0  0
 20 25  1  0  0  0
 21 22  1  0  0  0
 21  5  1  0  0  0
 22 26  1  0  0  0
M  END
>  <CHROM.0>
-74.34078940,-177.95340690,61.77149896

>  <CHROM.1>
103.46184546,-172.19936131,170.54974857,28.47634494,-73.62190316,-75.62354675
-159.18996429,163.99664161,34.09556528,1.33813711,-60.64156994,-0.61515846
-0.54034820,-2.89746333

>  <Energy>
45.26628241491866

>  <Genealogy>
CC(=O)N[C@H]1[C@@H](OCc2ccccc2)O[C@H](CO)[C@@H](O)[C@H]1O (3D coordinates assigned)
CC(=O)N[C@H]1[C@@H](OCc2ccccc2)O[C@H](CO)[C@@H](O)[C@H]1O (nonaromatic ring conformer: 45.26628241491866 kcal/mol)

>  <Name>
ZINC000003956714

>  <RI>
2.59779e+07

>  <Rbt.Current_Directory>
/home/edward/Documentos/Virtual_Screening/rDock/N-terminal/2

>  <Rbt.Executable>
rbdock ($Id: //depot/dev/client3/rdock/2013.1/src/exe/rbdock.cxx#4 $)

>  <Rbt.Library>
libRbt.so (2013.1, Build901 2013/11/27)

>  <Rbt.Parameter_File>
/home/edward/anaconda3/envs/MD/share/rdock-2013.1-1/data/scripts/dock.prm

>  <Rbt.Receptor>
parameters.prm

>  <SCORE>
-20.1537

>  <SCORE.INTER>
-17.9063

>  <SCORE.INTER.CONST>
1

>  <SCORE.INTER.POLAR>
-3.26595

>  <SCORE.INTER.REPUL>
0.325993

>  <SCORE.INTER.ROT>
5

>  <SCORE.INTER.VDW>
-18.8321

>  <SCORE.INTER.norm>
-0.813924

>  <SCORE.INTRA>
-2.67829

>  <SCORE.INTRA.DIHEDRAL>
-5.12382

>  <SCORE.INTRA.DIHEDRAL.0>
12.9793

>  <SCORE.INTRA.POLAR>
-0.37426

>  <SCORE.INTRA.POLAR.0>
0

>  <SCORE.INTRA.REPUL>
0

>  <SCORE.INTRA.REPUL.0>
0

>  <SCORE.INTRA.VDW>
1.1561

>  <SCORE.INTRA.VDW.0>
-3.41074

>  <SCORE.INTRA.norm>
-0.121741

>  <SCORE.RESTR>
0

>  <SCORE.RESTR.CAVITY>
0

>  <SCORE.RESTR.norm>
0

>  <SCORE.SYSTEM>
0.430939

>  <SCORE.SYSTEM.CONST>
0

>  <SCORE.SYSTEM.DIHEDRAL>
1.00421

>  <SCORE.SYSTEM.REPUL>
0.0551431

>  <SCORE.SYSTEM.VDW>
-0.346882

>  <SCORE.SYSTEM.norm>
0.0195881

>  <SCORE.heavy>
22

>  <SCORE.norm>
-0.916077

>  <SMILES>
CC(=O)N[C@H]1[C@@H](OCc2ccccc2)O[C@H](CO)[C@@H](O)[C@H]1O

>  <UniqueID>
204

$$$$
ZINC000004027857
  rDOCK(R)          3D
libRbt.so/2013.1/901 2013/11/27
 25 27  0  0  0  0  0  0  0  0999 V2000
   35.4802    1.3726  -65.6239 H   0  0  0  0  0  0
   35.7541    2.0587  -64.9354 O   0  0  0  0  0  0
   35.2827    2.0750  -63.6198 C   0  0  0  0  0  0
   34.5146    1.1402  -63.1358 N   0  0  0  0  0  0
   34.0556   -0.0770  -63.8120 C   0  0  0  0  0  0
   32.5313    0.0156  -64.0293 C   0  0  0  0  0  0
   31.8931    0.3506  -62.8205 O   0  0  0  0  0  0
   32.1127    1.3000  -62.6308 H   0  0  0  0  0  0
   32.0104   -1.3302  -64.5571 C   0  0  0  0  0  0
   30.5996   -1.3101  -64.6602 O   0  0  0  0  0  0
   30.0957   -2.5583  -65.1305 C   0  0  0  0  0  0
   30.3518   -2.7987  -66.6128 C   0  0  0  0  0  0
   31.1589   -3.8738  -67.0320 C   0  0  0  0  0  0
   31.4413   -4.0615  -68.3883 C   0  0  0  0  0  0
   30.9470   -3.1647  -69.3377 C   0  0  0  0  0  0
   30.1793   -2.0714  -68.9312 C   0  0  0  0  0  0
   29.8938   -1.8795  -67.5761 C   0  0  0  0  0  0
   30.4837   -3.6512  -64.3006 O   0  0  0  0  0  0
   31.8897   -3.7428  -64.1717 C   0  0  0  0  0  0
   32.4572   -2.4476  -63.6128 C   0  0  0  0  0  0
   33.8701   -2.5151  -63.5607 O   0  0  0  0  0  0
   34.3943   -1.3346  -62.9649 C   0  0  0  0  0  0
   35.7835   -1.4672  -62.8213 O   0  0  0  0  0  0
   35.9452   -2.2840  -62.2805 H   0  0  0  0  0  0
   35.6477    3.2274  -62.7458 C   0  0  0  0  0  0
  1  2  1  0  0  0
  2  3  1  0  0  0
  3  4  2  0  0  0
  3 25  1  0  0  0
  4  5  1  0  0  0
  5  6  1  0  0  0
  6  7  1  0  0  0
  6  9  1  0  0  0
  7  8  1  0  0  0
  9 10  1  0  0  0
 10 11  1  0  0  0
 11 12  1  0  0  0
 11 18  1  0  0  0
 12 13  2  0  0  0
 13 14  1  0  0  0
 14 15  2  0  0  0
 15 16  1  0  0  0
 16 17  2  0  0  0
 17 12  1  0  0  0
 18 19  1  0  0  0
 19 20  1  0  0  0
 20 21  1  0  0  0
 20  9  1  0  0  0
 21 22  1  0  0  0
 22 23  1  0  0  0
 22  5  1  0  0  0
 23 24  1  0  0  0
M  END
>  <CHROM.0>
-177.74583187,-59.95356467,-179.35269357

>  <CHROM.1>
5.10928288,-112.69341737,71.34251351,117.21786376,-179.64403030,32.58508684
-1.28494990,-64.84250764,-0.12283133,-0.91494652,-0.98108870

>  <Energy>
54.732051263083335

>  <Genealogy>
CC(O)=N[C@@H]1[C@H](O)[C@@H]2O[C@@H](c3ccccc3)OC[C@H]2O[C@H]1O (tautomer)
C/C(O)=N/[C@@H]1[C@H](O)[C@@H]2O[C@@H](c3ccccc3)OC[C@H]2O[C@H]1O (cis-trans isomerization)
C/C(O)=N/[C@@H]1[C@H](O)[C@@H]2O[C@@H](c3ccccc3)OC[C@H]2O[C@H]1O (3D coordinates assigned)
C/C(O)=N/[C@@H]1[C@H](O)[C@@H]2O[C@@H](c3ccccc3)OC[C@H]2O[C@H]1O (nonaromatic ring conformer: 54.732051263083335 kcal/mol)

>  <Name>
ZINC000004027857

>  <RI>
2.59779e+07

>  <Rbt.Current_Directory>
/home/edward/Documentos/Virtual_Screening/rDock/N-terminal/2

>  <Rbt.Executable>
rbdock ($Id: //depot/dev/client3/rdock/2013.1/src/exe/rbdock.cxx#4 $)

>  <Rbt.Library>
libRbt.so (2013.1, Build901 2013/11/27)

>  <Rbt.Parameter_File>
/home/edward/anaconda3/envs/MD/share/rdock-2013.1-1/data/scripts/dock.prm

>  <Rbt.Receptor>
parameters.prm

>  <SCORE>
-19.1523

>  <SCORE.INTER>
-16.915

>  <SCORE.INTER.CONST>
1

>  <SCORE.INTER.POLAR>
-2.49412

>  <SCORE.INTER.REPUL>
0

>  <SCORE.INTER.ROT>
2

>  <SCORE.INTER.VDW>
-15.835

>  <SCORE.INTER.norm>
-0.768863

>  <SCORE.INTRA>
-1.19391

>  <SCORE.INTRA.DIHEDRAL>
-3.88041

>  <SCORE.INTRA.DIHEDRAL.0>
5.57561

>  <SCORE.INTRA.POLAR>
0

>  <SCORE.INTRA.POLAR.0>
0

>  <SCORE.INTRA.REPUL>
0

>  <SCORE.INTRA.REPUL.0>
0

>  <SCORE.INTRA.VDW>
0.746292

>  <SCORE.INTRA.VDW.0>
-2.04599

>  <SCORE.INTRA.norm>
-0.0542687

>  <SCORE.RESTR>
0

>  <SCORE.RESTR.CAVITY>
0

>  <SCORE.RESTR.norm>
0

>  <SCORE.SYSTEM>
-1.04341

>  <SCORE.SYSTEM.CONST>
0

>  <SCORE.SYSTEM.DIHEDRAL>
0.0271241

>  <SCORE.SYSTEM.REPUL>
0.0338143

>  <SCORE.SYSTEM.VDW>
-1.22604

>  <SCORE.SYSTEM.norm>
-0.0474276

>  <SCORE.heavy>
22

>  <SCORE.norm>
-0.870559

>  <SMILES>
C/C(O)=N/[C@@H]1[C@H](O)[C@@H]2O[C@@H](c3ccccc3)OC[C@H]2O[C@H]1O

>  <UniqueID>
206

$$$$
ZINC000004027859
  rDOCK(R)          3D
libRbt.so/2013.1/901 2013/11/27
 25 27  0  0  0  0  0  0  0  0999 V2000
   38.2309    3.8294  -61.5011 H   0  0  0  0  0  0
   37.3751    4.1432  -61.0593 O   0  0  0  0  0  0
   36.1336    3.6244  -61.4183 C   0  0  0  0  0  0
   36.0920    2.7063  -62.3411 N   0  0  0  0  0  0
   34.8976    2.0213  -62.8470 C   0  0  0  0  0  0
   34.2615    1.1545  -61.7368 C   0  0  0  0  0  0
   35.2435    0.3400  -61.1438 O   0  0  0  0  0  0
   34.8085   -0.1346  -60.3881 H   0  0  0  0  0  0
   33.1471    0.2945  -62.3528 C   0  0  0  0  0  0
   32.6108   -0.5980  -61.3966 O   0  0  0  0  0  0
   31.5689   -1.3604  -61.9914 C   0  0  0  0  0  0
   30.9768   -2.2567  -60.9361 C   0  0  0  0  0  0
   29.6395   -2.6789  -61.0417 C   0  0  0  0  0  0
   29.0821   -3.5101  -60.0653 C   0  0  0  0  0  0
   29.8527   -3.9257  -58.9764 C   0  0  0  0  0  0
   31.1820   -3.5106  -58.8618 C   0  0  0  0  0  0
   31.7442   -2.6794  -59.8358 C   0  0  0  0  0  0
   32.0677   -2.1765  -63.0423 O   0  0  0  0  0  0
   32.5890   -1.3686  -64.0800 C   0  0  0  0  0  0
   33.7155   -0.4903  -63.5430 C   0  0  0  0  0  0
   34.1747    0.3985  -64.5443 O   0  0  0  0  0  0
   35.2889    1.1373  -64.0591 C   0  0  0  0  0  0
   35.7969    1.9402  -65.0923 O   0  0  0  0  0  0
   35.7565    1.4035  -65.9268 H   0  0  0  0  0  0
   34.8917    4.1547  -60.7537 C   0  0  0  0  0  0
  1  2  1  0  0  0
  2  3  1  0  0  0
  3  4  2  0  0  0
  3 25  1  0  0  0
  4  5  1  0  0  0
  5  6  1  0  0  0
  6  7  1  0  0  0
  6  9  1  0  0  0
  7  8  1  0  0  0
  9 10  1  0  0  0
 10 11  1  0  0  0
 11 12  1  0  0  0
 11 18  1  0  0  0
 12 13  2  0  0  0
 13 14  1  0  0  0
 14 15  2  0  0  0
 15 16  1  0  0  0
 16 17  2  0  0  0
 17 12  1  0  0  0
 18 19  1  0  0  0
 19 20  1  0  0  0
 20 21  1  0  0  0
 20  9  1  0  0  0
 21 22  1  0  0  0
 22 23  1  0  0  0
 22  5  1  0  0  0
 23 24  1  0  0  0
M  END
>  <CHROM.0>
-177.64460693,-60.80962454,179.94175465

>  <CHROM.1>
0.48113146,-65.59703092,175.01819673,152.96307049,-162.00768258,33.40499330
-0.02870751,-61.93099517,-0.10844160,0.84514882,1.37009337

>  <Energy>
48.699882878932875

>  <Genealogy>
CC(O)=N[C@@H]1[C@H](O)[C@@H]2O[C@H](c3ccccc3)OC[C@H]2O[C@H]1O (tautomer)
C/C(O)=N/[C@@H]1[C@H](O)[C@@H]2O[C@H](c3ccccc3)OC[C@H]2O[C@H]1O (cis-trans isomerization)
C/C(O)=N/[C@@H]1[C@H](O)[C@@H]2O[C@H](c3ccccc3)OC[C@H]2O[C@H]1O (3D coordinates assigned)
C/C(O)=N/[C@@H]1[C@H](O)[C@@H]2O[C@H](c3ccccc3)OC[C@H]2O[C@H]1O (nonaromatic ring conformer: 48.699882878932875 kcal/mol)

>  <Name>
ZINC000004027859

>  <RI>
2.59779e+07

>  <Rbt.Current_Directory>
/home/edward/Documentos/Virtual_Screening/rDock/N-terminal/2

>  <Rbt.Executable>
rbdock ($Id: //depot/dev/client3/rdock/2013.1/src/exe/rbdock.cxx#4 $)

>  <Rbt.Library>
libRbt.so (2013.1, Build901 2013/11/27)

>  <Rbt.Parameter_File>
/home/edward/anaconda3/envs/MD/share/rdock-2013.1-1/data/scripts/dock.prm

>  <Rbt.Receptor>
parameters.prm

>  <SCORE>
-19.8978

>  <SCORE.INTER>
-19.2704

>  <SCORE.INTER.CONST>
1

>  <SCORE.INTER.POLAR>
-2.82701

>  <SCORE.INTER.REPUL>
0.272174

>  <SCORE.INTER.ROT>
2

>  <SCORE.INTER.VDW>
-18.4194

>  <SCORE.INTER.norm>
-0.875926

>  <SCORE.INTRA>
0.420889

>  <SCORE.INTRA.DIHEDRAL>
0.176618

>  <SCORE.INTRA.DIHEDRAL.0>
4.51429

>  <SCORE.INTRA.POLAR>
0

>  <SCORE.INTRA.POLAR.0>
0

>  <SCORE.INTRA.REPUL>
0

>  <SCORE.INTRA.REPUL.0>
0

>  <SCORE.INTRA.VDW>
0.33258

>  <SCORE.INTRA.VDW.0>
-1.58074

>  <SCORE.INTRA.norm>
0.0191313

>  <SCORE.RESTR>
0

>  <SCORE.RESTR.CAVITY>
0

>  <SCORE.RESTR.norm>
0

>  <SCORE.SYSTEM>
-1.04829

>  <SCORE.SYSTEM.CONST>
0

>  <SCORE.SYSTEM.DIHEDRAL>
0.030594

>  <SCORE.SYSTEM.REPUL>
0.0335352

>  <SCORE.SYSTEM.VDW>
-1.23126

>  <SCORE.SYSTEM.norm>
-0.0476495

>  <SCORE.heavy>
22

>  <SCORE.norm>
-0.904444

>  <SMILES>
C/C(O)=N/[C@@H]1[C@H](O)[C@@H]2O[C@H](c3ccccc3)OC[C@H]2O[C@H]1O

>  <UniqueID>
208

$$$$
ZINC000012364260
  rDOCK(R)          3D
libRbt.so/2013.1/901 2013/11/27
 25 27  0  0  0  0  0  0  0  0999 V2000
   38.6422    3.1953  -60.4362 H   0  0  0  0  0  0
   37.8590    3.8273  -60.3182 O   0  0  0  0  0  0
   36.5813    3.4770  -60.7456 C   0  0  0  0  0  0
   36.4174    2.3639  -61.4039 N   0  0  0  0  0  0
   35.1534    1.8201  -61.9122 C   0  0  0  0  0  0
   35.2526    1.6073  -63.4434 C   0  0  0  0  0  0
   36.3711    0.8249  -63.7906 O   0  0  0  0  0  0
   36.3654    0.0270  -63.2000 H   0  0  0  0  0  0
   34.0632    1.0320  -63.9663 O   0  0  0  0  0  0
   33.8101   -0.2394  -63.3884 C   0  0  0  0  0  0
   32.5608   -0.8766  -64.0249 C   0  0  0  0  0  0
   31.6493   -1.3481  -63.0488 O   0  0  0  0  0  0
   32.3339   -2.1285  -62.0770 C   0  0  0  0  0  0
   31.3147   -2.7300  -61.1469 C   0  0  0  0  0  0
   31.5476   -2.7384  -59.7604 C   0  0  0  0  0  0
   30.6026   -3.2888  -58.8891 C   0  0  0  0  0  0
   29.4178   -3.8315  -59.3931 C   0  0  0  0  0  0
   29.1754   -3.8238  -60.7692 C   0  0  0  0  0  0
   30.1176   -3.2747  -61.6449 C   0  0  0  0  0  0
   33.2680   -1.3774  -61.3014 O   0  0  0  0  0  0
   33.5616   -0.1157  -61.8746 C   0  0  0  0  0  0
   34.7914    0.4989  -61.1967 C   0  0  0  0  0  0
   35.8653   -0.4083  -61.2468 O   0  0  0  0  0  0
   35.5580   -1.2453  -60.8103 H   0  0  0  0  0  0
   35.4478    4.4133  -60.4442 C   0  0  0  0  0  0
  1  2  1  0  0  0
  2  3  1  0  0  0
  3  4  2  0  0  0
  3 25  1  0  0  0
  4  5  1  0  0  0
  5  6  1  0  0  0
  6  7  1  0  0  0
  6  9  1  0  0  0
  7  8  1  0  0  0
  9 10  1  0  0  0
 10 11  1  0  0  0
 11 12  1  0  0  0
 12 13  1  0  0  0
 13 14  1  0  0  0
 13 20  1  0  0  0
 14 15  2  0  0  0
 15 16  1  0  0  0
 16 17  2  0  0  0
 17 18  1  0  0  0
 18 19  2  0  0  0
 19 14  1  0  0  0
 20 21  1  0  0  0
 21 22  1  0  0  0
 21 10  1  0  0  0
 22 23  1  0  0  0
 22  5  1  0  0  0
 23 24  1  0  0  0
M  END
>  <CHROM.0>
-177.79562844,-62.04654900,62.75138736

>  <CHROM.1>
-5.59414764,122.58762005,48.53791602,-136.81105463,-177.47441416,33.63347287
-0.20382067,-61.66678798,-0.04039256,0.78525672,1.48314894

>  <Energy>
58.24135269676571

>  <Genealogy>
CC(O)=N[C@H]1[C@@H](O)O[C@@H]2CO[C@H](c3ccccc3)O[C@H]2[C@H]1O (tautomer)
C/C(O)=N/[C@H]1[C@@H](O)O[C@@H]2CO[C@H](c3ccccc3)O[C@H]2[C@H]1O (cis-trans isomerization)
C/C(O)=N/[C@H]1[C@@H](O)O[C@@H]2CO[C@H](c3ccccc3)O[C@H]2[C@H]1O (3D coordinates assigned)
C/C(O)=N/[C@H]1[C@@H](O)O[C@@H]2CO[C@H](c3ccccc3)O[C@H]2[C@H]1O (nonaromatic ring conformer: 58.24135269676571 kcal/mol)

>  <Name>
ZINC000012364260

>  <RI>
2.59779e+07

>  <Rbt.Current_Directory>
/home/edward/Documentos/Virtual_Screening/rDock/N-terminal/2

>  <Rbt.Executable>
rbdock ($Id: //depot/dev/client3/rdock/2013.1/src/exe/rbdock.cxx#4 $)

>  <Rbt.Library>
libRbt.so (2013.1, Build901 2013/11/27)

>  <Rbt.Parameter_File>
/home/edward/anaconda3/envs/MD/share/rdock-2013.1-1/data/scripts/dock.prm

>  <Rbt.Receptor>
parameters.prm

>  <SCORE>
-21.2511

>  <SCORE.INTER>
-16.4632

>  <SCORE.INTER.CONST>
1

>  <SCORE.INTER.POLAR>
-1.54333

>  <SCORE.INTER.REPUL>
0

>  <SCORE.INTER.ROT>
2

>  <SCORE.INTER.VDW>
-18.6159

>  <SCORE.INTER.norm>
-0.748328

>  <SCORE.INTRA>
-3.66343

>  <SCORE.INTRA.DIHEDRAL>
-4.58463

>  <SCORE.INTRA.DIHEDRAL.0>
6.22279

>  <SCORE.INTRA.POLAR>
-0.788535

>  <SCORE.INTRA.POLAR.0>
0

>  <SCORE.INTRA.REPUL>
0

>  <SCORE.INTRA.REPUL.0>
0

>  <SCORE.INTRA.VDW>
1.30991

>  <SCORE.INTRA.VDW.0>
-1.92329

>  <SCORE.INTRA.norm>
-0.166519

>  <SCORE.RESTR>
0

>  <SCORE.RESTR.CAVITY>
0

>  <SCORE.RESTR.norm>
0

>  <SCORE.SYSTEM>
-1.12447

>  <SCORE.SYSTEM.CONST>
0

>  <SCORE.SYSTEM.DIHEDRAL>
0.0818944

>  <SCORE.SYSTEM.REPUL>
0.0339516

>  <SCORE.SYSTEM.VDW>
-1.33517

>  <SCORE.SYSTEM.norm>
-0.0511121

>  <SCORE.heavy>
22

>  <SCORE.norm>
-0.96596

>  <SMILES>
C/C(O)=N/[C@H]1[C@@H](O)O[C@@H]2CO[C@H](c3ccccc3)O[C@H]2[C@H]1O

>  <UniqueID>
210

$$$$
ZINC000013545464
  rDOCK(R)          3D
libRbt.so/2013.1/901 2013/11/27
 25 26  0  0  0  0  0  0  0  0999 V2000
   31.7034    1.2464  -63.4744 H   0  0  0  0  0  0
   31.5139    0.3027  -63.7895 O   0  0  0  0  0  0
   32.5148   -0.6683  -63.8034 C   0  0  0  0  0  0
   33.7043   -0.4001  -63.3562 N   0  0  0  0  0  0
   34.1129    0.8913  -62.8022 C   0  0  0  0  0  0
   34.6306    0.7129  -61.3551 C   0  0  0  0  0  0
   33.5847    0.1970  -60.5266 O   0  0  0  0  0  0
   32.4133    0.8696  -60.1349 C   0  0  0  0  0  0
   31.9420    2.0372  -60.7719 C   0  0  0  0  0  0
   30.7716    2.6592  -60.3255 C   0  0  0  0  0  0
   30.0575    2.1236  -59.2514 C   0  0  0  0  0  0
   30.5116    0.9627  -58.6219 C   0  0  0  0  0  0
   31.6821    0.3390  -59.0636 C   0  0  0  0  0  0
   35.0106    1.9716  -60.8262 O   0  0  0  0  0  0
   36.1310    2.4972  -61.5197 C   0  0  0  0  0  0
   36.5918    3.7762  -60.8058 C   0  0  0  0  0  0
   37.3051    3.4555  -59.6416 O   0  0  0  0  0  0
   38.1629    3.0495  -59.9331 H   0  0  0  0  0  0
   35.7474    2.7991  -62.9916 C   0  0  0  0  0  0
   36.8225    3.3451  -63.7179 O   0  0  0  0  0  0
   36.8391    4.3234  -63.5515 H   0  0  0  0  0  0
   35.2097    1.5278  -63.6784 C   0  0  0  0  0  0
   36.2474    0.5986  -63.8803 O   0  0  0  0  0  0
   35.8358   -0.2205  -64.2615 H   0  0  0  0  0  0
   32.2298   -2.0253  -64.3609 C   0  0  0  0  0  0
  1  2  1  0  0  0
  2  3  1  0  0  0
  3  4  2  0  0  0
  3 25  1  0  0  0
  4  5  1  0  0  0
  5  6  1  0  0  0
  6  7  1  0  0  0
  6 14  1  0  0  0
  7  8  1  0  0  0
  8  9  2  0  0  0
  9 10  1  0  0  0
 10 11  2  0  0  0
 11 12  1  0  0  0
 12 13  2  0  0  0
 13  8  1  0  0  0
 14 15  1  0  0  0
 15 16  1  0  0  0
 15 19  1  0  0  0
 16 17  1  0  0  0
 17 18  1  0  0  0
 19 20  1  0  0  0
 19 22  1  0  0  0
 20 21  1  0  0  0
 22 23  1  0  0  0
 22  5  1  0  0  0
 23 24  1  0  0  0
M  END
>  <CHROM.0>
-71.72641680,-178.53902176,179.15008455

>  <CHROM.1>
3.01270126,121.91667967,-68.55531993,16.36009158,77.01266623,69.20758095
-84.30176394,55.09574962,33.86283588,1.34938608,-61.73472883,3.07152507,0.43351459
1.02019929

>  <Energy>
39.02239722894072

>  <Genealogy>
CC(O)=N[C@H]1[C@H](Oc2ccccc2)O[C@H](CO)[C@@H](O)[C@H]1O (tautomer)
C/C(O)=N\[C@H]1[C@H](Oc2ccccc2)O[C@H](CO)[C@@H](O)[C@H]1O (cis-trans isomerization)
C/C(O)=N\[C@H]1[C@H](Oc2ccccc2)O[C@H](CO)[C@@H](O)[C@H]1O (3D coordinates assigned)
C/C(O)=N\[C@H]1[C@H](Oc2ccccc2)O[C@H](CO)[C@@H](O)[C@H]1O (nonaromatic ring conformer: 39.02239722894072 kcal/mol)

>  <Name>
ZINC000013545464

>  <RI>
2.59779e+07

>  <Rbt.Current_Directory>
/home/edward/Documentos/Virtual_Screening/rDock/N-terminal/2

>  <Rbt.Executable>
rbdock ($Id: //depot/dev/client3/rdock/2013.1/src/exe/rbdock.cxx#4 $)

>  <Rbt.Library>
libRbt.so (2013.1, Build901 2013/11/27)

>  <Rbt.Parameter_File>
/home/edward/anaconda3/envs/MD/share/rdock-2013.1-1/data/scripts/dock.prm

>  <Rbt.Receptor>
parameters.prm

>  <SCORE>
-23.9257

>  <SCORE.INTER>
-21.2059

>  <SCORE.INTER.CONST>
1

>  <SCORE.INTER.POLAR>
-4.96187

>  <SCORE.INTER.REPUL>
0.66457

>  <SCORE.INTER.ROT>
4

>  <SCORE.INTER.VDW>
-17.0584

>  <SCORE.INTER.norm>
-1.00981

>  <SCORE.INTRA>
-3.25225

>  <SCORE.INTRA.DIHEDRAL>
-5.4592

>  <SCORE.INTRA.DIHEDRAL.0>
10.3541

>  <SCORE.INTRA.POLAR>
-0.0926795

>  <SCORE.INTRA.POLAR.0>
0

>  <SCORE.INTRA.REPUL>
0

>  <SCORE.INTRA.REPUL.0>
0

>  <SCORE.INTRA.VDW>
-0.20754

>  <SCORE.INTRA.VDW.0>
-2.49086

>  <SCORE.INTRA.norm>
-0.154869

>  <SCORE.RESTR>
0

>  <SCORE.RESTR.CAVITY>
0

>  <SCORE.RESTR.norm>
0

>  <SCORE.SYSTEM>
0.532542

>  <SCORE.SYSTEM.CONST>
0

>  <SCORE.SYSTEM.DIHEDRAL>
0.671619

>  <SCORE.SYSTEM.REPUL>
0.056275

>  <SCORE.SYSTEM.VDW>
-0.0846426

>  <SCORE.SYSTEM.norm>
0.0253591

>  <SCORE.heavy>
21

>  <SCORE.norm>
-1.13932

>  <SMILES>
C/C(O)=N\[C@H]1[C@H](Oc2ccccc2)O[C@H](CO)[C@@H](O)[C@H]1O

>  <UniqueID>
211

$$$$
ZINC000015205814
  rDOCK(R)          3D
libRbt.so/2013.1/901 2013/11/27
 28 29  0  0  0  0  0  0  0  0999 V2000
   30.2301    0.3994  -63.0070 H   0  0  0  0  0  0
   31.2140    0.5748  -62.8544 O   0  0  0  0  0  0
   32.2331   -0.2005  -63.4144 C   0  0  0  0  0  0
   33.4931    0.0927  -63.2693 N   0  0  0  0  0  0
   34.0508    1.2362  -62.5457 C   0  0  0  0  0  0
   34.5641    0.7855  -61.1581 C   0  0  0  0  0  0
   33.4762    0.2753  -60.3812 O   0  0  0  0  0  0
   32.5321    1.0284  -59.6607 C   0  0  0  0  0  0
   32.2239    2.3702  -59.9595 C   0  0  0  0  0  0
   31.2823    3.0662  -59.1956 C   0  0  0  0  0  0
   30.6226    2.4375  -58.1266 C   0  0  0  0  0  0
   29.6551    3.1586  -57.3419 N   0  3  0  0  0  0
   29.0652    2.6041  -56.3914 O   0  0  0  0  0  0
   29.3649    4.4737  -57.6254 O   0  5  0  0  0  0
   30.9232    1.0945  -57.8396 C   0  0  0  0  0  0
   31.8664    0.4007  -58.6023 C   0  0  0  0  0  0
   35.0960    1.9005  -60.4645 O   0  0  0  0  0  0
   36.2602    2.3936  -61.1078 C   0  0  0  0  0  0
   36.8721    3.4771  -60.2088 C   0  0  0  0  0  0
   38.1290    3.8639  -60.6924 O   0  0  0  0  0  0
   38.7551    3.1342  -60.4466 H   0  0  0  0  0  0
   35.8962    2.9562  -62.5037 C   0  0  0  0  0  0
   37.0505    3.4148  -63.1601 O   0  0  0  0  0  0
   36.7651    4.1562  -63.7555 H   0  0  0  0  0  0
   35.2077    1.8644  -63.3471 C   0  0  0  0  0  0
   36.1331    0.8650  -63.7020 O   0  0  0  0  0  0
   35.6186    0.1288  -64.1251 H   0  0  0  0  0  0
   31.8661   -1.4149  -64.1984 C   0  0  0  0  0  0
  1  2  1  0  0  0
  2  3  1  0  0  0
  3  4  2  0  0  0
  3 28  1  0  0  0
  4  5  1  0  0  0
  5  6  1  0  0  0
  6  7  1  0  0  0
  6 17  1  0  0  0
  7  8  1  0  0  0
  8  9  2  0  0  0
  9 10  1  0  0  0
 10 11  2  0  0  0
 11 12  1  0  0  0
 11 15  1  0  0  0
 12 13  2  0  0  0
 12 14  1  0  0  0
 15 16  2  0  0  0
 16  8  1  0  0  0
 17 18  1  0  0  0
 18 19  1  0  0  0
 18 22  1  0  0  0
 19 20  1  0  0  0
 20 21  1  0  0  0
 22 23  1  0  0  0
 22 25  1  0  0  0
 23 24  1  0  0  0
 25 26  1  0  0  0
 25  5  1  0  0  0
 26 27  1  0  0  0
M  END
>  <CHROM.0>
-176.17891082,-59.27697020,-177.84509263

>  <CHROM.1>
175.75181005,101.52937676,-80.72607941,23.23954328,171.28313147,-75.87165244
-150.23334212,50.91369432,33.35206088,1.80589277,-60.77795374,2.55913625
0.37710786,0.94191670

>  <Energy>
42.86369644860873

>  <Genealogy>
CC(O)=N[C@H]1[C@H](Oc2ccc([N+](=O)[O-])cc2)O[C@H](CO)[C@@H](O)[C@H]1O (tautomer)
C/C(O)=N/[C@H]1[C@H](Oc2ccc([N+](=O)[O-])cc2)O[C@H](CO)[C@@H](O)[C@H]1O (cis-trans isomerization)
C/C(O)=N/[C@H]1[C@H](Oc2ccc([N+](=O)[O-])cc2)O[C@H](CO)[C@@H](O)[C@H]1O (3D coordinates assigned)
C/C(O)=N/[C@H]1[C@H](Oc2ccc([N+](=O)[O-])cc2)O[C@H](CO)[C@@H](O)[C@H]1O (nonaromatic ring conformer: 42.86369644860873 kcal/mol)

>  <Name>
ZINC000015205814

>  <RI>
2.59779e+07

>  <Rbt.Current_Directory>
/home/edward/Documentos/Virtual_Screening/rDock/N-terminal/2

>  <Rbt.Executable>
rbdock ($Id: //depot/dev/client3/rdock/2013.1/src/exe/rbdock.cxx#4 $)

>  <Rbt.Library>
libRbt.so (2013.1, Build901 2013/11/27)

>  <Rbt.Parameter_File>
/home/edward/anaconda3/envs/MD/share/rdock-2013.1-1/data/scripts/dock.prm

>  <Rbt.Receptor>
parameters.prm

>  <SCORE>
-21.8095

>  <SCORE.INTER>
-20.9459

>  <SCORE.INTER.CONST>
1

>  <SCORE.INTER.POLAR>
-3.70746

>  <SCORE.INTER.REPUL>
0.177529

>  <SCORE.INTER.ROT>
4

>  <SCORE.INTER.VDW>
-18.6282

>  <SCORE.INTER.norm>
-0.872748

>  <SCORE.INTRA>
0.160672

>  <SCORE.INTRA.DIHEDRAL>
0.526711

>  <SCORE.INTRA.DIHEDRAL.0>
8.1983

>  <SCORE.INTRA.POLAR>
-0.139679

>  <SCORE.INTRA.POLAR.0>
0

>  <SCORE.INTRA.REPUL>
0

>  <SCORE.INTRA.REPUL.0>
0

>  <SCORE.INTRA.VDW>
0.372226

>  <SCORE.INTRA.VDW.0>
-2.81115

>  <SCORE.INTRA.norm>
0.00669467

>  <SCORE.RESTR>
0

>  <SCORE.RESTR.CAVITY>
0

>  <SCORE.RESTR.norm>
0

>  <SCORE.SYSTEM>
-1.02422

>  <SCORE.SYSTEM.CONST>
0

>  <SCORE.SYSTEM.DIHEDRAL>
0.0972822

>  <SCORE.SYSTEM.REPUL>
0.0294696

>  <SCORE.SYSTEM.VDW>
-1.22021

>  <SCORE.SYSTEM.norm>
-0.0426759

>  <SCORE.heavy>
24

>  <SCORE.norm>
-0.908729

>  <SMILES>
C/C(O)=N/[C@H]1[C@H](Oc2ccc([N+](=O)[O-])cc2)O[C@H](CO)[C@@H](O)[C@H]1O

>  <UniqueID>
214

$$$$
ZINC000015205840
  rDOCK(R)          3D
libRbt.so/2013.1/901 2013/11/27
 28 29  0  0  0  0  0  0  0  0999 V2000
   31.2240   -1.3851  -65.3283 H   0  0  0  0  0  0
   31.9688   -0.9169  -64.8264 O   0  0  0  0  0  0
   33.0935   -1.6164  -64.3897 C   0  0  0  0  0  0
   34.0322   -1.0151  -63.7205 N   0  0  0  0  0  0
   34.0192    0.4041  -63.3566 C   0  0  0  0  0  0
   33.9960    0.5987  -61.8197 C   0  0  0  0  0  0
   32.8116    0.0196  -61.2645 O   0  0  0  0  0  0
   32.2861    0.2210  -59.9733 C   0  0  0  0  0  0
   32.1999    1.5046  -59.3897 C   0  0  0  0  0  0
   31.7066    1.6654  -58.0950 C   0  0  0  0  0  0
   31.2893    0.5579  -57.3627 C   0  0  0  0  0  0
   31.3590   -0.7167  -57.9233 C   0  0  0  0  0  0
   31.8480   -0.9041  -59.2310 C   0  0  0  0  0  0
   31.9070   -2.2367  -59.7829 N   0  3  0  0  0  0
   31.7714   -3.2326  -59.0419 O   0  0  0  0  0  0
   32.0526   -2.4428  -61.1354 O   0  5  0  0  0  0
   33.9698    1.9843  -61.5243 O   0  0  0  0  0  0
   35.1780    2.6122  -61.9247 C   0  0  0  0  0  0
   35.1531    4.0652  -61.4367 C   0  0  0  0  0  0
   36.4025    4.6584  -61.6594 O   0  0  0  0  0  0
   37.0445    4.1759  -61.0763 H   0  0  0  0  0  0
   35.3283    2.5538  -63.4628 C   0  0  0  0  0  0
   36.5458    3.1385  -63.8498 O   0  0  0  0  0  0
   36.5083    4.0894  -63.5667 H   0  0  0  0  0  0
   35.2643    1.0892  -63.9427 C   0  0  0  0  0  0
   36.4212    0.3924  -63.5466 O   0  0  0  0  0  0
   36.3455   -0.5273  -63.9125 H   0  0  0  0  0  0
   33.2112   -3.0784  -64.6754 C   0  0  0  0  0  0
  1  2  1  0  0  0
  2  3  1  0  0  0
  3  4  2  0  0  0
  3 28  1  0  0  0
  4  5  1  0  0  0
  5  6  1  0  0  0
  6  7  1  0  0  0
  6 17  1  0  0  0
  7  8  1  0  0  0
  8  9  2  0  0  0
  9 10  1  0  0  0
 10 11  2  0  0  0
 11 12  1  0  0  0
 12 13  2  0  0  0
 13 14  1  0  0  0
 13  8  1  0  0  0
 14 15  2  0  0  0
 14 16  1  0  0  0
 17 18  1  0  0  0
 18 19  1  0  0  0
 18 22  1  0  0  0
 19 20  1  0  0  0
 20 21  1  0  0  0
 22 23  1  0  0  0
 22 25  1  0  0  0
 23 24  1  0  0  0
 25 26  1  0  0  0
 25  5  1  0  0  0
 26 27  1  0  0  0
M  END
>  <CHROM.0>
-73.31348189,-59.36828191,62.13442242

>  <CHROM.1>
-178.47913313,117.10160306,-165.73109115,44.60306343,172.16339765,-65.32916173
-62.04830511,61.26436852,33.55804062,0.39520298,-61.63885471,3.08014057,0.92759895
0.86918070

>  <Energy>
43.27467861961955

>  <Genealogy>
CC(O)=N[C@H]1[C@H](Oc2ccccc2[N+](=O)[O-])O[C@H](CO)[C@@H](O)[C@H]1O (tautomer)
C/C(O)=N/[C@H]1[C@H](Oc2ccccc2[N+](=O)[O-])O[C@H](CO)[C@@H](O)[C@H]1O (cis-trans isomerization)
C/C(O)=N/[C@H]1[C@H](Oc2ccccc2[N+](=O)[O-])O[C@H](CO)[C@@H](O)[C@H]1O (3D coordinates assigned)
C/C(O)=N/[C@H]1[C@H](Oc2ccccc2[N+](=O)[O-])O[C@H](CO)[C@@H](O)[C@H]1O (nonaromatic ring conformer: 43.27467861961955 kcal/mol)

>  <Name>
ZINC000015205840

>  <RI>
2.59779e+07

>  <Rbt.Current_Directory>
/home/edward/Documentos/Virtual_Screening/rDock/N-terminal/2

>  <Rbt.Executable>
rbdock ($Id: //depot/dev/client3/rdock/2013.1/src/exe/rbdock.cxx#4 $)

>  <Rbt.Library>
libRbt.so (2013.1, Build901 2013/11/27)

>  <Rbt.Parameter_File>
/home/edward/anaconda3/envs/MD/share/rdock-2013.1-1/data/scripts/dock.prm

>  <Rbt.Receptor>
parameters.prm

>  <SCORE>
-21.2556

>  <SCORE.INTER>
-19.7523

>  <SCORE.INTER.CONST>
1

>  <SCORE.INTER.POLAR>
-3.0093

>  <SCORE.INTER.REPUL>
0.038215

>  <SCORE.INTER.ROT>
4

>  <SCORE.INTER.VDW>
-19.1117

>  <SCORE.INTER.norm>
-0.823011

>  <SCORE.INTRA>
-1.35532

>  <SCORE.INTRA.DIHEDRAL>
-4.26055

>  <SCORE.INTRA.DIHEDRAL.0>
8.05408

>  <SCORE.INTRA.POLAR>
-0.381351

>  <SCORE.INTRA.POLAR.0>
0

>  <SCORE.INTRA.REPUL>
0

>  <SCORE.INTRA.REPUL.0>
0

>  <SCORE.INTRA.VDW>
2.07155

>  <SCORE.INTRA.VDW.0>
-3.754

>  <SCORE.INTRA.norm>
-0.0564717

>  <SCORE.RESTR>
0

>  <SCORE.RESTR.CAVITY>
0

>  <SCORE.RESTR.norm>
0

>  <SCORE.SYSTEM>
-0.148025

>  <SCORE.SYSTEM.CONST>
0

>  <SCORE.SYSTEM.DIHEDRAL>
0.864264

>  <SCORE.SYSTEM.VDW>
-0.580157

>  <SCORE.SYSTEM.norm>
-0.00616773

>  <SCORE.heavy>
24

>  <SCORE.norm>
-0.885651

>  <SMILES>
C/C(O)=N/[C@H]1[C@H](Oc2ccccc2[N+](=O)[O-])O[C@H](CO)[C@@H](O)[C@H]1O

>  <UniqueID>
215

$$$$
ZINC000015205946
  rDOCK(R)          3D
libRbt.so/2013.1/901 2013/11/27
 28 29  0  0  0  0  0  0  0  0999 V2000
   31.2301   -1.4296  -65.1659 H   0  0  0  0  0  0
   31.8989   -0.8472  -64.6811 O   0  0  0  0  0  0
   33.0453   -1.3446  -64.0560 C   0  0  0  0  0  0
   33.9344   -0.5666  -63.5086 N   0  0  0  0  0  0
   33.8970    0.8989  -63.4480 C   0  0  0  0  0  0
   35.1997    1.5169  -64.0315 C   0  0  0  0  0  0
   36.2930    0.6467  -63.8573 O   0  0  0  0  0  0
   36.0206   -0.2403  -64.2102 H   0  0  0  0  0  0
   35.5063    2.8494  -63.3303 C   0  0  0  0  0  0
   36.6881    3.4122  -63.8408 O   0  0  0  0  0  0
   36.7079    4.3586  -63.5410 H   0  0  0  0  0  0
   35.6553    2.6108  -61.8000 C   0  0  0  0  0  0
   35.3489    3.8801  -60.9927 C   0  0  0  0  0  0
   34.0522    4.3234  -61.2828 O   0  0  0  0  0  0
   34.1361    4.9265  -62.0664 H   0  0  0  0  0  0
   34.8981    1.5056  -61.3095 O   0  0  0  0  0  0
   33.6608    1.3605  -61.9820 C   0  0  0  0  0  0
   32.8738    0.4037  -61.2666 O   0  0  0  0  0  0
   32.3490    0.5619  -59.9710 C   0  0  0  0  0  0
   32.2163    1.8350  -59.3782 C   0  0  0  0  0  0
   31.7079    1.9674  -58.0859 C   0  0  0  0  0  0
   31.3299    0.8381  -57.3644 C   0  0  0  0  0  0
   31.4563   -0.4295  -57.9325 C   0  0  0  0  0  0
   31.9597   -0.5874  -59.2376 C   0  0  0  0  0  0
   32.0596   -1.9132  -59.7994 N   0  3  0  0  0  0
   32.2414   -2.0857  -61.0222 O   0  0  0  0  0  0
   31.8941   -3.0201  -58.9985 O   0  5  0  0  0  0
   33.2620   -2.8196  -64.0193 C   0  0  0  0  0  0
  1  2  1  0  0  0
  2  3  1  0  0  0
  3  4  2  0  0  0
  3 28  1  0  0  0
  4  5  1  0  0  0
  5  6  1  0  0  0
  6  7  1  0  0  0
  6  9  1  0  0  0
  7  8  1  0  0  0
  9 10  1  0  0  0
  9 12  1  0  0  0
 10 11  1  0  0  0
 12 13  1  0  0  0
 12 16  1  0  0  0
 13 14  1  0  0  0
 14 15  1  0  0  0
 16 17  1  0  0  0
 17 18  1  0  0  0
 17  5  1  0  0  0
 18 19  1  0  0  0
 19 20  2  0  0  0
 20 21  1  0  0  0
 21 22  2  0  0  0
 22 23  1  0  0  0
 23 24  2  0  0  0
 24 25  1  0  0  0
 24 19  1  0  0  0
 25 26  2  0  0  0
 25 27  1  0  0  0
M  END
>  <CHROM.0>
-174.20945385,-57.76689794,-179.47652021

>  <CHROM.1>
175.67479628,-125.68635707,51.33969526,165.21318813,57.77165246,-88.52458306
-172.65620787,18.77768347,33.52543341,0.62226530,-61.55084801,3.02608933
0.94961762,0.80275454

>  <Energy>
52.68764705537755

>  <Genealogy>
CC(O)=N[C@@H]1[C@H](O)[C@H](O)[C@@H](CO)O[C@@H]1Oc1ccccc1[N+](=O)[O-] (tautomer)
C/C(O)=N\[C@@H]1[C@H](O)[C@H](O)[C@@H](CO)O[C@@H]1Oc1ccccc1[N+](=O)[O-] (cis-trans isomerization)
C/C(O)=N\[C@@H]1[C@H](O)[C@H](O)[C@@H](CO)O[C@@H]1Oc1ccccc1[N+](=O)[O-] (3D coordinates assigned)
C/C(O)=N\[C@@H]1[C@H](O)[C@H](O)[C@@H](CO)O[C@@H]1Oc1ccccc1[N+](=O)[O-] (nonaromatic ring conformer: 52.68764705537755 kcal/mol)

>  <Name>
ZINC000015205946

>  <RI>
2.59779e+07

>  <Rbt.Current_Directory>
/home/edward/Documentos/Virtual_Screening/rDock/N-terminal/2

>  <Rbt.Executable>
rbdock ($Id: //depot/dev/client3/rdock/2013.1/src/exe/rbdock.cxx#4 $)

>  <Rbt.Library>
libRbt.so (2013.1, Build901 2013/11/27)

>  <Rbt.Parameter_File>
/home/edward/anaconda3/envs/MD/share/rdock-2013.1-1/data/scripts/dock.prm

>  <Rbt.Receptor>
parameters.prm

>  <SCORE>
-21.5127

>  <SCORE.INTER>
-19.378

>  <SCORE.INTER.CONST>
1

>  <SCORE.INTER.POLAR>
-4.03117

>  <SCORE.INTER.REPUL>
0.837507

>  <SCORE.INTER.ROT>
4

>  <SCORE.INTER.VDW>
-19.2595

>  <SCORE.INTER.norm>
-0.807415

>  <SCORE.INTRA>
-1.13572

>  <SCORE.INTRA.DIHEDRAL>
-1.58866

>  <SCORE.INTRA.DIHEDRAL.0>
7.45588

>  <SCORE.INTRA.POLAR>
-0.110379

>  <SCORE.INTRA.POLAR.0>
0

>  <SCORE.INTRA.REPUL>
0

>  <SCORE.INTRA.REPUL.0>
0

>  <SCORE.INTRA.VDW>
0.0338978

>  <SCORE.INTRA.VDW.0>
-3.15367

>  <SCORE.INTRA.norm>
-0.0473217

>  <SCORE.RESTR>
0

>  <SCORE.RESTR.CAVITY>
0

>  <SCORE.RESTR.norm>
0

>  <SCORE.SYSTEM>
-0.999069

>  <SCORE.SYSTEM.CONST>
0

>  <SCORE.SYSTEM.DIHEDRAL>
0.190135

>  <SCORE.SYSTEM.REPUL>
0.02394

>  <SCORE.SYSTEM.VDW>
-1.21384

>  <SCORE.SYSTEM.norm>
-0.0416279

>  <SCORE.heavy>
24

>  <SCORE.norm>
-0.896364

>  <SMILES>
C/C(O)=N\[C@@H]1[C@H](O)[C@H](O)[C@@H](CO)O[C@@H]1Oc1ccccc1[N+](=O)[O-]

>  <UniqueID>
218

$$$$
ZINC000015205949
  rDOCK(R)          3D
libRbt.so/2013.1/901 2013/11/27
 28 29  0  0  0  0  0  0  0  0999 V2000
   35.7181    3.7932  -64.1206 H   0  0  0  0  0  0
   35.8672    2.7948  -64.1694 O   0  0  0  0  0  0
   35.5206    1.9044  -63.1487 C   0  0  0  0  0  0
   35.0039    2.2975  -62.0189 N   0  0  0  0  0  0
   34.6663    3.6698  -61.6249 C   0  0  0  0  0  0
   35.9088    4.3758  -61.0574 C   0  0  0  0  0  0
   36.9849    4.2387  -61.9504 O   0  0  0  0  0  0
   36.6853    4.6131  -62.8199 H   0  0  0  0  0  0
   36.2878    3.8374  -59.6607 C   0  0  0  0  0  0
   36.9740    2.6108  -59.7604 O   0  0  0  0  0  0
   36.4550    2.0056  -60.3501 H   0  0  0  0  0  0
   35.0459    3.7189  -58.7343 C   0  0  0  0  0  0
   34.6179    5.0666  -58.1095 C   0  0  0  0  0  0
   33.5152    4.8898  -57.2604 O   0  0  0  0  0  0
   33.7646    4.1810  -56.6114 H   0  0  0  0  0  0
   33.9633    3.0452  -59.3658 O   0  0  0  0  0  0
   33.5447    3.6798  -60.5656 C   0  0  0  0  0  0
   32.4091    2.9867  -61.0808 O   0  0  0  0  0  0
   32.2022    1.6011  -61.0059 C   0  0  0  0  0  0
   32.2042    0.8977  -59.7876 C   0  0  0  0  0  0
   31.9936   -0.4842  -59.7699 C   0  0  0  0  0  0
   31.7758   -1.1894  -60.9661 C   0  0  0  0  0  0
   31.5610   -2.6124  -60.9442 N   0  3  0  0  0  0
   31.3662   -3.2437  -62.0038 O   0  0  0  0  0  0
   31.5678   -3.3024  -59.7536 O   0  5  0  0  0  0
   31.7715   -0.4807  -62.1809 C   0  0  0  0  0  0
   31.9823    0.9009  -62.1962 C   0  0  0  0  0  0
   35.7694    0.4485  -63.3547 C   0  0  0  0  0  0
  1  2  1  0  0  0
  2  3  1  0  0  0
  3  4  2  0  0  0
  3 28  1  0  0  0
  4  5  1  0  0  0
  5  6  1  0  0  0
  6  7  1  0  0  0
  6  9  1  0  0  0
  7  8  1  0  0  0
  9 10  1  0  0  0
  9 12  1  0  0  0
 10 11  1  0  0  0
 12 13  1  0  0  0
 12 16  1  0  0  0
 13 14  1  0  0  0
 14 15  1  0  0  0
 16 17  1  0  0  0
 17 18  1  0  0  0
 17  5  1  0  0  0
 18 19  1  0  0  0
 19 20  2  0  0  0
 20 21  1  0  0  0
 21 22  2  0  0  0
 22 23  1  0  0  0
 22 26  1  0  0  0
 23 24  2  0  0  0
 23 25  1  0  0  0
 26 27  2  0  0  0
 27 19  1  0  0  0
M  END
>  <CHROM.0>
72.04554110,-60.59961377,-64.70101728

>  <CHROM.1>
-2.00885700,-84.64852207,56.89162828,-50.05836174,-178.56022540,53.80190200
86.14748341,56.11778427,33.90763263,1.75901401,-60.84422551,-0.69408893,-0.79792993
-2.28873461

>  <Energy>
47.80486310630416

>  <Genealogy>
CC(O)=N[C@@H]1[C@H](O)[C@H](O)[C@@H](CO)O[C@@H]1Oc1ccc([N+](=O)[O-])cc1 (tautomer)
C/C(O)=N\[C@@H]1[C@H](O)[C@H](O)[C@@H](CO)O[C@@H]1Oc1ccc([N+](=O)[O-])cc1 (cis-trans isomerization)
C/C(O)=N\[C@@H]1[C@H](O)[C@H](O)[C@@H](CO)O[C@@H]1Oc1ccc([N+](=O)[O-])cc1 (3D coordinates assigned)
C/C(O)=N\[C@@H]1[C@H](O)[C@H](O)[C@@H](CO)O[C@@H]1Oc1ccc([N+](=O)[O-])cc1 (nonaromatic ring conformer: 47.80486310630416 kcal/mol)

>  <Name>
ZINC000015205949

>  <RI>
2.59779e+07

>  <Rbt.Current_Directory>
/home/edward/Documentos/Virtual_Screening/rDock/N-terminal/2

>  <Rbt.Executable>
rbdock ($Id: //depot/dev/client3/rdock/2013.1/src/exe/rbdock.cxx#4 $)

>  <Rbt.Library>
libRbt.so (2013.1, Build901 2013/11/27)

>  <Rbt.Parameter_File>
/home/edward/anaconda3/envs/MD/share/rdock-2013.1-1/data/scripts/dock.prm

>  <Rbt.Receptor>
parameters.prm

>  <SCORE>
-21.303

>  <SCORE.INTER>
-20.582

>  <SCORE.INTER.CONST>
1

>  <SCORE.INTER.POLAR>
-3.97668

>  <SCORE.INTER.REPUL>
0.0757342

>  <SCORE.INTER.ROT>
4

>  <SCORE.INTER.VDW>
-16.84

>  <SCORE.INTER.norm>
-0.857585

>  <SCORE.INTRA>
-0.779858

>  <SCORE.INTRA.DIHEDRAL>
2.13982

>  <SCORE.INTRA.DIHEDRAL.0>
6.62605

>  <SCORE.INTRA.POLAR>
-0.581912

>  <SCORE.INTRA.POLAR.0>
-0.00667425

>  <SCORE.INTRA.REPUL>
0

>  <SCORE.INTRA.REPUL.0>
0

>  <SCORE.INTRA.VDW>
0.128736

>  <SCORE.INTRA.VDW.0>
-2.6819

>  <SCORE.INTRA.norm>
-0.0324941

>  <SCORE.RESTR>
0

>  <SCORE.RESTR.CAVITY>
0

>  <SCORE.RESTR.norm>
0

>  <SCORE.SYSTEM>
0.0589013

>  <SCORE.SYSTEM.CONST>
0

>  <SCORE.SYSTEM.DIHEDRAL>
0.802874

>  <SCORE.SYSTEM.POLAR>
-0.0194786

>  <SCORE.SYSTEM.REPUL>
0.00553807

>  <SCORE.SYSTEM.VDW>
-0.303999

>  <SCORE.SYSTEM.norm>
0.00245422

>  <SCORE.heavy>
24

>  <SCORE.norm>
-0.887625

>  <SMILES>
C/C(O)=N\[C@@H]1[C@H](O)[C@H](O)[C@@H](CO)O[C@@H]1Oc1ccc([N+](=O)[O-])cc1

>  <UniqueID>
220

$$$$
ZINC000015205956
  rDOCK(R)          3D
libRbt.so/2013.1/901 2013/11/27
 25 26  0  0  0  0  0  0  0  0999 V2000
   37.1332   -1.0827  -61.0906 H   0  0  0  0  0  0
   36.5162   -1.2286  -61.8811 O   0  0  0  0  0  0
   35.5722   -0.2718  -62.2428 C   0  0  0  0  0  0
   35.6224    0.9073  -61.6897 N   0  0  0  0  0  0
   34.7278    2.0429  -61.9503 C   0  0  0  0  0  0
   35.5322    3.3041  -62.3091 C   0  0  0  0  0  0
   36.4159    3.0274  -63.3652 O   0  0  0  0  0  0
   36.7307    3.9025  -63.7129 H   0  0  0  0  0  0
   36.3045    3.8328  -61.0854 C   0  0  0  0  0  0
   37.3851    2.9774  -60.8073 O   0  0  0  0  0  0
   37.0187    2.0560  -60.7548 H   0  0  0  0  0  0
   35.3811    3.9266  -59.8435 C   0  0  0  0  0  0
   34.4378    5.1510  -59.8586 C   0  0  0  0  0  0
   33.5877    5.1032  -60.9742 O   0  0  0  0  0  0
   34.1005    5.4601  -61.7453 H   0  0  0  0  0  0
   34.6847    2.7093  -59.6030 O   0  0  0  0  0  0
   33.8711    2.3153  -60.6970 C   0  0  0  0  0  0
   33.1809    1.1215  -60.3192 O   0  0  0  0  0  0
   32.1686    1.0245  -59.3495 C   0  0  0  0  0  0
   31.4897   -0.1950  -59.2271 C   0  0  0  0  0  0
   30.4691   -0.3490  -58.2841 C   0  0  0  0  0  0
   30.1210    0.7159  -57.4502 C   0  0  0  0  0  0
   30.7955    1.9345  -57.5563 C   0  0  0  0  0  0
   31.8174    2.0924  -58.4981 C   0  0  0  0  0  0
   34.5181   -0.6522  -63.2404 C   0  0  0  0  0  0
  1  2  1  0  0  0
  2  3  1  0  0  0
  3  4  2  0  0  0
  3 25  1  0  0  0
  4  5  1  0  0  0
  5  6  1  0  0  0
  6  7  1  0  0  0
  6  9  1  0  0  0
  7  8  1  0  0  0
  9 10  1  0  0  0
  9 12  1  0  0  0
 10 11  1  0  0  0
 12 13  1  0  0  0
 12 16  1  0  0  0
 13 14  1  0  0  0
 14 15  1  0  0  0
 16 17  1  0  0  0
 17 18  1  0  0  0
 17  5  1  0  0  0
 18 19  1  0  0  0
 19 20  2  0  0  0
 20 21  1  0  0  0
 21 22  2  0  0  0
 22 23  1  0  0  0
 23 24  2  0  0  0
 24 19  1  0  0  0
M  END
>  <CHROM.0>
72.80838688,-59.97179912,-178.56188824

>  <CHROM.1>
10.66667913,-126.91187629,165.58191896,-51.71773159,60.69330093,-81.95603492
-170.44371787,172.24262762,34.14586937,1.91520714,-60.56421214,-0.07288783
-0.65614448,-2.88359800

>  <Energy>
44.29462639315299

>  <Genealogy>
CC(O)=N[C@@H]1[C@H](O)[C@H](O)[C@@H](CO)O[C@@H]1Oc1ccccc1 (tautomer)
C/C(O)=N\[C@@H]1[C@H](O)[C@H](O)[C@@H](CO)O[C@@H]1Oc1ccccc1 (cis-trans isomerization)
C/C(O)=N\[C@@H]1[C@H](O)[C@H](O)[C@@H](CO)O[C@@H]1Oc1ccccc1 (3D coordinates assigned)
C/C(O)=N\[C@@H]1[C@H](O)[C@H](O)[C@@H](CO)O[C@@H]1Oc1ccccc1 (nonaromatic ring conformer: 44.29462639315299 kcal/mol)

>  <Name>
ZINC000015205956

>  <RI>
2.59779e+07

>  <Rbt.Current_Directory>
/home/edward/Documentos/Virtual_Screening/rDock/N-terminal/2

>  <Rbt.Executable>
rbdock ($Id: //depot/dev/client3/rdock/2013.1/src/exe/rbdock.cxx#4 $)

>  <Rbt.Library>
libRbt.so (2013.1, Build901 2013/11/27)

>  <Rbt.Parameter_File>
/home/edward/anaconda3/envs/MD/share/rdock-2013.1-1/data/scripts/dock.prm

>  <Rbt.Receptor>
parameters.prm

>  <SCORE>
-21.1081

>  <SCORE.INTER>
-17.2799

>  <SCORE.INTER.CONST>
1

>  <SCORE.INTER.POLAR>
-3.45492

>  <SCORE.INTER.REPUL>
0.559726

>  <SCORE.INTER.ROT>
4

>  <SCORE.INTER.VDW>
-17.7318

>  <SCORE.INTER.norm>
-0.822852

>  <SCORE.INTRA>
-3.82461

>  <SCORE.INTRA.DIHEDRAL>
-3.49313

>  <SCORE.INTRA.DIHEDRAL.0>
8.64537

>  <SCORE.INTRA.POLAR>
-0.77614

>  <SCORE.INTRA.POLAR.0>
0

>  <SCORE.INTRA.REPUL>
0

>  <SCORE.INTRA.REPUL.0>
0

>  <SCORE.INTRA.VDW>
0.560831

>  <SCORE.INTRA.VDW.0>
-2.951

>  <SCORE.INTRA.norm>
-0.182124

>  <SCORE.RESTR>
0

>  <SCORE.RESTR.CAVITY>
0

>  <SCORE.RESTR.norm>
0

>  <SCORE.SYSTEM>
-0.00355363

>  <SCORE.SYSTEM.CONST>
0

>  <SCORE.SYSTEM.DIHEDRAL>
0.789891

>  <SCORE.SYSTEM.POLAR>
-0.0169692

>  <SCORE.SYSTEM.REPUL>
0.00776354

>  <SCORE.SYSTEM.VDW>
-0.379621

>  <SCORE.SYSTEM.norm>
-0.00016922

>  <SCORE.heavy>
21

>  <SCORE.norm>
-1.00515

>  <SMILES>
C/C(O)=N\[C@@H]1[C@H](O)[C@H](O)[C@@H](CO)O[C@@H]1Oc1ccccc1

>  <UniqueID>
222

$$$$
ZINC000019893747
  rDOCK(R)          3D
libRbt.so/2013.1/901 2013/11/27
 28 29  0  0  0  0  0  0  0  0999 V2000
   34.3984    4.0495  -56.6004 H   0  0  0  0  0  0
   34.0740    4.9950  -56.7676 O   0  0  0  0  0  0
   33.9697    5.5048  -58.0582 C   0  0  0  0  0  0
   33.4797    6.7025  -58.2155 N   0  0  0  0  0  0
   33.3607    7.4408  -59.4777 C   0  0  0  0  0  0
   34.3727    8.6051  -59.5294 C   0  0  0  0  0  0
   34.1761    9.4559  -58.4109 O   0  0  0  0  0  0
   35.0852    8.9398  -57.0715 S   0  0  0  0  0  0
   35.9053    7.7525  -57.4898 O   0  0  0  0  0  0
   36.0171   10.0297  -56.6255 O   0  0  0  0  0  0
   34.0473    8.4428  -55.7090 C   0  0  0  0  0  0
   34.1232    9.4012  -60.8270 C   0  0  0  0  0  0
   34.9688   10.5226  -60.9002 O   0  0  0  0  0  0
   35.9053   10.1967  -60.9351 H   0  0  0  0  0  0
   32.6237    9.7977  -60.9354 C   0  0  0  0  0  0
   32.3300   10.5555  -62.2387 C   0  0  0  0  0  0
   32.4953    9.7217  -63.3552 O   0  0  0  0  0  0
   33.4503    9.4519  -63.3759 H   0  0  0  0  0  0
   31.8010    8.6428  -60.8878 O   0  0  0  0  0  0
   31.9261    7.9819  -59.6364 C   0  0  0  0  0  0
   31.0335    6.8838  -59.6039 O   0  0  0  0  0  0
   29.7120    7.3381  -59.4045 C   0  0  0  0  0  0
   34.4298    4.6758  -59.1942 C   0  0  0  0  0  0
   35.5196    3.8019  -59.0469 C   0  0  0  0  0  0
   35.9608    3.0380  -60.1318 C   0  0  0  0  0  0
   35.3309    3.1568  -61.3737 C   0  0  0  0  0  0
   34.2685    4.0506  -61.5359 C   0  0  0  0  0  0
   33.8260    4.8168  -60.4534 C   0  0  0  0  0  0
  1  2  1  0  0  0
  2  3  1  0  0  0
  3  4  2  0  0  0
  3 23  1  0  0  0
  4  5  1  0  0  0
  5  6  1  0  0  0
  6  7  1  0  0  0
  6 12  1  0  0  0
  7  8  1  0  0  0
  8  9  2  0  0  0
  8 10  2  0  0  0
  8 11  1  0  0  0
 12 13  1  0  0  0
 12 15  1  0  0  0
 13 14  1  0  0  0
 15 16  1  0  0  0
 15 19  1  0  0  0
 16 17  1  0  0  0
 17 18  1  0  0  0
 19 20  1  0  0  0
 20 21  1  0  0  0
 20  5  1  0  0  0
 21 22  1  0  0  0
 23 24  2  0  0  0
 24 25  1  0  0  0
 25 26  2  0  0  0
 26 27  1  0  0  0
 27 28  2  0  0  0
 28 23  1  0  0  0
M  END
>  <CHROM.0>
-170.46728524,-59.45977912,-61.45172060

>  <CHROM.1>
176.43209494,-33.30460175,-108.55536041,88.23758477,3.02404383,63.05451325
66.74156510,-63.00598424,165.17459091,33.83884733,7.48111419,-59.33402784
-0.94465093,-1.03590084,0.30306501

>  <Energy>
53.109003955865155

>  <Genealogy>
CO[C@@H]1O[C@H](CO)[C@@H](O)[C@@H](OS(C)(=O)=O)[C@H]1N=C(O)c1ccccc1 (tautomer)
CO[C@@H]1O[C@H](CO)[C@@H](O)[C@@H](OS(C)(=O)=O)[C@H]1/N=C(/O)c1ccccc1 (cis-trans isomerization)
CO[C@@H]1O[C@H](CO)[C@@H](O)[C@@H](OS(C)(=O)=O)[C@H]1/N=C(/O)c1ccccc1 (3D coordinates assigned)
CO[C@@H]1O[C@H](CO)[C@@H](O)[C@@H](OS(C)(=O)=O)[C@H]1/N=C(/O)c1ccccc1 (nonaromatic ring conformer: 53.109003955865155 kcal/mol)

>  <Name>
ZINC000019893747

>  <RI>
2.59779e+07

>  <Rbt.Current_Directory>
/home/edward/Documentos/Virtual_Screening/rDock/N-terminal/2

>  <Rbt.Executable>
rbdock ($Id: //depot/dev/client3/rdock/2013.1/src/exe/rbdock.cxx#4 $)

>  <Rbt.Library>
libRbt.so (2013.1, Build901 2013/11/27)

>  <Rbt.Parameter_File>
/home/edward/anaconda3/envs/MD/share/rdock-2013.1-1/data/scripts/dock.prm

>  <Rbt.Receptor>
parameters.prm

>  <SCORE>
-19.2565

>  <SCORE.INTER>
-12.624

>  <SCORE.INTER.CONST>
1

>  <SCORE.INTER.POLAR>
-1.98776

>  <SCORE.INTER.REPUL>
0.0217075

>  <SCORE.INTER.ROT>
6

>  <SCORE.INTER.VDW>
-17.3742

>  <SCORE.INTER.norm>
-0.50496

>  <SCORE.INTRA>
-5.74632

>  <SCORE.INTRA.DIHEDRAL>
-15.3375

>  <SCORE.INTRA.DIHEDRAL.0>
25.0107

>  <SCORE.INTRA.POLAR>
0

>  <SCORE.INTRA.POLAR.0>
0

>  <SCORE.INTRA.REPUL>
0

>  <SCORE.INTRA.REPUL.0>
0

>  <SCORE.INTRA.VDW>
1.92244

>  <SCORE.INTRA.VDW.0>
-4.64774

>  <SCORE.INTRA.norm>
-0.229853

>  <SCORE.RESTR>
0

>  <SCORE.RESTR.CAVITY>
0

>  <SCORE.RESTR.norm>
0

>  <SCORE.SYSTEM>
-0.88623

>  <SCORE.SYSTEM.CONST>
0

>  <SCORE.SYSTEM.DIHEDRAL>
0.451041

>  <SCORE.SYSTEM.REPUL>
0.0132473

>  <SCORE.SYSTEM.VDW>
-1.17799

>  <SCORE.SYSTEM.norm>
-0.0354492

>  <SCORE.heavy>
25

>  <SCORE.norm>
-0.770261

>  <SMILES>
CO[C@@H]1O[C@H](CO)[C@@H](O)[C@@H](OS(C)(=O)=O)[C@H]1/N=C(/O)c1ccccc1

>  <UniqueID>
224

$$$$
ZINC000019898298
  rDOCK(R)          3D
libRbt.so/2013.1/901 2013/11/27
 25 26  0  0  0  0  0  0  0  0999 V2000
   32.6366   -0.0570  -60.1156 C   0  0  0  0  0  0
   32.6356    0.1743  -61.5075 O   0  0  0  0  0  0
   33.8686    0.7427  -61.9072 C   0  0  0  0  0  0
   33.9724    2.0488  -61.3616 O   0  0  0  0  0  0
   35.2338    2.6222  -61.6623 C   0  0  0  0  0  0
   35.3689    3.9457  -60.8921 C   0  0  0  0  0  0
   34.2132    4.7308  -61.0222 O   0  0  0  0  0  0
   35.3787    2.8367  -63.1880 C   0  0  0  0  0  0
   36.6443    3.3729  -63.4793 O   0  0  0  0  0  0
   35.1898    1.4993  -63.9268 C   0  0  0  0  0  0
   36.2992    0.6673  -63.6866 O   0  0  0  0  0  0
   33.8899    0.8168  -63.4499 C   0  0  0  0  0  0
   33.7660   -0.5219  -64.0399 N   0  0  0  0  0  0
   32.4875   -1.1187  -64.3137 C   0  0  0  0  0  0
   31.4421   -0.6001  -63.8339 O   0  0  0  0  0  0
   32.3778   -2.3456  -65.1381 C   0  0  0  0  0  0
   33.5121   -3.1261  -65.4328 C   0  0  0  0  0  0
   33.3944   -4.2768  -66.2189 C   0  0  0  0  0  0
   32.1492   -4.6575  -66.7235 C   0  0  0  0  0  0
   31.0190   -3.8850  -66.4480 C   0  0  0  0  0  0
   31.1308   -2.7329  -65.6635 C   0  0  0  0  0  0
   34.2423    5.1356  -61.9282 H   0  0  0  0  0  0
   36.5817    4.3520  -63.3268 H   0  0  0  0  0  0
   36.1466   -0.1740  -64.1912 H   0  0  0  0  0  0
   34.6315   -1.0803  -64.2159 H   0  0  0  0  0  0
  1  2  1  0  0  0
  2  3  1  0  0  0
  3  4  1  0  0  0
  4  5  1  0  0  0
  5  6  1  0  0  0
  5  8  1  0  0  0
  6  7  1  0  0  0
  7 22  1  0  0  0
  8  9  1  0  0  0
  8 10  1  0  0  0
  9 23  1  0  0  0
 10 11  1  0  0  0
 10 12  1  0  0  0
 11 24  1  0  0  0
 12 13  1  0  0  0
 12  3  1  0  0  0
 13 14  1  0  0  0
 13 25  1  0  0  0
 14 15  2  0  0  0
 14 16  1  0  0  0
 16 17  2  0  0  0
 17 18  1  0  0  0
 18 19  2  0  0  0
 19 20  1  0  0  0
 20 21  2  0  0  0
 21 16  1  0  0  0
M  END
>  <CHROM.0>
-176.19308351,-178.15279690,-59.77243100

>  <CHROM.1>
-67.48852421,-46.92425607,-76.49552437,-82.40261175,-179.00487203,87.76448966
14.00880566,33.71272547,0.16108105,-63.42168607,1.13030463,0.59678470,0.81114609

>  <Energy>
41.938635285159485

>  <Genealogy>
CO[C@@H]1O[C@H](CO)[C@@H](O)[C@@H](O)[C@H]1NC(=O)c1ccccc1 (3D coordinates assigned)
CO[C@@H]1O[C@H](CO)[C@@H](O)[C@@H](O)[C@H]1NC(=O)c1ccccc1 (nonaromatic ring conformer: 41.938635285159485 kcal/mol)

>  <Name>
ZINC000019898298

>  <RI>
2.59779e+07

>  <Rbt.Current_Directory>
/home/edward/Documentos/Virtual_Screening/rDock/N-terminal/2

>  <Rbt.Executable>
rbdock ($Id: //depot/dev/client3/rdock/2013.1/src/exe/rbdock.cxx#4 $)

>  <Rbt.Library>
libRbt.so (2013.1, Build901 2013/11/27)

>  <Rbt.Parameter_File>
/home/edward/anaconda3/envs/MD/share/rdock-2013.1-1/data/scripts/dock.prm

>  <Rbt.Receptor>
parameters.prm

>  <SCORE>
-24.0932

>  <SCORE.INTER>
-23.5321

>  <SCORE.INTER.CONST>
1

>  <SCORE.INTER.POLAR>
-4.90473

>  <SCORE.INTER.REPUL>
0

>  <SCORE.INTER.ROT>
4

>  <SCORE.INTER.VDW>
-16.2561

>  <SCORE.INTER.norm>
-1.12058

>  <SCORE.INTRA>
-0.163305

>  <SCORE.INTRA.DIHEDRAL>
-3.88503

>  <SCORE.INTRA.DIHEDRAL.0>
10.1861

>  <SCORE.INTRA.POLAR>
0

>  <SCORE.INTRA.POLAR.0>
0

>  <SCORE.INTRA.REPUL>
0

>  <SCORE.INTRA.REPUL.0>
0

>  <SCORE.INTRA.VDW>
1.77921

>  <SCORE.INTRA.VDW.0>
-1.85163

>  <SCORE.INTRA.norm>
-0.00777644

>  <SCORE.RESTR>
0

>  <SCORE.RESTR.CAVITY>
0

>  <SCORE.RESTR.norm>
0

>  <SCORE.SYSTEM>
-0.397782

>  <SCORE.SYSTEM.CONST>
0

>  <SCORE.SYSTEM.DIHEDRAL>
0.0883625

>  <SCORE.SYSTEM.REPUL>
0.0850372

>  <SCORE.SYSTEM.VDW>
-0.867149

>  <SCORE.SYSTEM.norm>
-0.018942

>  <SCORE.heavy>
21

>  <SCORE.norm>
-1.1473

>  <SMILES>
CO[C@@H]1O[C@H](CO)[C@@H](O)[C@@H](O)[C@H]1NC(=O)c1ccccc1

>  <UniqueID>
225

$$$$
ZINC000032106887
  rDOCK(R)          3D
libRbt.so/2013.1/901 2013/11/27
 23 25  0  0  0  0  0  0  0  0999 V2000
   32.7173    2.0609  -61.9265 H   0  0  0  0  0  0
   32.4989    1.3707  -61.2470 O   0  0  0  0  0  0
   33.7093    0.8147  -60.7873 C   0  0  0  0  0  0
   34.5858    1.8532  -60.0446 C   0  0  0  0  0  0
   33.7852    2.8698  -59.4709 O   0  0  0  0  0  0
   34.6093    3.8045  -58.7909 C   0  0  0  0  0  0
   33.7218    4.8301  -58.1367 C   0  0  0  0  0  0
   32.6107    5.3431  -58.8294 C   0  0  0  0  0  0
   31.7834    6.2974  -58.2296 C   0  0  0  0  0  0
   32.0579    6.7484  -56.9360 C   0  0  0  0  0  0
   33.1606    6.2462  -56.2399 C   0  0  0  0  0  0
   33.9910    5.2914  -56.8355 C   0  0  0  0  0  0
   35.4705    4.4740  -59.6987 O   0  0  0  0  0  0
   36.3718    3.5514  -60.2773 C   0  0  0  0  0  0
   35.6092    2.4598  -61.0250 C   0  0  0  0  0  0
   36.5284    1.5144  -61.5661 O   0  0  0  0  0  0
   36.0278    0.1815  -61.6501 C   0  0  0  0  0  0
   36.7361   -0.4899  -62.6802 O   0  0  0  0  0  0
   36.6307   -1.8905  -62.5407 C   0  0  0  0  0  0
   34.4936    0.1149  -61.9352 C   0  0  0  0  0  0
   34.1221    0.6717  -63.2458 N   0  0  0  0  0  0
   34.8941    1.3193  -63.9555 N   0  3  0  0  0  0
   35.6624    1.9665  -64.6654 N   0  5  0  0  0  0
  1  2  1  0  0  0
  2  3  1  0  0  0
  3  4  1  0  0  0
  4  5  1  0  0  0
  5  6  1  0  0  0
  6  7  1  0  0  0
  6 13  1  0  0  0
  7  8  2  0  0  0
  8  9  1  0  0  0
  9 10  2  0  0  0
 10 11  1  0  0  0
 11 12  2  0  0  0
 12  7  1  0  0  0
 13 14  1  0  0  0
 14 15  1  0  0  0
 15 16  1  0  0  0
 15  4  1  0  0  0
 16 17  1  0  0  0
 17 18  1  0  0  0
 17 20  1  0  0  0
 18 19  1  0  0  0
 20 21  1  0  0  0
 20  3  1  0  0  0
 21 22  2  0  0  0
 22 23  2  0  0  0
M  END
>  <CHROM.0>
-175.12230766,-60.71567986,178.98706862

>  <CHROM.1>
64.50502158,-41.92068648,160.50850280,113.11707840,34.54762338,2.61135663
-60.48567321,1.23211541,0.19952490,-2.31770488

>  <Energy>
64.73789541334045

>  <Genealogy>
CO[C@H]1O[C@@H]2CO[C@@H](c3ccccc3)O[C@H]2[C@@H](O)[C@H]1N=[N+]=[N-] (cis-trans isomerization)
CO[C@H]1O[C@@H]2CO[C@@H](c3ccccc3)O[C@H]2[C@@H](O)[C@H]1N=[N+]=[N-] (3D coordinates assigned)
CO[C@H]1O[C@@H]2CO[C@@H](c3ccccc3)O[C@H]2[C@@H](O)[C@H]1N=[N+]=[N-] (nonaromatic ring conformer: 64.73789541334045 kcal/mol)

>  <Name>
ZINC000032106887

>  <RI>
2.59779e+07

>  <Rbt.Current_Directory>
/home/edward/Documentos/Virtual_Screening/rDock/N-terminal/2

>  <Rbt.Executable>
rbdock ($Id: //depot/dev/client3/rdock/2013.1/src/exe/rbdock.cxx#4 $)

>  <Rbt.Library>
libRbt.so (2013.1, Build901 2013/11/27)

>  <Rbt.Parameter_File>
/home/edward/anaconda3/envs/MD/share/rdock-2013.1-1/data/scripts/dock.prm

>  <Rbt.Receptor>
parameters.prm

>  <SCORE>
-17.9993

>  <SCORE.INTER>
-15.8558

>  <SCORE.INTER.CONST>
1

>  <SCORE.INTER.POLAR>
-1.78379

>  <SCORE.INTER.REPUL>
0.125887

>  <SCORE.INTER.ROT>
3

>  <SCORE.INTER.VDW>
-18.8204

>  <SCORE.INTER.norm>
-0.720718

>  <SCORE.INTRA>
-1.10634

>  <SCORE.INTRA.DIHEDRAL>
-3.73527

>  <SCORE.INTRA.DIHEDRAL.0>
6.52685

>  <SCORE.INTRA.POLAR>
0

>  <SCORE.INTRA.POLAR.0>
0

>  <SCORE.INTRA.REPUL>
0

>  <SCORE.INTRA.REPUL.0>
0

>  <SCORE.INTRA.VDW>
0.761295

>  <SCORE.INTRA.VDW.0>
-1.68809

>  <SCORE.INTRA.norm>
-0.0502882

>  <SCORE.RESTR>
0

>  <SCORE.RESTR.CAVITY>
0

>  <SCORE.RESTR.norm>
0

>  <SCORE.SYSTEM>
-1.03718

>  <SCORE.SYSTEM.CONST>
0

>  <SCORE.SYSTEM.DIHEDRAL>
0.124361

>  <SCORE.SYSTEM.REPUL>
0.0265121

>  <SCORE.SYSTEM.VDW>
-1.23192

>  <SCORE.SYSTEM.norm>
-0.0471445

>  <SCORE.heavy>
22

>  <SCORE.norm>
-0.818151

>  <SMILES>
CO[C@H]1O[C@@H]2CO[C@@H](c3ccccc3)O[C@H]2[C@@H](O)[C@H]1N=[N+]=[N-]

>  <UniqueID>
228

$$$$
ZINC000032106889
  rDOCK(R)          3D
libRbt.so/2013.1/901 2013/11/27
 23 25  0  0  0  0  0  0  0  0999 V2000
   36.7728    4.3383  -63.6296 H   0  0  0  0  0  0
   36.6936    3.3648  -63.8090 O   0  0  0  0  0  0
   35.3300    3.0324  -63.6982 C   0  0  0  0  0  0
   34.8437    3.1617  -62.2329 C   0  0  0  0  0  0
   35.5975    4.1412  -61.5411 O   0  0  0  0  0  0
   35.1792    4.2679  -60.1854 C   0  0  0  0  0  0
   33.8366    4.9692  -60.0231 C   0  0  0  0  0  0
   32.6358    4.2360  -60.0801 C   0  0  0  0  0  0
   31.4073    4.8702  -59.8726 C   0  0  0  0  0  0
   31.3639    6.2345  -59.5779 C   0  0  0  0  0  0
   32.5500    6.9646  -59.4776 C   0  0  0  0  0  0
   33.7810    6.3348  -59.6840 C   0  0  0  0  0  0
   35.2728    3.0383  -59.4723 O   0  0  0  0  0  0
   34.5064    2.0183  -60.0818 C   0  0  0  0  0  0
   34.9444    1.8022  -61.5227 C   0  0  0  0  0  0
   34.1513    0.7735  -62.1113 O   0  0  0  0  0  0
   33.8944    0.9492  -63.5048 C   0  0  0  0  0  0
   33.6160   -0.3072  -64.0950 O   0  0  0  0  0  0
   32.3630   -0.7873  -63.6576 C   0  0  0  0  0  0
   35.0824    1.6048  -64.2549 C   0  0  0  0  0  0
   36.2900    0.7862  -64.1213 N   0  0  0  0  0  0
   36.5077    0.1206  -63.1083 N   0  3  0  0  0  0
   36.7259   -0.5446  -62.0969 N   0  5  0  0  0  0
  1  2  1  0  0  0
  2  3  1  0  0  0
  3  4  1  0  0  0
  4  5  1  0  0  0
  5  6  1  0  0  0
  6  7  1  0  0  0
  6 13  1  0  0  0
  7  8  2  0  0  0
  8  9  1  0  0  0
  9 10  2  0  0  0
 10 11  1  0  0  0
 11 12  2  0  0  0
 12  7  1  0  0  0
 13 14  1  0  0  0
 14 15  1  0  0  0
 15 16  1  0  0  0
 15  4  1  0  0  0
 16 17  1  0  0  0
 17 18  1  0  0  0
 17 20  1  0  0  0
 18 19  1  0  0  0
 20 21  1  0  0  0
 20  3  1  0  0  0
 21 22  2  0  0  0
 22 23  2  0  0  0
M  END
>  <CHROM.0>
-72.05345431,-61.48617971,-178.24958685

>  <CHROM.1>
-68.05620341,87.23808777,70.15315225,89.35931203,34.43964434,2.69289474,-61.79174583
-1.23743527,0.21150468,0.55735635

>  <Energy>
65.59287181211691

>  <Genealogy>
CO[C@H]1O[C@@H]2CO[C@H](c3ccccc3)O[C@H]2[C@@H](O)[C@H]1N=[N+]=[N-] (cis-trans isomerization)
CO[C@H]1O[C@@H]2CO[C@H](c3ccccc3)O[C@H]2[C@@H](O)[C@H]1N=[N+]=[N-] (3D coordinates assigned)
CO[C@H]1O[C@@H]2CO[C@H](c3ccccc3)O[C@H]2[C@@H](O)[C@H]1N=[N+]=[N-] (nonaromatic ring conformer: 65.59287181211691 kcal/mol)

>  <Name>
ZINC000032106889

>  <RI>
2.59779e+07

>  <Rbt.Current_Directory>
/home/edward/Documentos/Virtual_Screening/rDock/N-terminal/2

>  <Rbt.Executable>
rbdock ($Id: //depot/dev/client3/rdock/2013.1/src/exe/rbdock.cxx#4 $)

>  <Rbt.Library>
libRbt.so (2013.1, Build901 2013/11/27)

>  <Rbt.Parameter_File>
/home/edward/anaconda3/envs/MD/share/rdock-2013.1-1/data/scripts/dock.prm

>  <Rbt.Receptor>
parameters.prm

>  <SCORE>
-17.6469

>  <SCORE.INTER>
-17.1828

>  <SCORE.INTER.CONST>
1

>  <SCORE.INTER.POLAR>
-2.66128

>  <SCORE.INTER.REPUL>
0.231317

>  <SCORE.INTER.ROT>
3

>  <SCORE.INTER.VDW>
-17.6911

>  <SCORE.INTER.norm>
-0.781038

>  <SCORE.INTRA>
-0.414102

>  <SCORE.INTRA.DIHEDRAL>
-3.51079

>  <SCORE.INTRA.DIHEDRAL.0>
6.26561

>  <SCORE.INTRA.POLAR>
0

>  <SCORE.INTRA.POLAR.0>
0

>  <SCORE.INTRA.REPUL>
0

>  <SCORE.INTRA.REPUL.0>
0

>  <SCORE.INTRA.VDW>
1.34129

>  <SCORE.INTRA.VDW.0>
-1.3859

>  <SCORE.INTRA.norm>
-0.0188228

>  <SCORE.RESTR>
0

>  <SCORE.RESTR.CAVITY>
0

>  <SCORE.RESTR.norm>
0

>  <SCORE.SYSTEM>
-0.0499545

>  <SCORE.SYSTEM.CONST>
0

>  <SCORE.SYSTEM.DIHEDRAL>
0.719476

>  <SCORE.SYSTEM.VDW>
-0.409693

>  <SCORE.SYSTEM.norm>
-0.00227066

>  <SCORE.heavy>
22

>  <SCORE.norm>
-0.802132

>  <SMILES>
CO[C@H]1O[C@@H]2CO[C@H](c3ccccc3)O[C@H]2[C@@H](O)[C@H]1N=[N+]=[N-]

>  <UniqueID>
229

$$$$
ZINC000044021353
  rDOCK(R)          3D
libRbt.so/2013.1/901 2013/11/27
 25 26  0  0  0  0  0  0  0  0999 V2000
   33.2121   -6.8137  -66.9269 C   0  0  0  0  0  0
   32.1499   -5.9383  -66.5623 O   0  0  0  0  0  0
   32.3292   -4.6802  -65.9685 C   0  0  0  0  0  0
   31.2226   -3.8302  -65.8639 C   0  0  0  0  0  0
   31.3487   -2.5662  -65.2806 C   0  0  0  0  0  0
   32.5927   -2.1315  -64.7898 C   0  0  0  0  0  0
   32.7541   -0.8015  -64.1701 C   0  0  0  0  0  0
   33.8317   -0.4963  -63.5138 N   0  0  0  0  0  0
   34.0454    0.8016  -62.8715 C   0  0  0  0  0  0
   35.1041    1.5985  -63.6629 C   0  0  0  0  0  0
   36.1964    0.7918  -64.0409 O   0  0  0  0  0  0
   35.5634    2.8503  -62.8815 C   0  0  0  0  0  0
   36.6947    3.4102  -63.4982 O   0  0  0  0  0  0
   35.8775    2.4972  -61.4057 C   0  0  0  0  0  0
   36.2159    3.7567  -60.5898 C   0  0  0  0  0  0
   35.0887    4.5743  -60.4221 O   0  0  0  0  0  0
   34.7534    1.8810  -60.8014 O   0  0  0  0  0  0
   34.4844    0.6229  -61.3977 C   0  0  0  0  0  0
   33.4765   -0.0229  -60.6647 O   0  0  0  0  0  0
   33.7031   -2.9827  -64.8944 C   0  0  0  0  0  0
   33.5755   -4.2470  -65.4782 C   0  0  0  0  0  0
   35.8516   -0.0976  -64.3073 H   0  0  0  0  0  0
   36.6372    4.3923  -63.3636 H   0  0  0  0  0  0
   34.9241    5.0152  -61.2963 H   0  0  0  0  0  0
   33.8489   -0.2220  -59.7659 H   0  0  0  0  0  0
  1  2  1  0  0  0
  2  3  1  0  0  0
  3  4  2  0  0  0
  4  5  1  0  0  0
  5  6  2  0  0  0
  6  7  1  0  0  0
  6 20  1  0  0  0
  7  8  2  0  0  0
  8  9  1  0  0  0
  9 10  1  0  0  0
 10 11  1  0  0  0
 10 12  1  0  0  0
 11 22  1  0  0  0
 12 13  1  0  0  0
 12 14  1  0  0  0
 13 23  1  0  0  0
 14 15  1  0  0  0
 14 17  1  0  0  0
 15 16  1  0  0  0
 16 24  1  0  0  0
 17 18  1  0  0  0
 18 19  1  0  0  0
 18  9  1  0  0  0
 19 25  1  0  0  0
 20 21  2  0  0  0
 21  3  1  0  0  0
M  END
>  <CHROM.0>
-177.37414064,62.75846611,-60.14517311

>  <CHROM.1>
169.55457363,167.82264430,-108.37024516,39.13136636,146.90441693,68.78786872
-74.11235983,172.61005716,34.08324233,-0.44758854,-63.52824784,-2.01700891
0.72065293,0.82670489

>  <Energy>
40.344441485741676

>  <Genealogy>
COc1ccc(/C=N/[C@@H]2[C@H](O)[C@H](O)[C@@H](CO)O[C@H]2O)cc1 (3D coordinates assigned)
COc1ccc(/C=N/[C@@H]2[C@H](O)[C@H](O)[C@@H](CO)O[C@H]2O)cc1 (nonaromatic ring conformer: 40.344441485741676 kcal/mol)

>  <Name>
ZINC000044021353

>  <RI>
2.59779e+07

>  <Rbt.Current_Directory>
/home/edward/Documentos/Virtual_Screening/rDock/N-terminal/2

>  <Rbt.Executable>
rbdock ($Id: //depot/dev/client3/rdock/2013.1/src/exe/rbdock.cxx#4 $)

>  <Rbt.Library>
libRbt.so (2013.1, Build901 2013/11/27)

>  <Rbt.Parameter_File>
/home/edward/anaconda3/envs/MD/share/rdock-2013.1-1/data/scripts/dock.prm

>  <Rbt.Receptor>
parameters.prm

>  <SCORE>
-23.4324

>  <SCORE.INTER>
-24.43

>  <SCORE.INTER.CONST>
1

>  <SCORE.INTER.POLAR>
-5.22631

>  <SCORE.INTER.REPUL>
0.203356

>  <SCORE.INTER.ROT>
4

>  <SCORE.INTER.VDW>
-17.0773

>  <SCORE.INTER.norm>
-1.16333

>  <SCORE.INTRA>
1.17549

>  <SCORE.INTRA.DIHEDRAL>
4.32885

>  <SCORE.INTRA.DIHEDRAL.0>
4.27986

>  <SCORE.INTRA.POLAR>
-0.231368

>  <SCORE.INTRA.POLAR.0>
0

>  <SCORE.INTRA.REPUL>
0

>  <SCORE.INTRA.REPUL.0>
0

>  <SCORE.INTRA.VDW>
-0.202286

>  <SCORE.INTRA.VDW.0>
-0.273123

>  <SCORE.INTRA.norm>
0.0559756

>  <SCORE.RESTR>
0

>  <SCORE.RESTR.CAVITY>
0

>  <SCORE.RESTR.norm>
0

>  <SCORE.SYSTEM>
-0.177934

>  <SCORE.SYSTEM.CONST>
0

>  <SCORE.SYSTEM.DIHEDRAL>
0.0715609

>  <SCORE.SYSTEM.REPUL>
0.172897

>  <SCORE.SYSTEM.VDW>
-1.0782

>  <SCORE.SYSTEM.norm>
-0.00847304

>  <SCORE.heavy>
21

>  <SCORE.norm>
-1.11583

>  <SMILES>
COc1ccc(/C=N/[C@@H]2[C@H](O)[C@H](O)[C@@H](CO)O[C@H]2O)cc1

>  <UniqueID>
231

$$$$
ZINC000056871016
  rDOCK(R)          3D
libRbt.so/2013.1/901 2013/11/27
 20 20  0  0  0  0  0  0  0  0999 V2000
   34.9108   -3.9436  -64.3525 H   0  0  0  0  0  0
   33.9562   -3.6678  -64.5511 O   0  0  0  0  0  0
   33.5277   -2.3595  -64.3454 C   0  0  0  0  0  0
   34.3377   -1.5100  -63.7785 N   0  0  0  0  0  0
   34.0710   -0.0944  -63.5009 C   0  0  0  0  0  0
   35.3069    0.7697  -63.8348 C   0  0  0  0  0  0
   36.4555    0.2471  -63.2111 O   0  0  0  0  0  0
   36.6275   -0.6425  -63.6170 H   0  0  0  0  0  0
   35.0770    2.2147  -63.3620 C   0  0  0  0  0  0
   36.2707    2.9432  -63.5111 O   0  0  0  0  0  0
   36.0594    3.8953  -63.3253 H   0  0  0  0  0  0
   34.6166    2.2209  -61.8835 C   0  0  0  0  0  0
   34.3132    3.6495  -61.4086 C   0  0  0  0  0  0
   35.4642    4.4467  -61.4931 O   0  0  0  0  0  0
   35.1839    5.3781  -61.2941 H   0  0  0  0  0  0
   33.4415    1.4405  -61.7378 O   0  0  0  0  0  0
   33.7059    0.0738  -62.0138 C   0  0  0  0  0  0
   32.5383   -0.6831  -61.7550 O   0  0  0  0  0  0
   32.2657   -0.6963  -60.3705 C   0  0  0  0  0  0
   32.1363   -1.9903  -64.7694 C   0  0  0  0  0  0
  1  2  1  0  0  0
  2  3  1  0  0  0
  3  4  2  0  0  0
  3 20  1  0  0  0
  4  5  1  0  0  0
  5  6  1  0  0  0
  6  7  1  0  0  0
  6  9  1  0  0  0
  7  8  1  0  0  0
  9 10  1  0  0  0
  9 12  1  0  0  0
 10 11  1  0  0  0
 12 13  1  0  0  0
 12 16  1  0  0  0
 13 14  1  0  0  0
 14 15  1  0  0  0
 16 17  1  0  0  0
 17 18  1  0  0  0
 17  5  1  0  0  0
 18 19  1  0  0  0
M  END
>  <CHROM.0>
72.11258884,-58.51503782,-60.24163285

>  <CHROM.1>
-6.08315118,-137.91595659,65.14662782,171.95071290,-61.05697525,172.51941472
172.51318285,34.24813518,0.46402839,-62.82690846,-1.97000064,0.69086706,0.57236227

>  <Energy>
30.867784371894107

>  <Genealogy>
CO[C@@H]1O[C@H](CO)[C@@H](O)[C@@H](O)[C@H]1N=C(C)O (tautomer)
CO[C@@H]1O[C@H](CO)[C@@H](O)[C@@H](O)[C@H]1/N=C(\C)O (cis-trans isomerization)
CO[C@@H]1O[C@H](CO)[C@@H](O)[C@@H](O)[C@H]1/N=C(\C)O (3D coordinates assigned)
CO[C@@H]1O[C@H](CO)[C@@H](O)[C@@H](O)[C@H]1/N=C(\C)O (nonaromatic ring conformer: 30.867784371894107 kcal/mol)

>  <Name>
ZINC000056871016

>  <RI>
2.59779e+07

>  <Rbt.Current_Directory>
/home/edward/Documentos/Virtual_Screening/rDock/N-terminal/2

>  <Rbt.Executable>
rbdock ($Id: //depot/dev/client3/rdock/2013.1/src/exe/rbdock.cxx#4 $)

>  <Rbt.Library>
libRbt.so (2013.1, Build901 2013/11/27)

>  <Rbt.Parameter_File>
/home/edward/anaconda3/envs/MD/share/rdock-2013.1-1/data/scripts/dock.prm

>  <Rbt.Receptor>
parameters.prm

>  <SCORE>
-21.2066

>  <SCORE.INTER>
-15.626

>  <SCORE.INTER.CONST>
1

>  <SCORE.INTER.POLAR>
-3.32863

>  <SCORE.INTER.REPUL>
0.00689195

>  <SCORE.INTER.ROT>
3

>  <SCORE.INTER.VDW>
-12.7432

>  <SCORE.INTER.norm>
-0.976627

>  <SCORE.INTRA>
-5.63912

>  <SCORE.INTRA.DIHEDRAL>
-10.2324

>  <SCORE.INTRA.DIHEDRAL.0>
11.9527

>  <SCORE.INTRA.POLAR>
-0.395242

>  <SCORE.INTRA.POLAR.0>
0

>  <SCORE.INTRA.REPUL>
0

>  <SCORE.INTRA.REPUL.0>
0

>  <SCORE.INTRA.VDW>
0.820879

>  <SCORE.INTRA.VDW.0>
-1.58628

>  <SCORE.INTRA.norm>
-0.352445

>  <SCORE.RESTR>
0

>  <SCORE.RESTR.CAVITY>
0

>  <SCORE.RESTR.norm>
0

>  <SCORE.SYSTEM>
0.058599

>  <SCORE.SYSTEM.CONST>
0

>  <SCORE.SYSTEM.DIHEDRAL>
0.711228

>  <SCORE.SYSTEM.POLAR>
-0.0192549

>  <SCORE.SYSTEM.REPUL>
0.00573396

>  <SCORE.SYSTEM.VDW>
-0.260218

>  <SCORE.SYSTEM.norm>
0.00366244

>  <SCORE.heavy>
16

>  <SCORE.norm>
-1.32541

>  <SMILES>
CO[C@@H]1O[C@H](CO)[C@@H](O)[C@@H](O)[C@H]1/N=C(\C)O

>  <UniqueID>
233

$$$$
ZINC000077269504
  rDOCK(R)          3D
libRbt.so/2013.1/901 2013/11/27
 25 27  0  0  0  0  0  0  0  0999 V2000
   35.8342   -3.8004  -63.6238 H   0  0  0  0  0  0
   35.5850   -2.8278  -63.4896 O   0  0  0  0  0  0
   34.3703   -2.3232  -63.9535 C   0  0  0  0  0  0
   34.0687   -1.0696  -63.7922 N   0  0  0  0  0  0
   34.9192   -0.0958  -63.1036 C   0  0  0  0  0  0
   35.5006    0.9161  -64.1253 C   0  0  0  0  0  0
   34.4874    1.5065  -64.9055 O   0  0  0  0  0  0
   34.9291    2.1408  -65.5284 H   0  0  0  0  0  0
   36.2800    1.9190  -63.4850 O   0  0  0  0  0  0
   35.4970    2.6500  -62.5567 C   0  0  0  0  0  0
   36.3203    3.7716  -61.9292 C   0  0  0  0  0  0
   35.5606    4.4340  -60.9365 O   0  0  0  0  0  0
   35.1686    3.5147  -59.9264 C   0  0  0  0  0  0
   34.4085    4.2694  -58.8679 C   0  0  0  0  0  0
   33.0296    4.5108  -59.0046 C   0  0  0  0  0  0
   32.3352    5.2128  -58.0141 C   0  0  0  0  0  0
   33.0085    5.6784  -56.8817 C   0  0  0  0  0  0
   34.3781    5.4428  -56.7369 C   0  0  0  0  0  0
   35.0768    4.7415  -57.7242 C   0  0  0  0  0  0
   34.3169    2.5063  -60.4541 O   0  0  0  0  0  0
   35.0260    1.7446  -61.4109 C   0  0  0  0  0  0
   34.1419    0.6295  -61.9791 C   0  0  0  0  0  0
   32.9413    1.1742  -62.4697 O   0  0  0  0  0  0
   33.1704    1.6945  -63.2833 H   0  0  0  0  0  0
   33.4203   -3.2210  -64.6784 C   0  0  0  0  0  0
  1  2  1  0  0  0
  2  3  1  0  0  0
  3  4  2  0  0  0
  3 25  1  0  0  0
  4  5  1  0  0  0
  5  6  1  0  0  0
  6  7  1  0  0  0
  6  9  1  0  0  0
  7  8  1  0  0  0
  9 10  1  0  0  0
 10 11  1  0  0  0
 11 12  1  0  0  0
 12 13  1  0  0  0
 13 14  1  0  0  0
 13 20  1  0  0  0
 14 15  2  0  0  0
 15 16  1  0  0  0
 16 17  2  0  0  0
 17 18  1  0  0  0
 18 19  2  0  0  0
 19 14  1  0  0  0
 20 21  1  0  0  0
 21 22  1  0  0  0
 21 10  1  0  0  0
 22 23  1  0  0  0
 22  5  1  0  0  0
 23 24  1  0  0  0
M  END
>  <CHROM.0>
-177.29354453,61.80153362,61.83942808

>  <CHROM.1>
-179.04448284,110.18495499,179.71416193,85.00480104,-50.36537322,34.55596489
1.96316491,-61.51245350,1.47083172,-0.81687760,-2.46225475

>  <Energy>
48.03382814000505

>  <Genealogy>
CC(O)=N[C@H]1[C@@H](O)O[C@@H]2CO[C@@H](c3ccccc3)O[C@H]2[C@H]1O (tautomer)
C/C(O)=N\[C@H]1[C@@H](O)O[C@@H]2CO[C@@H](c3ccccc3)O[C@H]2[C@H]1O (cis-trans isomerization)
C/C(O)=N\[C@H]1[C@@H](O)O[C@@H]2CO[C@@H](c3ccccc3)O[C@H]2[C@H]1O (3D coordinates assigned)
C/C(O)=N\[C@H]1[C@@H](O)O[C@@H]2CO[C@@H](c3ccccc3)O[C@H]2[C@H]1O (nonaromatic ring conformer: 48.03382814000505 kcal/mol)

>  <Name>
ZINC000077269504

>  <RI>
2.59779e+07

>  <Rbt.Current_Directory>
/home/edward/Documentos/Virtual_Screening/rDock/N-terminal/2

>  <Rbt.Executable>
rbdock ($Id: //depot/dev/client3/rdock/2013.1/src/exe/rbdock.cxx#4 $)

>  <Rbt.Library>
libRbt.so (2013.1, Build901 2013/11/27)

>  <Rbt.Parameter_File>
/home/edward/anaconda3/envs/MD/share/rdock-2013.1-1/data/scripts/dock.prm

>  <Rbt.Receptor>
parameters.prm

>  <SCORE>
-21.3434

>  <SCORE.INTER>
-16.4358

>  <SCORE.INTER.CONST>
1

>  <SCORE.INTER.POLAR>
-1.92921

>  <SCORE.INTER.REPUL>
0.0179509

>  <SCORE.INTER.ROT>
2

>  <SCORE.INTER.VDW>
-17.3662

>  <SCORE.INTER.norm>
-0.747082

>  <SCORE.INTRA>
-4.5909

>  <SCORE.INTRA.DIHEDRAL>
-5.47999

>  <SCORE.INTRA.DIHEDRAL.0>
6.89544

>  <SCORE.INTRA.POLAR>
-0.740707

>  <SCORE.INTRA.POLAR.0>
0

>  <SCORE.INTRA.REPUL>
0

>  <SCORE.INTRA.REPUL.0>
0

>  <SCORE.INTRA.VDW>
0.667499

>  <SCORE.INTRA.VDW.0>
-1.71346

>  <SCORE.INTRA.norm>
-0.208677

>  <SCORE.RESTR>
0

>  <SCORE.RESTR.CAVITY>
0

>  <SCORE.RESTR.norm>
0

>  <SCORE.SYSTEM>
-0.316666

>  <SCORE.SYSTEM.CONST>
0

>  <SCORE.SYSTEM.DIHEDRAL>
0.0687746

>  <SCORE.SYSTEM.REPUL>
0.172674

>  <SCORE.SYSTEM.VDW>
-1.21442

>  <SCORE.SYSTEM.norm>
-0.0143939

>  <SCORE.heavy>
22

>  <SCORE.norm>
-0.970153

>  <SMILES>
C/C(O)=N\[C@H]1[C@@H](O)O[C@@H]2CO[C@@H](c3ccccc3)O[C@H]2[C@H]1O

>  <UniqueID>
236

$$$$
ZINC000082114392
  rDOCK(R)          3D
libRbt.so/2013.1/901 2013/11/27
 18 18  0  0  0  0  0  0  0  0999 V2000
   36.7534   -1.7728  -61.7642 C   0  0  0  0  0  0
   36.7365   -0.3795  -61.9853 O   0  0  0  0  0  0
   35.5395    0.1826  -61.4688 C   0  0  0  0  0  0
   35.7677    1.4645  -60.8976 O   0  0  0  0  0  0
   36.2427    2.3949  -61.8592 C   0  0  0  0  0  0
   36.6085    3.6996  -61.1331 C   0  0  0  0  0  0
   37.3265    3.4430  -59.9551 O   0  0  0  0  0  0
   35.1822    2.6311  -62.9624 C   0  0  0  0  0  0
   35.6657    3.5301  -63.9295 O   0  0  0  0  0  0
   34.8289    1.2962  -63.6398 C   0  0  0  0  0  0
   35.9126    0.8287  -64.4064 O   0  0  0  0  0  0
   34.4556    0.2537  -62.5688 C   0  0  0  0  0  0
   34.2581   -1.0623  -63.1807 N   0  0  0  0  0  0
   38.1634    2.9823  -60.2246 H   0  0  0  0  0  0
   35.9026    4.3702  -63.4567 H   0  0  0  0  0  0
   36.5708    0.4398  -63.7731 H   0  0  0  0  0  0
   34.3202   -1.7869  -62.4288 H   0  0  0  0  0  0
   35.0595   -1.2486  -63.8268 H   0  0  0  0  0  0
  1  2  1  0  0  0
  2  3  1  0  0  0
  3  4  1  0  0  0
  4  5  1  0  0  0
  5  6  1  0  0  0
  5  8  1  0  0  0
  6  7  1  0  0  0
  7 14  1  0  0  0
  8  9  1  0  0  0
  8 10  1  0  0  0
  9 15  1  0  0  0
 10 11  1  0  0  0
 10 12  1  0  0  0
 11 16  1  0  0  0
 12 13  1  0  0  0
 12  3  1  0  0  0
 13 17  1  0  0  0
 13 18  1  0  0  0
M  END
>  <CHROM.0>
-179.47127040,-59.27015774,-179.10826690

>  <CHROM.1>
143.17393041,44.37600924,61.46616441,-57.69817884,77.33995382,38.59810214
35.84051900,1.26981008,-62.28928088,-2.10299020,-1.07656191,-0.16939667

>  <Energy>
28.127443471094907

>  <Genealogy>
CO[C@H]1O[C@H](CO)[C@@H](O)[C@@H](O)[C@H]1N (3D coordinates assigned)
CO[C@H]1O[C@H](CO)[C@@H](O)[C@@H](O)[C@H]1N (nonaromatic ring conformer: 28.127443471094907 kcal/mol)

>  <Name>
ZINC000082114392

>  <RI>
2.59779e+07

>  <Rbt.Current_Directory>
/home/edward/Documentos/Virtual_Screening/rDock/N-terminal/2

>  <Rbt.Executable>
rbdock ($Id: //depot/dev/client3/rdock/2013.1/src/exe/rbdock.cxx#4 $)

>  <Rbt.Library>
libRbt.so (2013.1, Build901 2013/11/27)

>  <Rbt.Parameter_File>
/home/edward/anaconda3/envs/MD/share/rdock-2013.1-1/data/scripts/dock.prm

>  <Rbt.Receptor>
parameters.prm

>  <SCORE>
-20.3166

>  <SCORE.INTER>
-17.8314

>  <SCORE.INTER.CONST>
1

>  <SCORE.INTER.POLAR>
-3.69992

>  <SCORE.INTER.REPUL>
0

>  <SCORE.INTER.ROT>
3

>  <SCORE.INTER.VDW>
-13.6516

>  <SCORE.INTER.norm>
-1.37165

>  <SCORE.INTRA>
-1.45943

>  <SCORE.INTRA.DIHEDRAL>
-1.21846

>  <SCORE.INTRA.DIHEDRAL.0>
8.88353

>  <SCORE.INTRA.POLAR>
-0.855344

>  <SCORE.INTRA.POLAR.0>
0

>  <SCORE.INTRA.REPUL>
-0.0742808

>  <SCORE.INTRA.REPUL.0>
0.0742808

>  <SCORE.INTRA.VDW>
2.42937

>  <SCORE.INTRA.VDW.0>
-0.901795

>  <SCORE.INTRA.norm>
-0.112264

>  <SCORE.RESTR>
0

>  <SCORE.RESTR.CAVITY>
0

>  <SCORE.RESTR.norm>
0

>  <SCORE.SYSTEM>
-1.02574

>  <SCORE.SYSTEM.CONST>
0

>  <SCORE.SYSTEM.DIHEDRAL>
0.00793114

>  <SCORE.SYSTEM.REPUL>
0.0385373

>  <SCORE.SYSTEM.VDW>
-1.22239

>  <SCORE.SYSTEM.norm>
-0.0789027

>  <SCORE.heavy>
13

>  <SCORE.norm>
-1.56281

>  <SMILES>
CO[C@H]1O[C@H](CO)[C@@H](O)[C@@H](O)[C@H]1N

>  <UniqueID>
237

$$$$
ZINC000100342293
  rDOCK(R)          3D
libRbt.so/2013.1/901 2013/11/27
 25 26  0  0  0  0  0  0  0  0999 V2000
   33.2625   -6.5662  -67.5074 C   0  0  0  0  0  0
   32.4867   -6.1694  -66.3814 O   0  0  0  0  0  0
   32.6930   -4.9874  -65.6545 C   0  0  0  0  0  0
   33.6504   -4.0266  -66.0308 C   0  0  0  0  0  0
   33.8183   -2.8637  -65.2728 C   0  0  0  0  0  0
   33.0365   -2.6402  -64.1295 C   0  0  0  0  0  0
   33.2323   -1.4038  -63.3470 C   0  0  0  0  0  0
   33.8673   -0.3891  -63.8491 N   0  0  0  0  0  0
   34.0966    0.8565  -63.1160 C   0  0  0  0  0  0
   34.2332    0.5898  -61.5892 C   0  0  0  0  0  0
   35.0402   -0.5194  -61.2659 O   0  0  0  0  0  0
   34.6242    1.7441  -60.8624 O   0  0  0  0  0  0
   35.8486    2.2876  -61.3286 C   0  0  0  0  0  0
   36.2363    3.4517  -60.4034 C   0  0  0  0  0  0
   37.5990    3.7536  -60.5397 O   0  0  0  0  0  0
   35.7036    2.7724  -62.7899 C   0  0  0  0  0  0
   36.9106    3.3298  -63.2492 O   0  0  0  0  0  0
   35.3195    1.5959  -63.6965 C   0  0  0  0  0  0
   36.4182    0.7293  -63.8442 O   0  0  0  0  0  0
   32.0805   -3.6011  -63.7555 C   0  0  0  0  0  0
   31.9137   -4.7631  -64.5143 C   0  0  0  0  0  0
   34.8471   -0.7974  -60.3372 H   0  0  0  0  0  0
   38.0998    2.9533  -60.2321 H   0  0  0  0  0  0
   36.6783    4.1240  -63.7978 H   0  0  0  0  0  0
   36.0711   -0.1217  -64.2200 H   0  0  0  0  0  0
  1  2  1  0  0  0
  2  3  1  0  0  0
  3  4  2  0  0  0
  4  5  1  0  0  0
  5  6  2  0  0  0
  6  7  1  0  0  0
  6 20  1  0  0  0
  7  8  2  0  0  0
  8  9  1  0  0  0
  9 10  1  0  0  0
 10 11  1  0  0  0
 10 12  1  0  0  0
 11 22  1  0  0  0
 12 13  1  0  0  0
 13 14  1  0  0  0
 13 16  1  0  0  0
 14 15  1  0  0  0
 15 23  1  0  0  0
 16 17  1  0  0  0
 16 18  1  0  0  0
 17 24  1  0  0  0
 18 19  1  0  0  0
 18  9  1  0  0  0
 19 25  1  0  0  0
 20 21  2  0  0  0
 21  3  1  0  0  0
M  END
>  <CHROM.0>
-73.32904033,-58.40615888,62.48191223

>  <CHROM.1>
4.17917070,16.45295712,31.18416198,-161.87156941,161.52911084,-63.75288651
-140.56797819,42.86091193,34.48717394,-0.69511679,-63.42502430,-2.13867606
0.83574120,0.93886164

>  <Energy>
42.75587343532495

>  <Genealogy>
COc1ccc(/C=N/[C@H]2[C@@H](O)O[C@H](CO)[C@@H](O)[C@H]2O)cc1 (3D coordinates assigned)
COc1ccc(/C=N/[C@H]2[C@@H](O)O[C@H](CO)[C@@H](O)[C@H]2O)cc1 (nonaromatic ring conformer: 42.75587343532495 kcal/mol)

>  <Name>
ZINC000100342293

>  <RI>
2.59779e+07

>  <Rbt.Current_Directory>
/home/edward/Documentos/Virtual_Screening/rDock/N-terminal/2

>  <Rbt.Executable>
rbdock ($Id: //depot/dev/client3/rdock/2013.1/src/exe/rbdock.cxx#4 $)

>  <Rbt.Library>
libRbt.so (2013.1, Build901 2013/11/27)

>  <Rbt.Parameter_File>
/home/edward/anaconda3/envs/MD/share/rdock-2013.1-1/data/scripts/dock.prm

>  <Rbt.Receptor>
parameters.prm

>  <SCORE>
-24.2202

>  <SCORE.INTER>
-25.0198

>  <SCORE.INTER.CONST>
1

>  <SCORE.INTER.POLAR>
-4.68646

>  <SCORE.INTER.REPUL>
0.146874

>  <SCORE.INTER.ROT>
4

>  <SCORE.INTER.VDW>
-19.2202

>  <SCORE.INTER.norm>
-1.19142

>  <SCORE.INTRA>
0.936067

>  <SCORE.INTRA.DIHEDRAL>
0.249944

>  <SCORE.INTRA.DIHEDRAL.0>
11.6325

>  <SCORE.INTRA.POLAR>
-0.0922984

>  <SCORE.INTRA.POLAR.0>
-0.0977556

>  <SCORE.INTRA.REPUL>
0

>  <SCORE.INTRA.REPUL.0>
0

>  <SCORE.INTRA.VDW>
1.12491

>  <SCORE.INTRA.VDW.0>
-0.466596

>  <SCORE.INTRA.norm>
0.0445746

>  <SCORE.RESTR>
0

>  <SCORE.RESTR.CAVITY>
0

>  <SCORE.RESTR.norm>
0

>  <SCORE.SYSTEM>
-0.136462

>  <SCORE.SYSTEM.CONST>
0

>  <SCORE.SYSTEM.DIHEDRAL>
0.884604

>  <SCORE.SYSTEM.VDW>
-0.578764

>  <SCORE.SYSTEM.norm>
-0.0064982

>  <SCORE.heavy>
21

>  <SCORE.norm>
-1.15334

>  <SMILES>
COc1ccc(/C=N/[C@H]2[C@@H](O)O[C@H](CO)[C@@H](O)[C@H]2O)cc1

>  <UniqueID>
239

$$$$
ZINC000100656214
  rDOCK(R)          3D
libRbt.so/2013.1/901 2013/11/27
 26 27  0  0  0  0  0  0  0  0999 V2000
   31.6020    0.0993  -64.1817 H   0  0  0  0  0  0
   31.7541   -0.8541  -64.4881 O   0  0  0  0  0  0
   32.9586   -1.5103  -64.2358 C   0  0  0  0  0  0
   33.9603   -0.8779  -63.7012 N   0  0  0  0  0  0
   33.9339    0.5247  -63.2772 C   0  0  0  0  0  0
   35.0907    1.2889  -63.9526 C   0  0  0  0  0  0
   36.3128    0.6236  -63.7378 O   0  0  0  0  0  0
   36.2077   -0.2998  -64.0870 H   0  0  0  0  0  0
   35.1787    2.7180  -63.3902 C   0  0  0  0  0  0
   36.3395    3.3364  -63.8873 O   0  0  0  0  0  0
   36.3199    4.2830  -63.5886 H   0  0  0  0  0  0
   35.2016    2.6740  -61.8412 C   0  0  0  0  0  0
   35.2060    4.0855  -61.2316 C   0  0  0  0  0  0
   35.3132    4.0354  -59.8341 O   0  0  0  0  0  0
   35.3566    4.9755  -59.5178 H   0  0  0  0  0  0
   34.0491    2.0020  -61.3648 O   0  0  0  0  0  0
   34.0634    0.6350  -61.7423 C   0  0  0  0  0  0
   32.9523   -0.0089  -61.1411 O   0  0  0  0  0  0
   33.1053   -1.4175  -61.1389 C   0  0  0  0  0  0
   31.8806   -2.1058  -60.5923 C   0  0  0  0  0  0
   31.1315   -2.9649  -61.4121 C   0  0  0  0  0  0
   29.9652   -3.5628  -60.9245 C   0  0  0  0  0  0
   29.5366   -3.3018  -59.6200 C   0  0  0  0  0  0
   30.2737   -2.4424  -58.8006 C   0  0  0  0  0  0
   31.4413   -1.8438  -59.2837 C   0  0  0  0  0  0
   33.1175   -2.9452  -64.6223 C   0  0  0  0  0  0
  1  2  1  0  0  0
  2  3  1  0  0  0
  3  4  2  0  0  0
  3 26  1  0  0  0
  4  5  1  0  0  0
  5  6  1  0  0  0
  6  7  1  0  0  0
  6  9  1  0  0  0
  7  8  1  0  0  0
  9 10  1  0  0  0
  9 12  1  0  0  0
 10 11  1  0  0  0
 12 13  1  0  0  0
 12 16  1  0  0  0
 13 14  1  0  0  0
 14 15  1  0  0  0
 16 17  1  0  0  0
 17 18  1  0  0  0
 17  5  1  0  0  0
 18 19  1  0  0  0
 19 20  1  0  0  0
 20 21  2  0  0  0
 21 22  1  0  0  0
 22 23  2  0  0  0
 23 24  1  0  0  0
 24 25  2  0  0  0
 25 20  1  0  0  0
M  END
>  <CHROM.0>
-71.34695946,-56.82018688,63.30507710

>  <CHROM.1>
-5.92603396,-125.41336091,56.88352361,174.05883301,-176.20861017,177.16230178
78.25413294,-175.81745150,117.03970119,33.40570363,0.03532357,-62.05803121
-2.93382870,0.88114373,1.00695413

>  <Energy>
42.480863317579264

>  <Genealogy>
CC(O)=N[C@@H]1[C@H](O)[C@H](O)[C@@H](CO)O[C@H]1OCc1ccccc1 (tautomer)
C/C(O)=N\[C@@H]1[C@H](O)[C@H](O)[C@@H](CO)O[C@H]1OCc1ccccc1 (cis-trans isomerization)
C/C(O)=N\[C@@H]1[C@H](O)[C@H](O)[C@@H](CO)O[C@H]1OCc1ccccc1 (3D coordinates assigned)
C/C(O)=N\[C@@H]1[C@H](O)[C@H](O)[C@@H](CO)O[C@H]1OCc1ccccc1 (nonaromatic ring conformer: 42.480863317579264 kcal/mol)

>  <Name>
ZINC000100656214

>  <RI>
2.59779e+07

>  <Rbt.Current_Directory>
/home/edward/Documentos/Virtual_Screening/rDock/N-terminal/2

>  <Rbt.Executable>
rbdock ($Id: //depot/dev/client3/rdock/2013.1/src/exe/rbdock.cxx#4 $)

>  <Rbt.Library>
libRbt.so (2013.1, Build901 2013/11/27)

>  <Rbt.Parameter_File>
/home/edward/anaconda3/envs/MD/share/rdock-2013.1-1/data/scripts/dock.prm

>  <Rbt.Receptor>
parameters.prm

>  <SCORE>
-22.8752

>  <SCORE.INTER>
-18.4612

>  <SCORE.INTER.CONST>
1

>  <SCORE.INTER.POLAR>
-3.56059

>  <SCORE.INTER.REPUL>
0.224739

>  <SCORE.INTER.ROT>
5

>  <SCORE.INTER.VDW>
-17.8789

>  <SCORE.INTER.norm>
-0.839147

>  <SCORE.INTRA>
-4.33558

>  <SCORE.INTRA.DIHEDRAL>
-12.2226

>  <SCORE.INTRA.DIHEDRAL.0>
15.1098

>  <SCORE.INTRA.POLAR>
-0.0652974

>  <SCORE.INTRA.POLAR.0>
0

>  <SCORE.INTRA.REPUL>
0

>  <SCORE.INTRA.REPUL.0>
0

>  <SCORE.INTRA.VDW>
1.99772

>  <SCORE.INTRA.VDW.0>
-3.50005

>  <SCORE.INTRA.norm>
-0.197072

>  <SCORE.RESTR>
0

>  <SCORE.RESTR.CAVITY>
0

>  <SCORE.RESTR.norm>
0

>  <SCORE.SYSTEM>
-0.0783461

>  <SCORE.SYSTEM.CONST>
0

>  <SCORE.SYSTEM.DIHEDRAL>
0.720455

>  <SCORE.SYSTEM.VDW>
-0.438573

>  <SCORE.SYSTEM.norm>
-0.00356119

>  <SCORE.heavy>
22

>  <SCORE.norm>
-1.03978

>  <SMILES>
C/C(O)=N\[C@@H]1[C@H](O)[C@H](O)[C@@H](CO)O[C@H]1OCc1ccccc1

>  <UniqueID>
242

$$$$
ZINC000100815672
  rDOCK(R)          3D
libRbt.so/2013.1/901 2013/11/27
 29 30  0  0  0  0  0  0  0  0999 V2000
   31.3182   -0.0859  -63.5626 H   0  0  0  0  0  0
   31.4180   -0.9587  -64.0666 O   0  0  0  0  0  0
   32.6693   -1.4315  -64.4562 C   0  0  0  0  0  0
   33.7435   -0.7116  -64.2975 N   0  0  0  0  0  0
   33.8676    0.6305  -63.7090 C   0  0  0  0  0  0
   35.1511    1.3565  -64.1538 C   0  0  0  0  0  0
   36.2885    0.6142  -63.7930 O   0  0  0  0  0  0
   36.1458   -0.3133  -64.1167 H   0  0  0  0  0  0
   35.1970    2.7509  -63.4908 C   0  0  0  0  0  0
   36.4401    3.3583  -63.7338 O   0  0  0  0  0  0
   36.3570    4.3046  -63.4447 H   0  0  0  0  0  0
   34.9485    2.6270  -61.9633 C   0  0  0  0  0  0
   34.9047    4.0055  -61.2896 C   0  0  0  0  0  0
   36.1553    4.6319  -61.3715 O   0  0  0  0  0  0
   36.0626    5.4960  -60.8923 H   0  0  0  0  0  0
   33.7071    1.9824  -61.7153 O   0  0  0  0  0  0
   33.7355    0.6392  -62.1717 C   0  0  0  0  0  0
   32.5165    0.0079  -61.8289 O   0  0  0  0  0  0
   32.5554   -0.4426  -60.4911 C   0  0  0  0  0  0
   31.8562    0.5633  -59.6243 C   0  0  0  0  0  0
   31.3241    1.7337  -60.1907 C   0  0  0  0  0  0
   30.7076    2.6912  -59.3791 C   0  0  0  0  0  0
   30.6296    2.4932  -57.9978 C   0  0  0  0  0  0
   31.1727    1.3397  -57.4250 C   0  0  0  0  0  0
   31.7903    0.3798  -58.2330 C   0  0  0  0  0  0
   32.7739   -2.7824  -65.0981 C   0  0  0  0  0  0
   34.0707   -2.9898  -65.5298 F   0  0  0  0  0  0
   31.9194   -2.8815  -66.1830 F   0  0  0  0  0  0
   32.4422   -3.7539  -64.1725 F   0  0  0  0  0  0
  1  2  1  0  0  0
  2  3  1  0  0  0
  3  4  2  0  0  0
  3 26  1  0  0  0
  4  5  1  0  0  0
  5  6  1  0  0  0
  6  7  1  0  0  0
  6  9  1  0  0  0
  7  8  1  0  0  0
  9 10  1  0  0  0
  9 12  1  0  0  0
 10 11  1  0  0  0
 12 13  1  0  0  0
 12 16  1  0  0  0
 13 14  1  0  0  0
 14 15  1  0  0  0
 16 17  1  0  0  0
 17 18  1  0  0  0
 17  5  1  0  0  0
 18 19  1  0  0  0
 19 20  1  0  0  0
 20 21  2  0  0  0
 21 22  1  0  0  0
 22 23  2  0  0  0
 23 24  1  0  0  0
 24 25  2  0  0  0
 25 20  1  0  0  0
 26 27  1  0  0  0
 26 28  1  0  0  0
 26 29  1  0  0  0
M  END
>  <CHROM.0>
177.74193863,-59.90692397,-179.48868558

>  <CHROM.1>
-6.45529073,173.68310590,-158.65605156,50.51695520,169.32199143,-65.34329438
-178.07340770,158.91993481,98.46274169,-1.26916346,33.34168764,0.52999982
-62.42783123,1.55155246,-0.71840623,-2.34020950

>  <Energy>
45.04426487040549

>  <Genealogy>
OC[C@H]1O[C@@H](OCc2ccccc2)[C@H](N=C(O)C(F)(F)F)[C@H](O)[C@@H]1O (tautomer)
OC[C@H]1O[C@@H](OCc2ccccc2)[C@H](/N=C(/O)C(F)(F)F)[C@H](O)[C@@H]1O (cis-trans isomerization)
OC[C@H]1O[C@@H](OCc2ccccc2)[C@H](/N=C(/O)C(F)(F)F)[C@H](O)[C@@H]1O (3D coordinates assigned)
OC[C@H]1O[C@@H](OCc2ccccc2)[C@H](/N=C(/O)C(F)(F)F)[C@H](O)[C@@H]1O (nonaromatic ring conformer: 45.04426487040549 kcal/mol)

>  <Name>
ZINC000100815672

>  <RI>
2.59779e+07

>  <Rbt.Current_Directory>
/home/edward/Documentos/Virtual_Screening/rDock/N-terminal/2

>  <Rbt.Executable>
rbdock ($Id: //depot/dev/client3/rdock/2013.1/src/exe/rbdock.cxx#4 $)

>  <Rbt.Library>
libRbt.so (2013.1, Build901 2013/11/27)

>  <Rbt.Parameter_File>
/home/edward/anaconda3/envs/MD/share/rdock-2013.1-1/data/scripts/dock.prm

>  <Rbt.Receptor>
parameters.prm

>  <SCORE>
-18.7121

>  <SCORE.INTER>
-17.6882

>  <SCORE.INTER.CONST>
1

>  <SCORE.INTER.POLAR>
-3.35865

>  <SCORE.INTER.REPUL>
0.065185

>  <SCORE.INTER.ROT>
6

>  <SCORE.INTER.VDW>
-17.9947

>  <SCORE.INTER.norm>
-0.707526

>  <SCORE.INTRA>
-0.0403975

>  <SCORE.INTRA.DIHEDRAL>
2.71482

>  <SCORE.INTRA.DIHEDRAL.0>
8.89591

>  <SCORE.INTRA.POLAR>
-0.630863

>  <SCORE.INTRA.POLAR.0>
0

>  <SCORE.INTRA.REPUL>
-0.0702247

>  <SCORE.INTRA.REPUL.0>
0.0702247

>  <SCORE.INTRA.VDW>
1.09825

>  <SCORE.INTRA.VDW.0>
-3.20853

>  <SCORE.INTRA.norm>
-0.0016159

>  <SCORE.RESTR>
0

>  <SCORE.RESTR.CAVITY>
0

>  <SCORE.RESTR.norm>
0

>  <SCORE.SYSTEM>
-0.983531

>  <SCORE.SYSTEM.CONST>
0

>  <SCORE.SYSTEM.DIHEDRAL>
0.0264653

>  <SCORE.SYSTEM.REPUL>
0.0460164

>  <SCORE.SYSTEM.VDW>
-1.22685

>  <SCORE.SYSTEM.norm>
-0.0393412

>  <SCORE.heavy>
25

>  <SCORE.norm>
-0.748483

>  <SMILES>
OC[C@H]1O[C@@H](OCc2ccccc2)[C@H](/N=C(/O)C(F)(F)F)[C@H](O)[C@@H]1O

>  <UniqueID>
244

$$$$
ZINC000101073479
  rDOCK(R)          3D
libRbt.so/2013.1/901 2013/11/27
 25 26  0  0  0  0  0  0  0  0999 V2000
   35.2098   -4.8363  -66.4727 C   0  0  0  0  0  0
   34.5703   -4.4170  -65.2716 O   0  0  0  0  0  0
   35.0957   -3.4641  -64.3863 C   0  0  0  0  0  0
   36.4123   -3.5364  -63.8923 C   0  0  0  0  0  0
   36.8895   -2.5591  -63.0132 C   0  0  0  0  0  0
   36.0697   -1.4892  -62.6308 C   0  0  0  0  0  0
   36.5893   -0.4819  -61.6860 C   0  0  0  0  0  0
   36.0738    0.7053  -61.5382 N   0  0  0  0  0  0
   34.8920    1.2489  -62.2204 C   0  0  0  0  0  0
   35.1489    2.7209  -62.5862 C   0  0  0  0  0  0
   36.3040    2.8232  -63.3795 O   0  0  0  0  0  0
   35.2577    3.6044  -61.3168 C   0  0  0  0  0  0
   36.5748    3.6023  -60.8227 O   0  0  0  0  0  0
   34.3032    3.0869  -60.2074 C   0  0  0  0  0  0
   33.7545    4.2393  -59.3539 C   0  0  0  0  0  0
   32.8248    3.7691  -58.4147 O   0  0  0  0  0  0
   33.2139    2.3942  -60.7886 O   0  0  0  0  0  0
   33.6370    1.1364  -61.3013 C   0  0  0  0  0  0
   32.5828    0.5829  -62.0425 O   0  0  0  0  0  0
   34.7494   -1.4322  -63.1006 C   0  0  0  0  0  0
   34.2716   -2.4085  -63.9793 C   0  0  0  0  0  0
   36.4161    3.7856  -63.5965 H   0  0  0  0  0  0
   37.1464    4.0329  -61.5110 H   0  0  0  0  0  0
   33.3425    3.2822  -57.7216 H   0  0  0  0  0  0
   32.4090    1.2055  -62.7959 H   0  0  0  0  0  0
  1  2  1  0  0  0
  2  3  1  0  0  0
  3  4  2  0  0  0
  4  5  1  0  0  0
  5  6  2  0  0  0
  6  7  1  0  0  0
  6 20  1  0  0  0
  7  8  2  0  0  0
  8  9  1  0  0  0
  9 10  1  0  0  0
 10 11  1  0  0  0
 10 12  1  0  0  0
 11 22  1  0  0  0
 12 13  1  0  0  0
 12 14  1  0  0  0
 13 23  1  0  0  0
 14 15  1  0  0  0
 14 17  1  0  0  0
 15 16  1  0  0  0
 16 24  1  0  0  0
 17 18  1  0  0  0
 18 19  1  0  0  0
 18  9  1  0  0  0
 19 25  1  0  0  0
 20 21  2  0  0  0
 21  3  1  0  0  0
M  END
>  <CHROM.0>
71.42817750,-175.10422295,179.13003813

>  <CHROM.1>
-50.62732890,161.21456827,-140.35401998,179.23081659,64.57176163,175.99718495
72.52804279,-60.75095624,34.92991987,0.36181887,-62.26916881,1.43838739,-0.32068961
-2.62602176

>  <Energy>
54.4188035308128

>  <Genealogy>
COc1ccc(/C=N\[C@@H]2[C@H](O)[C@H](O)[C@@H](CO)O[C@H]2O)cc1 (3D coordinates assigned)
COc1ccc(/C=N\[C@@H]2[C@H](O)[C@H](O)[C@@H](CO)O[C@H]2O)cc1 (nonaromatic ring conformer: 54.4188035308128 kcal/mol)

>  <Name>
ZINC000101073479

>  <RI>
2.59779e+07

>  <Rbt.Current_Directory>
/home/edward/Documentos/Virtual_Screening/rDock/N-terminal/2

>  <Rbt.Executable>
rbdock ($Id: //depot/dev/client3/rdock/2013.1/src/exe/rbdock.cxx#4 $)

>  <Rbt.Library>
libRbt.so (2013.1, Build901 2013/11/27)

>  <Rbt.Parameter_File>
/home/edward/anaconda3/envs/MD/share/rdock-2013.1-1/data/scripts/dock.prm

>  <Rbt.Receptor>
parameters.prm

>  <SCORE>
-28.7036

>  <SCORE.INTER>
-25.1005

>  <SCORE.INTER.CONST>
1

>  <SCORE.INTER.POLAR>
-4.42487

>  <SCORE.INTER.REPUL>
0.0179822

>  <SCORE.INTER.ROT>
4

>  <SCORE.INTER.VDW>
-19.5458

>  <SCORE.INTER.norm>
-1.19526

>  <SCORE.INTRA>
-4.1955

>  <SCORE.INTRA.DIHEDRAL>
-9.78747

>  <SCORE.INTRA.DIHEDRAL.0>
15.8282

>  <SCORE.INTRA.POLAR>
0

>  <SCORE.INTRA.POLAR.0>
0

>  <SCORE.INTRA.REPUL>
0

>  <SCORE.INTRA.REPUL.0>
0

>  <SCORE.INTRA.VDW>
0.698241

>  <SCORE.INTRA.VDW.0>
-1.40281

>  <SCORE.INTRA.norm>
-0.199786

>  <SCORE.RESTR>
0

>  <SCORE.RESTR.CAVITY>
0

>  <SCORE.RESTR.norm>
0

>  <SCORE.SYSTEM>
0.59242

>  <SCORE.SYSTEM.CONST>
0

>  <SCORE.SYSTEM.DIHEDRAL>
0.746867

>  <SCORE.SYSTEM.POLAR>
-0.0215644

>  <SCORE.SYSTEM.REPUL>
0.0534316

>  <SCORE.SYSTEM.VDW>
0.0251472

>  <SCORE.SYSTEM.norm>
0.0282105

>  <SCORE.heavy>
21

>  <SCORE.norm>
-1.36684

>  <SMILES>
COc1ccc(/C=N\[C@@H]2[C@H](O)[C@H](O)[C@@H](CO)O[C@H]2O)cc1

>  <UniqueID>
246

$$$$
ZINC000101135603
  rDOCK(R)          3D
libRbt.so/2013.1/901 2013/11/27
 32 34  0  0  0  0  0  0  0  0999 V2000
   31.9761   -1.2304  -58.1173 C   0  0  0  0  0  0
   31.8873    0.0283  -58.9165 C   0  0  0  0  0  0
   30.7855    0.6358  -58.9999 O   0  0  0  0  0  0
   33.0460    0.5205  -59.6049 N   0  0  0  0  0  0
   33.0104    1.7107  -60.4658 C   0  0  0  0  0  0
   33.3941    1.3667  -61.9144 C   0  0  0  0  0  0
   32.6291    0.2537  -62.3497 O   0  0  0  0  0  0
   31.2658    0.5929  -62.4826 C   0  0  0  0  0  0
   30.4965   -0.6464  -62.8332 C   0  0  0  0  0  0
   29.8522   -0.7483  -64.0774 C   0  0  0  0  0  0
   29.0966   -1.8833  -64.3878 C   0  0  0  0  0  0
   28.9688   -2.9164  -63.4551 C   0  0  0  0  0  0
   29.5916   -2.8135  -62.2081 C   0  0  0  0  0  0
   30.3477   -1.6799  -61.8934 C   0  0  0  0  0  0
   34.8944    1.0427  -62.0110 C   0  0  0  0  0  0
   35.1487   -0.2072  -61.4195 O   0  0  0  0  0  0
   35.7512    2.1351  -61.3238 C   0  0  0  0  0  0
   35.9609    3.3805  -62.2075 C   0  0  0  0  0  0
   36.3577    2.9917  -63.4936 O   0  0  0  0  0  0
   35.3155    2.4517  -60.0038 O   0  0  0  0  0  0
   33.9418    2.8056  -59.9030 C   0  0  0  0  0  0
   33.6990    4.0462  -60.5560 O   0  0  0  0  0  0
   34.4514    5.1067  -59.9972 C   0  0  0  0  0  0
   33.8558    5.5542  -58.6885 C   0  0  0  0  0  0
   32.5075    5.9422  -58.6282 C   0  0  0  0  0  0
   31.9324    6.3012  -57.4054 C   0  0  0  0  0  0
   32.6972    6.2711  -56.2361 C   0  0  0  0  0  0
   34.0384    5.8810  -56.2877 C   0  0  0  0  0  0
   34.6174    5.5214  -57.5085 C   0  0  0  0  0  0
   33.9413   -0.0103  -59.5054 H   0  0  0  0  0  0
   34.5716   -0.8697  -61.8817 H   0  0  0  0  0  0
   36.4689    3.8297  -64.0134 H   0  0  0  0  0  0
  1  2  1  0  0  0
  2  3  2  0  0  0
  2  4  1  0  0  0
  4  5  1  0  0  0
  4 30  1  0  0  0
  5  6  1  0  0  0
  6  7  1  0  0  0
  6 15  1  0  0  0
  7  8  1  0  0  0
  8  9  1  0  0  0
  9 10  2  0  0  0
 10 11  1  0  0  0
 11 12  2  0  0  0
 12 13  1  0  0  0
 13 14  2  0  0  0
 14  9  1  0  0  0
 15 16  1  0  0  0
 15 17  1  0  0  0
 16 31  1  0  0  0
 17 18  1  0  0  0
 17 20  1  0  0  0
 18 19  1  0  0  0
 19 32  1  0  0  0
 20 21  1  0  0  0
 21 22  1  0  0  0
 21  5  1  0  0  0
 22 23  1  0  0  0
 23 24  1  0  0  0
 24 25  2  0  0  0
 25 26  1  0  0  0
 26 27  2  0  0  0
 27 28  1  0  0  0
 28 29  2  0  0  0
 29 24  1  0  0  0
M  END
>  <CHROM.0>
-174.51103944,-60.67122515,-60.44318463

>  <CHROM.1>
-118.99880059,68.30611407,-175.38541059,-115.19479763,56.58746584,-47.97399336
179.55535892,175.08004106,-76.07199700,-55.05395570,32.88991696,1.78817841
-60.62793673,2.06606547,-0.54653497,-2.30161265

>  <Energy>
64.9550597252443

>  <Genealogy>
CC(=O)N[C@@H]1[C@H](OCc2ccccc2)[C@H](O)[C@@H](CO)O[C@H]1OCc1ccccc1 (3D coordinates assigned)
CC(=O)N[C@@H]1[C@H](OCc2ccccc2)[C@H](O)[C@@H](CO)O[C@H]1OCc1ccccc1 (nonaromatic ring conformer: 64.9550597252443 kcal/mol)

>  <Name>
ZINC000101135603

>  <RI>
2.59779e+07

>  <Rbt.Current_Directory>
/home/edward/Documentos/Virtual_Screening/rDock/N-terminal/2

>  <Rbt.Executable>
rbdock ($Id: //depot/dev/client3/rdock/2013.1/src/exe/rbdock.cxx#4 $)

>  <Rbt.Library>
libRbt.so (2013.1, Build901 2013/11/27)

>  <Rbt.Parameter_File>
/home/edward/anaconda3/envs/MD/share/rdock-2013.1-1/data/scripts/dock.prm

>  <Rbt.Receptor>
parameters.prm

>  <SCORE>
-19.7194

>  <SCORE.INTER>
-14.0553

>  <SCORE.INTER.CONST>
1

>  <SCORE.INTER.POLAR>
-3.13908

>  <SCORE.INTER.REPUL>
0.0551026

>  <SCORE.INTER.ROT>
8

>  <SCORE.INTER.VDW>
-17.0579

>  <SCORE.INTER.norm>
-0.484665

>  <SCORE.INTRA>
-4.68877

>  <SCORE.INTRA.DIHEDRAL>
-13.1459

>  <SCORE.INTRA.DIHEDRAL.0>
18.4379

>  <SCORE.INTRA.POLAR>
-0.184111

>  <SCORE.INTRA.POLAR.0>
0

>  <SCORE.INTRA.REPUL>
0

>  <SCORE.INTRA.REPUL.0>
0

>  <SCORE.INTRA.VDW>
2.51016

>  <SCORE.INTRA.VDW.0>
-5.17259

>  <SCORE.INTRA.norm>
-0.161682

>  <SCORE.RESTR>
0

>  <SCORE.RESTR.CAVITY>
0

>  <SCORE.RESTR.norm>
0

>  <SCORE.SYSTEM>
-0.97532

>  <SCORE.SYSTEM.CONST>
0

>  <SCORE.SYSTEM.DIHEDRAL>
0.150851

>  <SCORE.SYSTEM.REPUL>
0.0247915

>  <SCORE.SYSTEM.VDW>
-1.1747

>  <SCORE.SYSTEM.norm>
-0.0336317

>  <SCORE.heavy>
29

>  <SCORE.norm>
-0.679978

>  <SMILES>
CC(=O)N[C@@H]1[C@H](OCc2ccccc2)[C@H](O)[C@@H](CO)O[C@H]1OCc1ccccc1

>  <UniqueID>
248

$$$$
ZINC000101136391
  rDOCK(R)          3D
libRbt.so/2013.1/901 2013/11/27
 24 25  0  0  0  0  0  0  0  0999 V2000
   32.0407   -1.0923  -62.7379 N   0  0  0  0  0  0
   32.6432    0.2276  -62.9468 C   0  0  0  0  0  0
   33.8284    0.1209  -63.9272 C   0  0  0  0  0  0
   34.7039   -0.8944  -63.4980 O   0  0  0  0  0  0
   34.5661    1.4737  -64.0050 C   0  0  0  0  0  0
   35.7129    1.3706  -64.8140 O   0  0  0  0  0  0
   34.8961    1.9938  -62.5794 C   0  0  0  0  0  0
   35.5483    3.3824  -62.6249 C   0  0  0  0  0  0
   36.6491    3.3796  -63.4916 O   0  0  0  0  0  0
   33.7042    2.0981  -61.8190 O   0  0  0  0  0  0
   33.1245    0.8210  -61.6041 C   0  0  0  0  0  0
   32.0042    0.9721  -60.7512 O   0  0  0  0  0  0
   32.4061    1.3635  -59.4520 C   0  0  0  0  0  0
   32.7183    2.8361  -59.4225 C   0  0  0  0  0  0
   34.0432    3.2836  -59.2861 C   0  0  0  0  0  0
   34.3218    4.6530  -59.2378 C   0  0  0  0  0  0
   33.2817    5.5828  -59.3230 C   0  0  0  0  0  0
   31.9607    5.1446  -59.4514 C   0  0  0  0  0  0
   31.6777    3.7761  -59.4978 C   0  0  0  0  0  0
   31.6325   -1.4211  -63.6430 H   0  0  0  0  0  0
   32.8043   -1.7698  -62.5088 H   0  0  0  0  0  0
   35.5018   -0.8609  -64.0878 H   0  0  0  0  0  0
   35.4150    1.2489  -65.7531 H   0  0  0  0  0  0
   36.8563    4.3324  -63.6767 H   0  0  0  0  0  0
  1  2  1  0  0  0
  1 20  1  0  0  0
  1 21  1  0  0  0
  2  3  1  0  0  0
  3  4  1  0  0  0
  3  5  1  0  0  0
  4 22  1  0  0  0
  5  6  1  0  0  0
  5  7  1  0  0  0
  6 23  1  0  0  0
  7  8  1  0  0  0
  7 10  1  0  0  0
  8  9  1  0  0  0
  9 24  1  0  0  0
 10 11  1  0  0  0
 11 12  1  0  0  0
 11  2  1  0  0  0
 12 13  1  0  0  0
 13 14  1  0  0  0
 14 15  2  0  0  0
 15 16  1  0  0  0
 16 17  2  0  0  0
 17 18  1  0  0  0
 18 19  2  0  0  0
 19 14  1  0  0  0
M  END
>  <CHROM.0>
-176.91959841,-59.60425783,-62.76087587

>  <CHROM.1>
-64.54431641,-173.42981024,69.43449513,-52.56159402,164.14120684,173.07215362
78.66562868,-109.41118879,33.73820238,2.04310251,-61.72572350,1.21531817
-0.69727661,-2.50170721

>  <Energy>
39.85106491009527

>  <Genealogy>
N[C@@H]1[C@H](O)[C@H](O)[C@@H](CO)O[C@H]1OCc1ccccc1 (3D coordinates assigned)
N[C@@H]1[C@H](O)[C@H](O)[C@@H](CO)O[C@H]1OCc1ccccc1 (nonaromatic ring conformer: 39.85106491009527 kcal/mol)

>  <Name>
ZINC000101136391

>  <RI>
2.59779e+07

>  <Rbt.Current_Directory>
/home/edward/Documentos/Virtual_Screening/rDock/N-terminal/2

>  <Rbt.Executable>
rbdock ($Id: //depot/dev/client3/rdock/2013.1/src/exe/rbdock.cxx#4 $)

>  <Rbt.Library>
libRbt.so (2013.1, Build901 2013/11/27)

>  <Rbt.Parameter_File>
/home/edward/anaconda3/envs/MD/share/rdock-2013.1-1/data/scripts/dock.prm

>  <Rbt.Receptor>
parameters.prm

>  <SCORE>
-21.0497

>  <SCORE.INTER>
-17.8424

>  <SCORE.INTER.CONST>
1

>  <SCORE.INTER.POLAR>
-4.26166

>  <SCORE.INTER.REPUL>
0.11249

>  <SCORE.INTER.ROT>
5

>  <SCORE.INTER.VDW>
-14.3152

>  <SCORE.INTER.norm>
-0.939076

>  <SCORE.INTRA>
-2.21697

>  <SCORE.INTRA.DIHEDRAL>
-5.73687

>  <SCORE.INTRA.DIHEDRAL.0>
10.4253

>  <SCORE.INTRA.POLAR>
-0.0623265

>  <SCORE.INTRA.POLAR.0>
0

>  <SCORE.INTRA.REPUL>
0

>  <SCORE.INTRA.REPUL.0>
0

>  <SCORE.INTRA.VDW>
0.863378

>  <SCORE.INTRA.VDW.0>
-1.91731

>  <SCORE.INTRA.norm>
-0.116683

>  <SCORE.RESTR>
0

>  <SCORE.RESTR.CAVITY>
0

>  <SCORE.RESTR.norm>
0

>  <SCORE.SYSTEM>
-0.990337

>  <SCORE.SYSTEM.CONST>
0

>  <SCORE.SYSTEM.DIHEDRAL>
0.0850469

>  <SCORE.SYSTEM.REPUL>
0.0315297

>  <SCORE.SYSTEM.VDW>
-1.19051

>  <SCORE.SYSTEM.norm>
-0.052123

>  <SCORE.heavy>
19

>  <SCORE.norm>
-1.10788

>  <SMILES>
N[C@@H]1[C@H](O)[C@H](O)[C@@H](CO)O[C@H]1OCc1ccccc1

>  <UniqueID>
249

$$$$
ZINC000101178654
  rDOCK(R)          3D
libRbt.so/2013.1/901 2013/11/27
 22 22  0  0  0  0  0  0  0  0999 V2000
   30.8993   -0.5279  -64.5011 H   0  0  0  0  0  0
   30.6116   -1.4307  -64.1434 O   0  0  0  0  0  0
   31.2873   -2.0361  -63.0842 C   0  0  0  0  0  0
   32.2640   -1.4249  -62.4827 N   0  0  0  0  0  0
   32.7226   -0.0684  -62.7961 C   0  0  0  0  0  0
   33.8773   -0.1388  -63.8153 C   0  0  0  0  0  0
   34.8758   -1.0226  -63.3638 O   0  0  0  0  0  0
   35.6590   -0.9088  -63.9631 H   0  0  0  0  0  0
   34.4753    1.2665  -64.0157 C   0  0  0  0  0  0
   35.5951    1.2168  -64.8669 O   0  0  0  0  0  0
   35.8019    2.1439  -65.1551 H   0  0  0  0  0  0
   34.8148    1.9069  -62.6450 C   0  0  0  0  0  0
   35.3456    3.3357  -62.8293 C   0  0  0  0  0  0
   36.4716    3.3356  -63.6652 O   0  0  0  0  0  0
   36.7248    4.2859  -63.8012 H   0  0  0  0  0  0
   33.6528    1.9610  -61.8347 O   0  0  0  0  0  0
   33.1968    0.6555  -61.5153 C   0  0  0  0  0  0
   32.1014    0.7678  -60.6266 O   0  0  0  0  0  0
   32.5094    1.2501  -59.3577 C   0  0  0  0  0  0
   31.5951    0.6708  -58.2742 C   0  0  0  0  0  0
   32.4143    2.7749  -59.3666 C   0  0  0  0  0  0
   30.9122   -3.4186  -62.6586 C   0  0  0  0  0  0
  1  2  1  0  0  0
  2  3  1  0  0  0
  3  4  2  0  0  0
  3 22  1  0  0  0
  4  5  1  0  0  0
  5  6  1  0  0  0
  6  7  1  0  0  0
  6  9  1  0  0  0
  7  8  1  0  0  0
  9 10  1  0  0  0
  9 12  1  0  0  0
 10 11  1  0  0  0
 12 13  1  0  0  0
 12 16  1  0  0  0
 13 14  1  0  0  0
 14 15  1  0  0  0
 16 17  1  0  0  0
 17 18  1  0  0  0
 17  5  1  0  0  0
 18 19  1  0  0  0
 19 20  1  0  0  0
 19 21  1  0  0  0
M  END
>  <CHROM.0>
-174.14369172,-57.04833245,61.64846650

>  <CHROM.1>
3.53560006,-93.32249166,-169.97661897,165.57982203,-57.20737849,175.79359544
171.63033754,-149.31213061,33.30230527,0.56395858,-62.33095393,-2.92451315
0.75839624,0.90741799

>  <Energy>
31.743347536659584

>  <Genealogy>
CC(O)=N[C@@H]1[C@H](O)[C@H](O)[C@@H](CO)O[C@H]1OC(C)C (tautomer)
C/C(O)=N/[C@@H]1[C@H](O)[C@H](O)[C@@H](CO)O[C@H]1OC(C)C (cis-trans isomerization)
C/C(O)=N/[C@@H]1[C@H](O)[C@H](O)[C@@H](CO)O[C@H]1OC(C)C (3D coordinates assigned)
C/C(O)=N/[C@@H]1[C@H](O)[C@H](O)[C@@H](CO)O[C@H]1OC(C)C (nonaromatic ring conformer: 31.743347536659584 kcal/mol)

>  <Name>
ZINC000101178654

>  <RI>
2.59779e+07

>  <Rbt.Current_Directory>
/home/edward/Documentos/Virtual_Screening/rDock/N-terminal/2

>  <Rbt.Executable>
rbdock ($Id: //depot/dev/client3/rdock/2013.1/src/exe/rbdock.cxx#4 $)

>  <Rbt.Library>
libRbt.so (2013.1, Build901 2013/11/27)

>  <Rbt.Parameter_File>
/home/edward/anaconda3/envs/MD/share/rdock-2013.1-1/data/scripts/dock.prm

>  <Rbt.Receptor>
parameters.prm

>  <SCORE>
-19.708

>  <SCORE.INTER>
-16.3017

>  <SCORE.INTER.CONST>
1

>  <SCORE.INTER.POLAR>
-4.17568

>  <SCORE.INTER.REPUL>
0.162253

>  <SCORE.INTER.ROT>
4

>  <SCORE.INTER.VDW>
-12.3156

>  <SCORE.INTER.norm>
-0.905649

>  <SCORE.INTRA>
-2.33788

>  <SCORE.INTRA.DIHEDRAL>
-5.88551

>  <SCORE.INTRA.DIHEDRAL.0>
12.7045

>  <SCORE.INTRA.POLAR>
-0.36966

>  <SCORE.INTRA.POLAR.0>
0

>  <SCORE.INTRA.REPUL>
0

>  <SCORE.INTRA.REPUL.0>
0

>  <SCORE.INTRA.VDW>
1.86172

>  <SCORE.INTRA.VDW.0>
-2.34268

>  <SCORE.INTRA.norm>
-0.129882

>  <SCORE.RESTR>
0

>  <SCORE.RESTR.CAVITY>
0

>  <SCORE.RESTR.norm>
0

>  <SCORE.SYSTEM>
-1.06844

>  <SCORE.SYSTEM.CONST>
0

>  <SCORE.SYSTEM.DIHEDRAL>
0.224234

>  <SCORE.SYSTEM.REPUL>
0.0237542

>  <SCORE.SYSTEM.VDW>
-1.29933

>  <SCORE.SYSTEM.norm>
-0.0593578

>  <SCORE.heavy>
18

>  <SCORE.norm>
-1.09489

>  <SMILES>
C/C(O)=N/[C@@H]1[C@H](O)[C@H](O)[C@@H](CO)O[C@H]1OC(C)C

>  <UniqueID>
251

$$$$
ZINC000101361998
  rDOCK(R)          3D
libRbt.so/2013.1/901 2013/11/27
 33 35  0  0  0  0  0  0  0  0999 V2000
   31.5420   -0.4017  -64.1631 O   0  0  0  0  0  0
   32.6433   -0.9806  -64.3743 C   0  0  0  0  0  0
   33.8733   -0.3700  -63.9656 N   0  0  0  0  0  0
   33.9232    0.8722  -63.1842 C   0  0  0  0  0  0
   35.1986    1.6770  -63.5090 C   0  0  0  0  0  0
   36.3429    0.8711  -63.3577 O   0  0  0  0  0  0
   35.2885    2.8901  -62.5619 C   0  0  0  0  0  0
   36.4938    3.5895  -62.7597 O   0  0  0  0  0  0
   35.1115    2.4401  -61.0865 C   0  0  0  0  0  0
   35.1256    3.6510  -60.1431 C   0  0  0  0  0  0
   34.1232    4.5625  -60.5055 O   0  0  0  0  0  0
   33.8756    1.7608  -60.9302 O   0  0  0  0  0  0
   33.8655    0.5550  -61.6780 C   0  0  0  0  0  0
   32.6570   -0.1359  -61.4162 O   0  0  0  0  0  0
   32.5689   -0.5014  -60.0519 C   0  0  0  0  0  0
   31.4349   -1.4693  -59.8365 C   0  0  0  0  0  0
   31.6090   -2.8318  -60.1285 C   0  0  0  0  0  0
   30.5669   -3.7375  -59.9045 C   0  0  0  0  0  0
   29.3487   -3.2903  -59.3855 C   0  0  0  0  0  0
   29.1705   -1.9365  -59.0878 C   0  0  0  0  0  0
   30.2093   -1.0275  -59.3105 C   0  0  0  0  0  0
   32.6789   -2.2230  -65.0179 O   0  0  0  0  0  0
   33.8524   -3.0299  -65.0997 C   0  0  0  0  0  0
   33.5542   -4.3111  -65.8293 C   0  0  0  0  0  0
   34.2581   -4.6313  -67.0015 C   0  0  0  0  0  0
   34.0109   -5.8376  -67.6648 C   0  0  0  0  0  0
   33.0675   -6.7350  -67.1578 C   0  0  0  0  0  0
   32.3675   -6.4267  -65.9878 C   0  0  0  0  0  0
   32.6093   -5.2200  -65.3233 C   0  0  0  0  0  0
   34.7476   -0.9299  -64.0842 H   0  0  0  0  0  0
   36.2302    0.0856  -63.9547 H   0  0  0  0  0  0
   36.3455    4.2578  -63.4788 H   0  0  0  0  0  0
   34.4057    4.9736  -61.3635 H   0  0  0  0  0  0
  1  2  2  0  0  0
  2  3  1  0  0  0
  2 22  1  0  0  0
  3  4  1  0  0  0
  3 30  1  0  0  0
  4  5  1  0  0  0
  5  6  1  0  0  0
  5  7  1  0  0  0
  6 31  1  0  0  0
  7  8  1  0  0  0
  7  9  1  0  0  0
  8 32  1  0  0  0
  9 10  1  0  0  0
  9 12  1  0  0  0
 10 11  1  0  0  0
 11 33  1  0  0  0
 12 13  1  0  0  0
 13 14  1  0  0  0
 13  4  1  0  0  0
 14 15  1  0  0  0
 15 16  1  0  0  0
 16 17  2  0  0  0
 17 18  1  0  0  0
 18 19  2  0  0  0
 19 20  1  0  0  0
 20 21  2  0  0  0
 21 16  1  0  0  0
 22 23  1  0  0  0
 23 24  1  0  0  0
 24 25  2  0  0  0
 25 26  1  0  0  0
 26 27  2  0  0  0
 27 28  1  0  0  0
 28 29  2  0  0  0
 29 24  1  0  0  0
M  END
>  <CHROM.0>
-72.35926303,-176.40310237,173.69565082

>  <CHROM.1>
-169.64634953,-149.78470169,57.26498676,87.85341517,57.16596960,-70.31788809
177.75953915,-168.40292909,80.55580115,178.88353401,120.79885725,33.22687629
-0.94347221,-62.75940137,-1.82797451,0.81480735,0.72763204

>  <Energy>
52.246052377055214

>  <Genealogy>
O=C(N[C@@H]1[C@H](O)[C@H](O)[C@@H](CO)O[C@H]1OCc1ccccc1)OCc1ccccc1 (3D coordinates assigned)
O=C(N[C@@H]1[C@H](O)[C@H](O)[C@@H](CO)O[C@H]1OCc1ccccc1)OCc1ccccc1 (nonaromatic ring conformer: 52.246052377055214 kcal/mol)

>  <Name>
ZINC000101361998

>  <RI>
2.59779e+07

>  <Rbt.Current_Directory>
/home/edward/Documentos/Virtual_Screening/rDock/N-terminal/2

>  <Rbt.Executable>
rbdock ($Id: //depot/dev/client3/rdock/2013.1/src/exe/rbdock.cxx#4 $)

>  <Rbt.Library>
libRbt.so (2013.1, Build901 2013/11/27)

>  <Rbt.Parameter_File>
/home/edward/anaconda3/envs/MD/share/rdock-2013.1-1/data/scripts/dock.prm

>  <Rbt.Receptor>
parameters.prm

>  <SCORE>
-21.6367

>  <SCORE.INTER>
-22.064

>  <SCORE.INTER.CONST>
1

>  <SCORE.INTER.POLAR>
-4.35086

>  <SCORE.INTER.REPUL>
0

>  <SCORE.INTER.ROT>
8

>  <SCORE.INTER.VDW>
-20.6711

>  <SCORE.INTER.norm>
-0.760828

>  <SCORE.INTRA>
-0.18658

>  <SCORE.INTRA.DIHEDRAL>
-7.9526

>  <SCORE.INTRA.DIHEDRAL.0>
15.4625

>  <SCORE.INTRA.POLAR>
0

>  <SCORE.INTRA.POLAR.0>
0

>  <SCORE.INTRA.REPUL>
0

>  <SCORE.INTRA.REPUL.0>
0

>  <SCORE.INTRA.VDW>
3.78972

>  <SCORE.INTRA.VDW.0>
-4.77274

>  <SCORE.INTRA.norm>
-0.00643381

>  <SCORE.RESTR>
0

>  <SCORE.RESTR.CAVITY>
0

>  <SCORE.RESTR.norm>
0

>  <SCORE.SYSTEM>
0.61392

>  <SCORE.SYSTEM.CONST>
0

>  <SCORE.SYSTEM.DIHEDRAL>
0.985871

>  <SCORE.SYSTEM.REPUL>
0.0521681

>  <SCORE.SYSTEM.VDW>
-0.139856

>  <SCORE.SYSTEM.norm>
0.0211697

>  <SCORE.heavy>
29

>  <SCORE.norm>
-0.746093

>  <SMILES>
O=C(N[C@@H]1[C@H](O)[C@H](O)[C@@H](CO)O[C@H]1OCc1ccccc1)OCc1ccccc1

>  <UniqueID>
253

$$$$
ZINC000102205030
  rDOCK(R)          3D
libRbt.so/2013.1/901 2013/11/27
 24 24  0  0  0  0  0  0  0  0999 V2000
   31.8337   -0.2898  -64.7085 H   0  0  0  0  0  0
   32.0441   -1.2558  -64.9256 O   0  0  0  0  0  0
   33.2139   -1.8611  -64.4703 C   0  0  0  0  0  0
   34.0981   -1.1777  -63.8067 N   0  0  0  0  0  0
   33.9652    0.2437  -63.4749 C   0  0  0  0  0  0
   35.1889    1.0390  -63.9713 C   0  0  0  0  0  0
   36.3699    0.4220  -63.5200 O   0  0  0  0  0  0
   36.4004   -0.4809  -63.9309 H   0  0  0  0  0  0
   35.1080    2.4909  -63.4551 C   0  0  0  0  0  0
   36.2962    3.1800  -63.7493 O   0  0  0  0  0  0
   36.1568    4.1229  -63.4691 H   0  0  0  0  0  0
   34.8571    2.4949  -61.9281 C   0  0  0  0  0  0
   34.7251    3.9232  -61.3765 C   0  0  0  0  0  0
   35.9447    4.6090  -61.4601 O   0  0  0  0  0  0
   35.8003    5.5034  -61.0540 H   0  0  0  0  0  0
   33.6719    1.7787  -61.6214 O   0  0  0  0  0  0
   33.8190    0.4046  -61.9507 C   0  0  0  0  0  0
   32.6701   -0.3103  -61.5373 O   0  0  0  0  0  0
   32.5156   -0.2599  -60.1303 C   0  0  0  0  0  0
   31.4240   -1.2440  -59.7091 C   0  0  0  0  0  0
   31.8091   -2.6163  -60.0217 N   0  0  0  0  0  0
   31.2347   -3.2488  -60.9080 N   0  3  0  0  0  0
   30.6595   -3.8820  -61.7915 N   0  5  0  0  0  0
   33.4664   -3.3041  -64.7628 C   0  0  0  0  0  0
  1  2  1  0  0  0
  2  3  1  0  0  0
  3  4  2  0  0  0
  3 24  1  0  0  0
  4  5  1  0  0  0
  5  6  1  0  0  0
  6  7  1  0  0  0
  6  9  1  0  0  0
  7  8  1  0  0  0
  9 10  1  0  0  0
  9 12  1  0  0  0
 10 11  1  0  0  0
 12 13  1  0  0  0
 12 16  1  0  0  0
 13 14  1  0  0  0
 14 15  1  0  0  0
 16 17  1  0  0  0
 17 18  1  0  0  0
 17  5  1  0  0  0
 18 19  1  0  0  0
 19 20  1  0  0  0
 20 21  1  0  0  0
 21 22  2  0  0  0
 22 23  2  0  0  0
M  END
>  <CHROM.0>
72.97948646,-61.09491932,-178.77391184

>  <CHROM.1>
-3.34563729,-125.33555366,62.92078286,175.07166681,-67.52103737,-177.58151362
176.99192936,-169.80024976,63.56163765,-110.58272259,33.69457591,0.13594186
-62.44073405,-2.64199724,0.90331379,0.85841774

>  <Energy>
30.876726622235704

>  <Genealogy>
CC(O)=N[C@@H]1[C@H](O)[C@H](O)[C@@H](CO)O[C@H]1OCCN=[N+]=[N-] (tautomer)
C/C(O)=N\[C@@H]1[C@H](O)[C@H](O)[C@@H](CO)O[C@H]1OCCN=[N+]=[N-] (cis-trans isomerization)
C/C(O)=N\[C@@H]1[C@H](O)[C@H](O)[C@@H](CO)O[C@H]1OCCN=[N+]=[N-] (3D coordinates assigned)
C/C(O)=N\[C@@H]1[C@H](O)[C@H](O)[C@@H](CO)O[C@H]1OCCN=[N+]=[N-] (nonaromatic ring conformer: 30.876726622235704 kcal/mol)

>  <Name>
ZINC000102205030

>  <RI>
2.59779e+07

>  <Rbt.Current_Directory>
/home/edward/Documentos/Virtual_Screening/rDock/N-terminal/2

>  <Rbt.Executable>
rbdock ($Id: //depot/dev/client3/rdock/2013.1/src/exe/rbdock.cxx#4 $)

>  <Rbt.Library>
libRbt.so (2013.1, Build901 2013/11/27)

>  <Rbt.Parameter_File>
/home/edward/anaconda3/envs/MD/share/rdock-2013.1-1/data/scripts/dock.prm

>  <Rbt.Receptor>
parameters.prm

>  <SCORE>
-23.6917

>  <SCORE.INTER>
-14.6525

>  <SCORE.INTER.CONST>
1

>  <SCORE.INTER.POLAR>
-3.04544

>  <SCORE.INTER.REPUL>
0.0397799

>  <SCORE.INTER.ROT>
6

>  <SCORE.INTER.VDW>
-15.8969

>  <SCORE.INTER.norm>
-0.732625

>  <SCORE.INTRA>
-9.03244

>  <SCORE.INTRA.DIHEDRAL>
-15.3568

>  <SCORE.INTRA.DIHEDRAL.0>
16.609

>  <SCORE.INTRA.POLAR>
-0.397931

>  <SCORE.INTRA.POLAR.0>
0

>  <SCORE.INTRA.REPUL>
0

>  <SCORE.INTRA.REPUL.0>
0

>  <SCORE.INTRA.VDW>
-0.0010929

>  <SCORE.INTRA.VDW.0>
-1.82431

>  <SCORE.INTRA.norm>
-0.451622

>  <SCORE.RESTR>
0

>  <SCORE.RESTR.CAVITY>
0

>  <SCORE.RESTR.norm>
0

>  <SCORE.SYSTEM>
-0.0067275

>  <SCORE.SYSTEM.CONST>
0

>  <SCORE.SYSTEM.DIHEDRAL>
0.813173

>  <SCORE.SYSTEM.POLAR>
-0.0164178

>  <SCORE.SYSTEM.REPUL>
0.00826168

>  <SCORE.SYSTEM.VDW>
-0.398802

>  <SCORE.SYSTEM.norm>
-0.000336375

>  <SCORE.heavy>
20

>  <SCORE.norm>
-1.18458

>  <SMILES>
C/C(O)=N\[C@@H]1[C@H](O)[C@H](O)[C@@H](CO)O[C@H]1OCCN=[N+]=[N-]

>  <UniqueID>
255

$$$$
ZINC000102863660
  rDOCK(R)          3D
libRbt.so/2013.1/901 2013/11/27
 23 23  0  0  0  0  0  0  0  0999 V2000
   33.0748   -3.2416  -64.7359 C   0  0  0  0  0  0
   32.6767   -1.8443  -64.3896 C   0  0  0  0  0  0
   31.4569   -1.5666  -64.2326 O   0  0  0  0  0  0
   33.6836   -0.8410  -64.1979 N   0  0  0  0  0  0
   33.3728    0.4955  -63.6749 C   0  0  0  0  0  0
   33.1599    0.4166  -62.1459 C   0  0  0  0  0  0
   31.7942    0.1188  -61.8981 O   0  0  0  0  0  0
   31.5221   -0.4564  -60.6200 C   0  0  0  0  0  0
   30.0012   -0.6802  -60.5681 C   0  0  0  0  0  0
   32.2083   -1.8337  -60.4746 C   0  0  0  0  0  0
   31.9033    0.4718  -59.4395 C   0  0  0  0  0  0
   33.4663    1.6715  -61.5667 O   0  0  0  0  0  0
   34.8725    1.8782  -61.5352 C   0  0  0  0  0  0
   35.1282    3.3103  -61.0479 C   0  0  0  0  0  0
   34.3510    4.2240  -61.7780 O   0  0  0  0  0  0
   35.5482    1.6196  -62.9246 C   0  0  0  0  0  0
   36.2934    0.4294  -62.8830 O   0  0  0  0  0  0
   34.4816    1.5200  -64.0336 C   0  0  0  0  0  0
   35.0725    1.1993  -65.2681 O   0  0  0  0  0  0
   34.6842   -1.1330  -64.2714 H   0  0  0  0  0  0
   34.6874    5.1330  -61.5644 H   0  0  0  0  0  0
   36.4844    0.1793  -63.8248 H   0  0  0  0  0  0
   35.6029    1.9907  -65.5479 H   0  0  0  0  0  0
  1  2  1  0  0  0
  2  3  2  0  0  0
  2  4  1  0  0  0
  4  5  1  0  0  0
  4 20  1  0  0  0
  5  6  1  0  0  0
  6  7  1  0  0  0
  6 12  1  0  0  0
  7  8  1  0  0  0
  8  9  1  0  0  0
  8 10  1  0  0  0
  8 11  1  0  0  0
 12 13  1  0  0  0
 13 14  1  0  0  0
 13 16  1  0  0  0
 14 15  1  0  0  0
 15 21  1  0  0  0
 16 17  1  0  0  0
 16 18  1  0  0  0
 17 22  1  0  0  0
 18 19  1  0  0  0
 18  5  1  0  0  0
 19 23  1  0  0  0
M  END
>  <CHROM.0>
-74.30198737,-59.05951826,62.01816196

>  <CHROM.1>
76.95059424,158.29480549,179.51478538,-50.07489224,-168.28482219,164.55316558
166.50225111,33.39557594,0.39023381,-62.50910037,-2.58340151,0.73726381,0.83624433

>  <Energy>
47.093764464885766

>  <Genealogy>
CC(=O)N[C@H]1[C@H](OC(C)(C)C)O[C@H](CO)[C@@H](O)[C@H]1O (3D coordinates assigned)
CC(=O)N[C@H]1[C@H](OC(C)(C)C)O[C@H](CO)[C@@H](O)[C@H]1O (nonaromatic ring conformer: 47.093764464885766 kcal/mol)

>  <Name>
ZINC000102863660

>  <RI>
2.59779e+07

>  <Rbt.Current_Directory>
/home/edward/Documentos/Virtual_Screening/rDock/N-terminal/2

>  <Rbt.Executable>
rbdock ($Id: //depot/dev/client3/rdock/2013.1/src/exe/rbdock.cxx#4 $)

>  <Rbt.Library>
libRbt.so (2013.1, Build901 2013/11/27)

>  <Rbt.Parameter_File>
/home/edward/anaconda3/envs/MD/share/rdock-2013.1-1/data/scripts/dock.prm

>  <Rbt.Receptor>
parameters.prm

>  <SCORE>
-18.7316

>  <SCORE.INTER>
-14.6536

>  <SCORE.INTER.CONST>
1

>  <SCORE.INTER.POLAR>
-3.24262

>  <SCORE.INTER.REPUL>
0

>  <SCORE.INTER.ROT>
4

>  <SCORE.INTER.VDW>
-13.0287

>  <SCORE.INTER.norm>
-0.771243

>  <SCORE.INTRA>
-3.93252

>  <SCORE.INTRA.DIHEDRAL>
-8.333

>  <SCORE.INTRA.DIHEDRAL.0>
14.3877

>  <SCORE.INTRA.POLAR>
-0.0291841

>  <SCORE.INTRA.POLAR.0>
0

>  <SCORE.INTRA.REPUL>
0

>  <SCORE.INTRA.REPUL.0>
0

>  <SCORE.INTRA.VDW>
0.333204

>  <SCORE.INTRA.VDW.0>
-1.01304

>  <SCORE.INTRA.norm>
-0.206975

>  <SCORE.RESTR>
0

>  <SCORE.RESTR.CAVITY>
0

>  <SCORE.RESTR.norm>
0

>  <SCORE.SYSTEM>
-0.145464

>  <SCORE.SYSTEM.CONST>
0

>  <SCORE.SYSTEM.DIHEDRAL>
0.987545

>  <SCORE.SYSTEM.VDW>
-0.639237

>  <SCORE.SYSTEM.norm>
-0.00765601

>  <SCORE.heavy>
19

>  <SCORE.norm>
-0.985874

>  <SMILES>
CC(=O)N[C@H]1[C@H](OC(C)(C)C)O[C@H](CO)[C@@H](O)[C@H]1O

>  <UniqueID>
258

$$$$
ZINC000102974493
  rDOCK(R)          3D
libRbt.so/2013.1/901 2013/11/27
 26 27  0  0  0  0  0  0  0  0999 V2000
   33.2435   -2.6623  -64.0139 C   0  0  0  0  0  0
   34.0078   -1.5000  -63.4694 C   0  0  0  0  0  0
   35.1638   -1.6883  -63.0062 O   0  0  0  0  0  0
   33.3911   -0.2010  -63.4275 N   0  0  0  0  0  0
   33.9690    1.0191  -62.8405 C   0  0  0  0  0  0
   34.5059    0.8080  -61.4038 C   0  0  0  0  0  0
   33.4397    0.3475  -60.5685 O   0  0  0  0  0  0
   32.5266    1.1703  -59.8937 C   0  0  0  0  0  0
   32.0118    0.8407  -58.6259 C   0  0  0  0  0  0
   31.0880    1.6843  -58.0012 C   0  0  0  0  0  0
   30.6829    2.8675  -58.6266 C   0  0  0  0  0  0
   29.5195    3.9210  -57.8438 Cl  0  0  0  0  0  0
   31.2130    3.2133  -59.8734 C   0  0  0  0  0  0
   32.1371    2.3712  -60.4992 C   0  0  0  0  0  0
   34.9563    2.0446  -60.8784 O   0  0  0  0  0  0
   36.0599    2.5442  -61.6185 C   0  0  0  0  0  0
   36.6118    3.7775  -60.8881 C   0  0  0  0  0  0
   37.2367    3.3994  -59.6911 O   0  0  0  0  0  0
   35.6170    2.9049  -63.0587 C   0  0  0  0  0  0
   36.7060    3.3892  -63.8054 O   0  0  0  0  0  0
   35.0369    1.6582  -63.7521 C   0  0  0  0  0  0
   36.0670    0.7437  -64.0292 O   0  0  0  0  0  0
   32.4181   -0.1254  -63.8023 H   0  0  0  0  0  0
   38.0935    2.9652  -59.9424 H   0  0  0  0  0  0
   36.7784    4.3624  -63.6229 H   0  0  0  0  0  0
   36.3844    0.3881  -63.1584 H   0  0  0  0  0  0
  1  2  1  0  0  0
  2  3  2  0  0  0
  2  4  1  0  0  0
  4  5  1  0  0  0
  4 23  1  0  0  0
  5  6  1  0  0  0
  6  7  1  0  0  0
  6 15  1  0  0  0
  7  8  1  0  0  0
  8  9  2  0  0  0
  9 10  1  0  0  0
 10 11  2  0  0  0
 11 12  1  0  0  0
 11 13  1  0  0  0
 13 14  2  0  0  0
 14  8  1  0  0  0
 15 16  1  0  0  0
 16 17  1  0  0  0
 16 19  1  0  0  0
 17 18  1  0  0  0
 18 24  1  0  0  0
 19 20  1  0  0  0
 19 21  1  0  0  0
 20 25  1  0  0  0
 21 22  1  0  0  0
 21  5  1  0  0  0
 22 26  1  0  0  0
M  END
>  <CHROM.0>
-176.29090289,-62.03615020,-178.79963728

>  <CHROM.1>
-49.89936849,-86.41377079,-145.01174568,70.06699532,73.06215489,-85.64492546
-52.03385421,33.71216330,1.63057941,-61.19507399,0.71187362,-0.48507449,-2.51736096

>  <Energy>
42.18589618353214

>  <Genealogy>
CC(=O)N[C@H]1[C@H](Oc2ccc(Cl)cc2)O[C@H](CO)[C@@H](O)[C@H]1O (3D coordinates assigned)
CC(=O)N[C@H]1[C@H](Oc2ccc(Cl)cc2)O[C@H](CO)[C@@H](O)[C@H]1O (nonaromatic ring conformer: 42.18589618353214 kcal/mol)

>  <Name>
ZINC000102974493

>  <RI>
2.59779e+07

>  <Rbt.Current_Directory>
/home/edward/Documentos/Virtual_Screening/rDock/N-terminal/2

>  <Rbt.Executable>
rbdock ($Id: //depot/dev/client3/rdock/2013.1/src/exe/rbdock.cxx#4 $)

>  <Rbt.Library>
libRbt.so (2013.1, Build901 2013/11/27)

>  <Rbt.Parameter_File>
/home/edward/anaconda3/envs/MD/share/rdock-2013.1-1/data/scripts/dock.prm

>  <Rbt.Receptor>
parameters.prm

>  <SCORE>
-22.5426

>  <SCORE.INTER>
-21.1392

>  <SCORE.INTER.CONST>
1

>  <SCORE.INTER.POLAR>
-3.50941

>  <SCORE.INTER.REPUL>
0.0443135

>  <SCORE.INTER.ROT>
4

>  <SCORE.INTER.VDW>
-18.8288

>  <SCORE.INTER.norm>
-0.960872

>  <SCORE.INTRA>
-0.364994

>  <SCORE.INTRA.DIHEDRAL>
-4.57932

>  <SCORE.INTRA.DIHEDRAL.0>
14.5509

>  <SCORE.INTRA.POLAR>
-0.0024251

>  <SCORE.INTRA.POLAR.0>
0

>  <SCORE.INTRA.REPUL>
0

>  <SCORE.INTRA.REPUL.0>
0

>  <SCORE.INTRA.VDW>
1.93291

>  <SCORE.INTRA.VDW.0>
-3.98692

>  <SCORE.INTRA.norm>
-0.0165906

>  <SCORE.RESTR>
0

>  <SCORE.RESTR.CAVITY>
0

>  <SCORE.RESTR.norm>
0

>  <SCORE.SYSTEM>
-1.03839

>  <SCORE.SYSTEM.CONST>
0

>  <SCORE.SYSTEM.DIHEDRAL>
0.0952249

>  <SCORE.SYSTEM.REPUL>
0.0297818

>  <SCORE.SYSTEM.VDW>
-1.23492

>  <SCORE.SYSTEM.norm>
-0.0471998

>  <SCORE.heavy>
22

>  <SCORE.norm>
-1.02466

>  <SMILES>
CC(=O)N[C@H]1[C@H](Oc2ccc(Cl)cc2)O[C@H](CO)[C@@H](O)[C@H]1O

>  <UniqueID>
260

$$$$
ZINC000105341667
  rDOCK(R)          3D
libRbt.so/2013.1/901 2013/11/27
 18 18  0  0  0  0  0  0  0  0999 V2000
   37.0066    3.5438  -60.8647 C   0  0  0  0  0  0
   36.1119    2.4707  -61.0579 O   0  0  0  0  0  0
   34.9207    2.9065  -61.7002 C   0  0  0  0  0  0
   33.7212    2.1033  -61.1675 C   0  0  0  0  0  0
   33.7089    2.1392  -59.7628 O   0  0  0  0  0  0
   33.7978    0.6411  -61.6600 C   0  0  0  0  0  0
   32.6054   -0.1706  -61.1300 C   0  0  0  0  0  0
   32.6093   -0.1853  -59.7273 O   0  0  0  0  0  0
   33.7712    0.5929  -63.0770 O   0  0  0  0  0  0
   34.8954    1.2314  -63.6612 C   0  0  0  0  0  0
   36.0662    0.4643  -63.4982 O   0  0  0  0  0  0
   35.0392    2.7183  -63.2285 C   0  0  0  0  0  0
   36.2984    3.2799  -63.7225 N   0  0  0  0  0  0
   32.9043    1.6361  -59.4709 H   0  0  0  0  0  0
   33.4690   -0.5949  -59.4467 H   0  0  0  0  0  0
   35.9827   -0.3666  -64.0263 H   0  0  0  0  0  0
   36.3265    4.2948  -63.4704 H   0  0  0  0  0  0
   36.2875    3.2434  -64.7679 H   0  0  0  0  0  0
  1  2  1  0  0  0
  2  3  1  0  0  0
  3  4  1  0  0  0
  4  5  1  0  0  0
  4  6  1  0  0  0
  5 14  1  0  0  0
  6  7  1  0  0  0
  6  9  1  0  0  0
  7  8  1  0  0  0
  8 15  1  0  0  0
  9 10  1  0  0  0
 10 11  1  0  0  0
 10 12  1  0  0  0
 11 16  1  0  0  0
 12 13  1  0  0  0
 12  3  1  0  0  0
 13 17  1  0  0  0
 13 18  1  0  0  0
M  END
>  <CHROM.0>
-175.25680888,-177.20246891,62.28579741

>  <CHROM.1>
-145.38565062,178.12269096,-60.57442208,-59.35599928,66.95270994,-58.40220774
34.67303968,1.64493793,-61.83680438,-0.21566567,0.77014290,1.11808293

>  <Energy>
32.17047900534827

>  <Genealogy>
CO[C@@H]1[C@H](O)[C@@H](CO)O[C@H](O)[C@@H]1N (3D coordinates assigned)
CO[C@@H]1[C@H](O)[C@@H](CO)O[C@H](O)[C@@H]1N (nonaromatic ring conformer: 32.17047900534827 kcal/mol)

>  <Name>
ZINC000105341667

>  <RI>
2.59779e+07

>  <Rbt.Current_Directory>
/home/edward/Documentos/Virtual_Screening/rDock/N-terminal/2

>  <Rbt.Executable>
rbdock ($Id: //depot/dev/client3/rdock/2013.1/src/exe/rbdock.cxx#4 $)

>  <Rbt.Library>
libRbt.so (2013.1, Build901 2013/11/27)

>  <Rbt.Parameter_File>
/home/edward/anaconda3/envs/MD/share/rdock-2013.1-1/data/scripts/dock.prm

>  <Rbt.Receptor>
parameters.prm

>  <SCORE>
-21.2632

>  <SCORE.INTER>
-18.024

>  <SCORE.INTER.CONST>
1

>  <SCORE.INTER.POLAR>
-4.62286

>  <SCORE.INTER.REPUL>
0

>  <SCORE.INTER.ROT>
3

>  <SCORE.INTER.VDW>
-10.7063

>  <SCORE.INTER.norm>
-1.38647

>  <SCORE.INTRA>
-2.70469

>  <SCORE.INTRA.DIHEDRAL>
-7.94844

>  <SCORE.INTRA.DIHEDRAL.0>
13.0222

>  <SCORE.INTRA.POLAR>
-0.180424

>  <SCORE.INTRA.POLAR.0>
-0.154033

>  <SCORE.INTRA.REPUL>
0

>  <SCORE.INTRA.REPUL.0>
0

>  <SCORE.INTRA.VDW>
1.88297

>  <SCORE.INTRA.VDW.0>
-1.37944

>  <SCORE.INTRA.norm>
-0.208053

>  <SCORE.RESTR>
0

>  <SCORE.RESTR.CAVITY>
0

>  <SCORE.RESTR.norm>
0

>  <SCORE.SYSTEM>
-0.534424

>  <SCORE.SYSTEM.CONST>
0

>  <SCORE.SYSTEM.DIHEDRAL>
0.174758

>  <SCORE.SYSTEM.REPUL>
0.080588

>  <SCORE.SYSTEM.VDW>
-1.02474

>  <SCORE.SYSTEM.norm>
-0.0411095

>  <SCORE.heavy>
13

>  <SCORE.norm>
-1.63563

>  <SMILES>
CO[C@@H]1[C@H](O)[C@@H](CO)O[C@H](O)[C@@H]1N

>  <UniqueID>
262

$$$$
ZINC000106381125
  rDOCK(R)          3D
libRbt.so/2013.1/901 2013/11/27
 24 24  0  0  0  0  0  0  0  0999 V2000
   34.0977   -0.7262  -62.4189 C   0  0  0  0  0  0
   32.9182    0.1803  -62.7889 C   0  0  0  0  0  0
   31.8576    0.3897  -61.6560 C   0  0  0  0  0  0
   30.7157    1.3349  -62.1071 C   0  0  0  0  0  0
   31.2265   -0.9657  -61.2805 C   0  0  0  0  0  0
   32.4546    0.8688  -60.4489 O   0  0  0  0  0  0
   33.0711    2.1447  -60.5397 C   0  0  0  0  0  0
   34.3007    2.0106  -61.2287 O   0  0  0  0  0  0
   34.8148    3.2851  -61.5954 C   0  0  0  0  0  0
   36.2248    3.0778  -62.1608 C   0  0  0  0  0  0
   36.1683    2.9124  -63.5512 O   0  0  0  0  0  0
   34.8238    4.2975  -60.4028 C   0  0  0  0  0  0
   33.8046    5.2469  -60.5964 O   0  0  0  0  0  0
   34.6127    3.5515  -59.0667 C   0  0  0  0  0  0
   34.5509    4.4523  -57.9893 O   0  0  0  0  0  0
   33.3461    2.6566  -59.1067 C   0  0  0  0  0  0
   32.1665    3.3718  -58.6040 N   0  0  0  0  0  0
   31.2904    4.1133  -59.4642 C   0  0  0  0  0  0
   30.2070    4.9557  -58.8748 C   0  0  0  0  0  0
   31.4490    4.0904  -60.7148 O   0  0  0  0  0  0
   35.9741    3.8101  -63.9271 H   0  0  0  0  0  0
   34.0134    5.7331  -61.4366 H   0  0  0  0  0  0
   34.5047    3.9069  -57.1609 H   0  0  0  0  0  0
   32.0480    3.4840  -57.5716 H   0  0  0  0  0  0
  1  2  1  0  0  0
  2  3  1  0  0  0
  3  4  1  0  0  0
  3  5  1  0  0  0
  3  6  1  0  0  0
  6  7  1  0  0  0
  7  8  1  0  0  0
  8  9  1  0  0  0
  9 10  1  0  0  0
  9 12  1  0  0  0
 10 11  1  0  0  0
 11 21  1  0  0  0
 12 13  1  0  0  0
 12 14  1  0  0  0
 13 22  1  0  0  0
 14 15  1  0  0  0
 14 16  1  0  0  0
 15 23  1  0  0  0
 16 17  1  0  0  0
 16  7  1  0  0  0
 17 18  1  0  0  0
 17 24  1  0  0  0
 18 19  1  0  0  0
 18 20  2  0  0  0
M  END
>  <CHROM.0>
-173.97766345,62.96561292,176.99162777

>  <CHROM.1>
179.07429606,63.05459682,-75.20226682,91.91418964,73.37958933,-62.02285856
-174.57912710,-32.02981802,33.22545156,2.58792805,-60.73979242,-1.56532110
0.39971224,0.61778377

>  <Energy>
50.47937579834037

>  <Genealogy>
CCC(C)(C)O[C@@H]1O[C@H](CO)[C@@H](O)[C@@H](O)[C@H]1NC(C)=O (3D coordinates assigned)
CCC(C)(C)O[C@@H]1O[C@H](CO)[C@@H](O)[C@@H](O)[C@H]1NC(C)=O (nonaromatic ring conformer: 50.47937579834037 kcal/mol)

>  <Name>
ZINC000106381125

>  <RI>
2.59779e+07

>  <Rbt.Current_Directory>
/home/edward/Documentos/Virtual_Screening/rDock/N-terminal/2

>  <Rbt.Executable>
rbdock ($Id: //depot/dev/client3/rdock/2013.1/src/exe/rbdock.cxx#4 $)

>  <Rbt.Library>
libRbt.so (2013.1, Build901 2013/11/27)

>  <Rbt.Parameter_File>
/home/edward/anaconda3/envs/MD/share/rdock-2013.1-1/data/scripts/dock.prm

>  <Rbt.Receptor>
parameters.prm

>  <SCORE>
-16.8607

>  <SCORE.INTER>
-16.6905

>  <SCORE.INTER.CONST>
1

>  <SCORE.INTER.POLAR>
-4.76643

>  <SCORE.INTER.REPUL>
0.286805

>  <SCORE.INTER.ROT>
5

>  <SCORE.INTER.VDW>
-12.3187

>  <SCORE.INTER.norm>
-0.834526

>  <SCORE.INTRA>
0.0234543

>  <SCORE.INTRA.DIHEDRAL>
-2.50781

>  <SCORE.INTRA.DIHEDRAL.0>
8.49311

>  <SCORE.INTRA.POLAR>
0

>  <SCORE.INTRA.POLAR.0>
0

>  <SCORE.INTRA.REPUL>
0

>  <SCORE.INTRA.REPUL.0>
0

>  <SCORE.INTRA.VDW>
1.27736

>  <SCORE.INTRA.VDW.0>
0.815306

>  <SCORE.INTRA.norm>
0.00117272

>  <SCORE.RESTR>
0

>  <SCORE.RESTR.CAVITY>
0

>  <SCORE.RESTR.norm>
0

>  <SCORE.SYSTEM>
-0.19366

>  <SCORE.SYSTEM.CONST>
0

>  <SCORE.SYSTEM.DIHEDRAL>
0.265383

>  <SCORE.SYSTEM.REPUL>
0.163393

>  <SCORE.SYSTEM.VDW>
-1.14332

>  <SCORE.SYSTEM.norm>
-0.00968301

>  <SCORE.heavy>
20

>  <SCORE.norm>
-0.843037

>  <SMILES>
CCC(C)(C)O[C@@H]1O[C@H](CO)[C@@H](O)[C@@H](O)[C@H]1NC(C)=O

>  <UniqueID>
264

$$$$
ZINC000106382931
  rDOCK(R)          3D
libRbt.so/2013.1/901 2013/11/27
 26 27  0  0  0  0  0  0  0  0999 V2000
   35.2057    7.8748  -59.1333 C   0  0  0  0  0  0
   34.8244    6.4529  -58.8803 C   0  0  0  0  0  0
   34.7764    6.0217  -57.6963 O   0  0  0  0  0  0
   34.5405    5.5812  -59.9836 N   0  0  0  0  0  0
   34.1715    4.1719  -59.7887 C   0  0  0  0  0  0
   33.1597    3.7157  -60.8860 C   0  0  0  0  0  0
   32.0058    3.1692  -60.2473 O   0  0  0  0  0  0
   31.9652    1.9386  -59.5727 C   0  0  0  0  0  0
   31.5339    1.8178  -58.2359 C   0  0  0  0  0  0
   31.5139    0.5655  -57.6137 C   0  0  0  0  0  0
   31.9228   -0.5727  -58.3139 C   0  0  0  0  0  0
   31.9026   -1.7855  -57.7082 F   0  0  0  0  0  0
   32.3529   -0.4598  -59.6385 C   0  0  0  0  0  0
   32.3739    0.7907  -60.2639 C   0  0  0  0  0  0
   33.7057    2.7337  -61.7555 O   0  0  0  0  0  0
   34.9389    3.1813  -62.2851 C   0  0  0  0  0  0
   35.3017    2.3235  -63.5007 C   0  0  0  0  0  0
   36.4591    2.8301  -64.1057 O   0  0  0  0  0  0
   36.0378    3.1013  -61.1968 C   0  0  0  0  0  0
   37.0006    4.0960  -61.4449 O   0  0  0  0  0  0
   35.4228    3.2600  -59.7826 C   0  0  0  0  0  0
   36.3852    3.7332  -58.8739 O   0  0  0  0  0  0
   34.6522    5.9653  -60.9485 H   0  0  0  0  0  0
   36.2828    3.7919  -64.2749 H   0  0  0  0  0  0
   37.6795    4.0325  -60.7231 H   0  0  0  0  0  0
   35.9536    3.7483  -57.9798 H   0  0  0  0  0  0
  1  2  1  0  0  0
  2  3  2  0  0  0
  2  4  1  0  0  0
  4  5  1  0  0  0
  4 23  1  0  0  0
  5  6  1  0  0  0
  6  7  1  0  0  0
  6 15  1  0  0  0
  7  8  1  0  0  0
  8  9  2  0  0  0
  9 10  1  0  0  0
 10 11  2  0  0  0
 11 12  1  0  0  0
 11 13  1  0  0  0
 13 14  2  0  0  0
 14  8  1  0  0  0
 15 16  1  0  0  0
 16 17  1  0  0  0
 16 19  1  0  0  0
 17 18  1  0  0  0
 18 24  1  0  0  0
 19 20  1  0  0  0
 19 21  1  0  0  0
 20 25  1  0  0  0
 21 22  1  0  0  0
 21  5  1  0  0  0
 22 26  1  0  0  0
M  END
>  <CHROM.0>
-72.29664494,-59.73176662,-178.38619939

>  <CHROM.1>
146.35295983,-71.40929093,124.91606151,174.80556033,-53.14399072,178.84623923
59.01771643,34.05096195,2.95091819,-60.06148550,0.41445405,0.91033766,0.68621350

>  <Energy>
43.93414606792534

>  <Genealogy>
CC(=O)N[C@H]1[C@H](Oc2ccc(F)cc2)O[C@H](CO)[C@@H](O)[C@H]1O (3D coordinates assigned)
CC(=O)N[C@H]1[C@H](Oc2ccc(F)cc2)O[C@H](CO)[C@@H](O)[C@H]1O (nonaromatic ring conformer: 43.93414606792534 kcal/mol)

>  <Name>
ZINC000106382931

>  <RI>
2.59779e+07

>  <Rbt.Current_Directory>
/home/edward/Documentos/Virtual_Screening/rDock/N-terminal/2

>  <Rbt.Executable>
rbdock ($Id: //depot/dev/client3/rdock/2013.1/src/exe/rbdock.cxx#4 $)

>  <Rbt.Library>
libRbt.so (2013.1, Build901 2013/11/27)

>  <Rbt.Parameter_File>
/home/edward/anaconda3/envs/MD/share/rdock-2013.1-1/data/scripts/dock.prm

>  <Rbt.Receptor>
parameters.prm

>  <SCORE>
-19.7067

>  <SCORE.INTER>
-19.6858

>  <SCORE.INTER.CONST>
1

>  <SCORE.INTER.POLAR>
-3.33623

>  <SCORE.INTER.REPUL>
0.0559316

>  <SCORE.INTER.ROT>
4

>  <SCORE.INTER.VDW>
-18.0223

>  <SCORE.INTER.norm>
-0.894811

>  <SCORE.INTRA>
0.0305404

>  <SCORE.INTRA.DIHEDRAL>
0.454672

>  <SCORE.INTRA.DIHEDRAL.0>
4.96483

>  <SCORE.INTRA.POLAR>
-0.0271822

>  <SCORE.INTRA.POLAR.0>
0

>  <SCORE.INTRA.REPUL>
0

>  <SCORE.INTRA.REPUL.0>
0

>  <SCORE.INTRA.VDW>
-0.104376

>  <SCORE.INTRA.VDW.0>
-2.25295

>  <SCORE.INTRA.norm>
0.0013882

>  <SCORE.RESTR>
0

>  <SCORE.RESTR.CAVITY>
0

>  <SCORE.RESTR.norm>
0

>  <SCORE.SYSTEM>
-0.0514206

>  <SCORE.SYSTEM.CONST>
0

>  <SCORE.SYSTEM.DIHEDRAL>
0.733955

>  <SCORE.SYSTEM.VDW>
-0.418398

>  <SCORE.SYSTEM.norm>
-0.0023373

>  <SCORE.heavy>
22

>  <SCORE.norm>
-0.89576

>  <SMILES>
CC(=O)N[C@H]1[C@H](Oc2ccc(F)cc2)O[C@H](CO)[C@@H](O)[C@H]1O

>  <UniqueID>
266

$$$$
ZINC000106382957
  rDOCK(R)          3D
libRbt.so/2013.1/901 2013/11/27
 27 28  0  0  0  0  0  0  0  0999 V2000
   32.9411   -3.1591  -64.6821 C   0  0  0  0  0  0
   32.8159   -1.7198  -64.3022 C   0  0  0  0  0  0
   31.6750   -1.2417  -64.0592 O   0  0  0  0  0  0
   33.9939   -0.9120  -64.1578 N   0  0  0  0  0  0
   33.9606    0.4741  -63.6767 C   0  0  0  0  0  0
   33.9066    0.5269  -62.1309 C   0  0  0  0  0  0
   32.7190   -0.1224  -61.6670 O   0  0  0  0  0  0
   32.1738   -0.0660  -60.3703 C   0  0  0  0  0  0
   32.1132    1.1385  -59.6370 C   0  0  0  0  0  0
   31.5700    1.1609  -58.3517 C   0  0  0  0  0  0
   31.0740   -0.0086  -57.7805 C   0  0  0  0  0  0
   31.1156   -1.2064  -58.4938 C   0  0  0  0  0  0
   31.6589   -1.2507  -59.7887 C   0  0  0  0  0  0
   31.6861   -2.5548  -60.4887 C   0  0  0  0  0  0
   32.1798   -2.6811  -61.6404 O   0  0  0  0  0  0
   33.8444    1.8775  -61.7049 O   0  0  0  0  0  0
   35.0382    2.5737  -62.0273 C   0  0  0  0  0  0
   34.9553    3.9690  -61.3932 C   0  0  0  0  0  0
   36.1597    4.6619  -61.5723 O   0  0  0  0  0  0
   35.1997    2.6608  -63.5701 C   0  0  0  0  0  0
   36.3623    3.3595  -63.9448 O   0  0  0  0  0  0
   35.1892    1.2505  -64.1905 C   0  0  0  0  0  0
   36.3752    0.5726  -63.8497 O   0  0  0  0  0  0
   34.9222   -1.3650  -64.3172 H   0  0  0  0  0  0
   36.0561    5.5235  -61.0906 H   0  0  0  0  0  0
   36.2849    4.2878  -63.6019 H   0  0  0  0  0  0
   36.3555    0.4209  -62.8687 H   0  0  0  0  0  0
  1  2  1  0  0  0
  2  3  2  0  0  0
  2  4  1  0  0  0
  4  5  1  0  0  0
  4 24  1  0  0  0
  5  6  1  0  0  0
  6  7  1  0  0  0
  6 16  1  0  0  0
  7  8  1  0  0  0
  8  9  2  0  0  0
  9 10  1  0  0  0
 10 11  2  0  0  0
 11 12  1  0  0  0
 12 13  2  0  0  0
 13 14  1  0  0  0
 13  8  1  0  0  0
 14 15  2  0  0  0
 16 17  1  0  0  0
 17 18  1  0  0  0
 17 20  1  0  0  0
 18 19  1  0  0  0
 19 25  1  0  0  0
 20 21  1  0  0  0
 20 22  1  0  0  0
 21 26  1  0  0  0
 22 23  1  0  0  0
 22  5  1  0  0  0
 23 27  1  0  0  0
M  END
>  <CHROM.0>
-173.91294815,-60.47512058,179.02149258

>  <CHROM.1>
82.23295648,-166.77655881,42.20046404,0.51630824,174.53629438,-176.40285566
-61.87390928,-54.09132983,33.51667936,0.45802422,-61.97789154,-3.01685116
0.88277166,0.84489576

>  <Energy>
42.568866348113666

>  <Genealogy>
CC(=O)N[C@H]1[C@H](Oc2ccccc2C=O)O[C@H](CO)[C@@H](O)[C@H]1O (3D coordinates assigned)
CC(=O)N[C@H]1[C@H](Oc2ccccc2C=O)O[C@H](CO)[C@@H](O)[C@H]1O (nonaromatic ring conformer: 42.568866348113666 kcal/mol)

>  <Name>
ZINC000106382957

>  <RI>
2.59779e+07

>  <Rbt.Current_Directory>
/home/edward/Documentos/Virtual_Screening/rDock/N-terminal/2

>  <Rbt.Executable>
rbdock ($Id: //depot/dev/client3/rdock/2013.1/src/exe/rbdock.cxx#4 $)

>  <Rbt.Library>
libRbt.so (2013.1, Build901 2013/11/27)

>  <Rbt.Parameter_File>
/home/edward/anaconda3/envs/MD/share/rdock-2013.1-1/data/scripts/dock.prm

>  <Rbt.Receptor>
parameters.prm

>  <SCORE>
-21.1276

>  <SCORE.INTER>
-18.5581

>  <SCORE.INTER.CONST>
1

>  <SCORE.INTER.POLAR>
-3.42803

>  <SCORE.INTER.REPUL>
0

>  <SCORE.INTER.ROT>
5

>  <SCORE.INTER.VDW>
-17.3028

>  <SCORE.INTER.norm>
-0.806873

>  <SCORE.INTRA>
-1.54801

>  <SCORE.INTRA.DIHEDRAL>
-4.13777

>  <SCORE.INTRA.DIHEDRAL.0>
8.54244

>  <SCORE.INTRA.POLAR>
-0.417317

>  <SCORE.INTRA.POLAR.0>
0

>  <SCORE.INTRA.REPUL>
0

>  <SCORE.INTRA.REPUL.0>
0

>  <SCORE.INTRA.VDW>
1.93976

>  <SCORE.INTRA.VDW.0>
-4.23084

>  <SCORE.INTRA.norm>
-0.0673047

>  <SCORE.RESTR>
0

>  <SCORE.RESTR.CAVITY>
0

>  <SCORE.RESTR.norm>
0

>  <SCORE.SYSTEM>
-1.02155

>  <SCORE.SYSTEM.CONST>
0

>  <SCORE.SYSTEM.DIHEDRAL>
0.187141

>  <SCORE.SYSTEM.REPUL>
0.0231013

>  <SCORE.SYSTEM.VDW>
-1.23063

>  <SCORE.SYSTEM.norm>
-0.0444154

>  <SCORE.heavy>
23

>  <SCORE.norm>
-0.918593

>  <SMILES>
CC(=O)N[C@H]1[C@H](Oc2ccccc2C=O)O[C@H](CO)[C@@H](O)[C@H]1O

>  <UniqueID>
267

$$$$
ZINC000106382965
  rDOCK(R)          3D
libRbt.so/2013.1/901 2013/11/27
 27 28  0  0  0  0  0  0  0  0999 V2000
   32.5151   -2.6951  -64.5288 C   0  0  0  0  0  0
   32.5676   -1.2936  -64.0124 C   0  0  0  0  0  0
   31.4976   -0.7164  -63.6777 O   0  0  0  0  0  0
   33.8229   -0.6035  -63.9324 N   0  0  0  0  0  0
   33.9226    0.7927  -63.4912 C   0  0  0  0  0  0
   33.8742    0.8858  -61.9524 C   0  0  0  0  0  0
   32.6386    0.3356  -61.4973 O   0  0  0  0  0  0
   32.0954    0.5337  -60.2183 C   0  0  0  0  0  0
   31.3793    1.7117  -59.9777 C   0  0  0  0  0  0
   30.8182    1.9599  -58.7218 C   0  0  0  0  0  0
   30.9631    1.0241  -57.6839 C   0  0  0  0  0  0
   30.3747    1.2634  -56.3533 C   0  0  0  0  0  0
   29.6136    2.2459  -56.1455 O   0  0  0  0  0  0
   31.6788   -0.1586  -57.9225 C   0  0  0  0  0  0
   32.2416   -0.4046  -59.1784 C   0  0  0  0  0  0
   33.9491    2.2411  -61.5448 O   0  0  0  0  0  0
   35.2104    2.7954  -61.8800 C   0  0  0  0  0  0
   35.3137    4.1924  -61.2465 C   0  0  0  0  0  0
   35.2468    4.1242  -59.8466 O   0  0  0  0  0  0
   35.3842    2.8466  -63.4198 C   0  0  0  0  0  0
   36.6535    3.3492  -63.7567 O   0  0  0  0  0  0
   35.2257    1.4365  -64.0127 C   0  0  0  0  0  0
   36.3382    0.6492  -63.6605 O   0  0  0  0  0  0
   34.6929   -1.1277  -64.1824 H   0  0  0  0  0  0
   34.3997    3.6580  -59.6234 H   0  0  0  0  0  0
   36.6513    4.3180  -63.5397 H   0  0  0  0  0  0
   36.2456   -0.2156  -64.1380 H   0  0  0  0  0  0
  1  2  1  0  0  0
  2  3  2  0  0  0
  2  4  1  0  0  0
  4  5  1  0  0  0
  4 24  1  0  0  0
  5  6  1  0  0  0
  6  7  1  0  0  0
  6 16  1  0  0  0
  7  8  1  0  0  0
  8  9  2  0  0  0
  9 10  1  0  0  0
 10 11  2  0  0  0
 11 12  1  0  0  0
 11 14  1  0  0  0
 12 13  2  0  0  0
 14 15  2  0  0  0
 15  8  1  0  0  0
 16 17  1  0  0  0
 17 18  1  0  0  0
 17 20  1  0  0  0
 18 19  1  0  0  0
 19 25  1  0  0  0
 20 21  1  0  0  0
 20 22  1  0  0  0
 21 26  1  0  0  0
 22 23  1  0  0  0
 22  5  1  0  0  0
 23 27  1  0  0  0
M  END
>  <CHROM.0>
71.47502659,-57.30600019,-62.53320810

>  <CHROM.1>
80.35407110,-163.69372395,82.27784745,7.21224982,62.14329452,-56.20064051
-71.19631594,64.76157558,33.26638189,1.18736256,-61.31332243,0.71809310,-0.72942402
-2.25933153

>  <Energy>
37.90711196494932

>  <Genealogy>
CC(=O)N[C@H]1[C@H](Oc2ccc(C=O)cc2)O[C@H](CO)[C@@H](O)[C@H]1O (3D coordinates assigned)
CC(=O)N[C@H]1[C@H](Oc2ccc(C=O)cc2)O[C@H](CO)[C@@H](O)[C@H]1O (nonaromatic ring conformer: 37.90711196494932 kcal/mol)

>  <Name>
ZINC000106382965

>  <RI>
2.59779e+07

>  <Rbt.Current_Directory>
/home/edward/Documentos/Virtual_Screening/rDock/N-terminal/2

>  <Rbt.Executable>
rbdock ($Id: //depot/dev/client3/rdock/2013.1/src/exe/rbdock.cxx#4 $)

>  <Rbt.Library>
libRbt.so (2013.1, Build901 2013/11/27)

>  <Rbt.Parameter_File>
/home/edward/anaconda3/envs/MD/share/rdock-2013.1-1/data/scripts/dock.prm

>  <Rbt.Receptor>
parameters.prm

>  <SCORE>
-22.2527

>  <SCORE.INTER>
-22.4229

>  <SCORE.INTER.CONST>
1

>  <SCORE.INTER.POLAR>
-4.27901

>  <SCORE.INTER.REPUL>
0

>  <SCORE.INTER.ROT>
5

>  <SCORE.INTER.VDW>
-18.2743

>  <SCORE.INTER.norm>
-0.974909

>  <SCORE.INTRA>
0.0949405

>  <SCORE.INTRA.DIHEDRAL>
-1.09724

>  <SCORE.INTRA.DIHEDRAL.0>
9.23008

>  <SCORE.INTRA.POLAR>
-0.019094

>  <SCORE.INTRA.POLAR.0>
0

>  <SCORE.INTRA.REPUL>
0

>  <SCORE.INTRA.REPUL.0>
0

>  <SCORE.INTRA.VDW>
0.708481

>  <SCORE.INTRA.VDW.0>
-2.21897

>  <SCORE.INTRA.norm>
0.00412785

>  <SCORE.RESTR>
0

>  <SCORE.RESTR.CAVITY>
0

>  <SCORE.RESTR.norm>
0

>  <SCORE.SYSTEM>
0.0752639

>  <SCORE.SYSTEM.CONST>
0

>  <SCORE.SYSTEM.DIHEDRAL>
0.697859

>  <SCORE.SYSTEM.POLAR>
-0.0214045

>  <SCORE.SYSTEM.REPUL>
0.00386902

>  <SCORE.SYSTEM.VDW>
-0.220235

>  <SCORE.SYSTEM.norm>
0.00327235

>  <SCORE.heavy>
23

>  <SCORE.norm>
-0.967509

>  <SMILES>
CC(=O)N[C@H]1[C@H](Oc2ccc(C=O)cc2)O[C@H](CO)[C@@H](O)[C@H]1O

>  <UniqueID>
269

$$$$
ZINC000106384102
  rDOCK(R)          3D
libRbt.so/2013.1/901 2013/11/27
 26 27  0  0  0  0  0  0  0  0999 V2000
   32.7391   -2.7516  -64.3342 C   0  0  0  0  0  0
   32.7216   -1.2945  -64.0049 C   0  0  0  0  0  0
   31.6231   -0.6763  -63.9913 O   0  0  0  0  0  0
   33.9529   -0.6047  -63.7419 N   0  0  0  0  0  0
   34.0097    0.7979  -63.3138 C   0  0  0  0  0  0
   33.9925    0.9115  -61.7705 C   0  0  0  0  0  0
   32.7601    0.3895  -61.2653 O   0  0  0  0  0  0
   32.2269    0.5853  -59.9775 C   0  0  0  0  0  0
   32.1911    1.8512  -59.3559 C   0  0  0  0  0  0
   31.6678    1.9920  -58.0687 C   0  0  0  0  0  0
   31.1720    0.8809  -57.3875 C   0  0  0  0  0  0
   31.1892   -0.3756  -57.9943 C   0  0  0  0  0  0
   31.7041   -0.5304  -59.2920 C   0  0  0  0  0  0
   31.7444   -1.8924  -59.9259 C   0  0  0  0  0  0
   34.0578    2.2759  -61.3966 O   0  0  0  0  0  0
   35.3084    2.8424  -61.7519 C   0  0  0  0  0  0
   35.3887    4.2555  -61.1548 C   0  0  0  0  0  0
   35.3456    4.1971  -59.7541 O   0  0  0  0  0  0
   35.4533    2.8942  -63.2912 C   0  0  0  0  0  0
   36.7165    3.4018  -63.6388 O   0  0  0  0  0  0
   35.2564    1.4915  -63.9085 C   0  0  0  0  0  0
   36.4172    0.7030  -63.7803 O   0  0  0  0  0  0
   34.8407   -1.1556  -63.7701 H   0  0  0  0  0  0
   34.5003    3.7361  -59.5119 H   0  0  0  0  0  0
   36.6941    4.3764  -63.4505 H   0  0  0  0  0  0
   36.2477   -0.1751  -64.2062 H   0  0  0  0  0  0
  1  2  1  0  0  0
  2  3  2  0  0  0
  2  4  1  0  0  0
  4  5  1  0  0  0
  4 23  1  0  0  0
  5  6  1  0  0  0
  6  7  1  0  0  0
  6 15  1  0  0  0
  7  8  1  0  0  0
  8  9  2  0  0  0
  9 10  1  0  0  0
 10 11  2  0  0  0
 11 12  1  0  0  0
 12 13  2  0  0  0
 13 14  1  0  0  0
 13  8  1  0  0  0
 15 16  1  0  0  0
 16 17  1  0  0  0
 16 19  1  0  0  0
 17 18  1  0  0  0
 18 24  1  0  0  0
 19 20  1  0  0  0
 19 21  1  0  0  0
 20 25  1  0  0  0
 21 22  1  0  0  0
 21  5  1  0  0  0
 22 26  1  0  0  0
M  END
>  <CHROM.0>
-173.77845581,64.48291484,-178.46611598

>  <CHROM.1>
90.84978653,-164.23464922,45.67890907,62.97775299,-57.85541633,-73.44311589
56.09280301,33.61390295,0.99882034,-61.58448712,0.36457615,-0.80907672,-2.22475535

>  <Energy>
41.80861612272658

>  <Genealogy>
CC(=O)N[C@H]1[C@H](Oc2ccccc2C)O[C@H](CO)[C@@H](O)[C@H]1O (3D coordinates assigned)
CC(=O)N[C@H]1[C@H](Oc2ccccc2C)O[C@H](CO)[C@@H](O)[C@H]1O (nonaromatic ring conformer: 41.80861612272658 kcal/mol)

>  <Name>
ZINC000106384102

>  <RI>
2.59779e+07

>  <Rbt.Current_Directory>
/home/edward/Documentos/Virtual_Screening/rDock/N-terminal/2

>  <Rbt.Executable>
rbdock ($Id: //depot/dev/client3/rdock/2013.1/src/exe/rbdock.cxx#4 $)

>  <Rbt.Library>
libRbt.so (2013.1, Build901 2013/11/27)

>  <Rbt.Parameter_File>
/home/edward/anaconda3/envs/MD/share/rdock-2013.1-1/data/scripts/dock.prm

>  <Rbt.Receptor>
parameters.prm

>  <SCORE>
-19.4541

>  <SCORE.INTER>
-21.3326

>  <SCORE.INTER.CONST>
1

>  <SCORE.INTER.POLAR>
-3.78106

>  <SCORE.INTER.REPUL>
0

>  <SCORE.INTER.ROT>
4

>  <SCORE.INTER.VDW>
-17.877

>  <SCORE.INTER.norm>
-0.969663

>  <SCORE.INTRA>
2.06938

>  <SCORE.INTRA.DIHEDRAL>
-1.23031

>  <SCORE.INTRA.DIHEDRAL.0>
6.93754

>  <SCORE.INTRA.POLAR>
-0.0180554

>  <SCORE.INTRA.POLAR.0>
0

>  <SCORE.INTRA.REPUL>
0

>  <SCORE.INTRA.REPUL.0>
0

>  <SCORE.INTRA.VDW>
2.74592

>  <SCORE.INTRA.VDW.0>
-4.09403

>  <SCORE.INTRA.norm>
0.0940627

>  <SCORE.RESTR>
0

>  <SCORE.RESTR.CAVITY>
0

>  <SCORE.RESTR.norm>
0

>  <SCORE.SYSTEM>
-0.19085

>  <SCORE.SYSTEM.CONST>
0

>  <SCORE.SYSTEM.DIHEDRAL>
0.299653

>  <SCORE.SYSTEM.REPUL>
0.162829

>  <SCORE.SYSTEM.VDW>
-1.15482

>  <SCORE.SYSTEM.norm>
-0.008675

>  <SCORE.heavy>
22

>  <SCORE.norm>
-0.884276

>  <SMILES>
CC(=O)N[C@H]1[C@H](Oc2ccccc2C)O[C@H](CO)[C@@H](O)[C@H]1O

>  <UniqueID>
271

$$$$
ZINC000164373873
  rDOCK(R)          3D
libRbt.so/2013.1/901 2013/11/27
 18 18  0  0  0  0  0  0  0  0999 V2000
   35.1737    3.7535  -60.8905 C   0  0  0  0  0  0
   34.1810    2.9184  -61.4466 O   0  0  0  0  0  0
   34.5217    1.5556  -61.2566 C   0  0  0  0  0  0
   35.6060    1.1649  -62.0948 O   0  0  0  0  0  0
   35.2990    1.1373  -63.4866 C   0  0  0  0  0  0
   35.2311    2.5500  -64.1079 C   0  0  0  0  0  0
   36.4331    3.2413  -63.8893 O   0  0  0  0  0  0
   34.0716    0.2527  -63.8237 C   0  0  0  0  0  0
   34.3990   -1.1047  -63.6612 O   0  0  0  0  0  0
   32.8701    0.6092  -62.9336 C   0  0  0  0  0  0
   31.8318   -0.3213  -63.1087 O   0  0  0  0  0  0
   33.2722    0.6685  -61.4524 C   0  0  0  0  0  0
   33.4787   -0.6787  -60.9049 N   0  0  0  0  0  0
   36.2937    4.1738  -64.1992 H   0  0  0  0  0  0
   35.1566   -1.2957  -64.2741 H   0  0  0  0  0  0
   31.5501   -0.2614  -64.0591 H   0  0  0  0  0  0
   34.0690   -1.2459  -61.5551 H   0  0  0  0  0  0
   34.0176   -0.5933  -60.0124 H   0  0  0  0  0  0
  1  2  1  0  0  0
  2  3  1  0  0  0
  3  4  1  0  0  0
  4  5  1  0  0  0
  5  6  1  0  0  0
  5  8  1  0  0  0
  6  7  1  0  0  0
  7 14  1  0  0  0
  8  9  1  0  0  0
  8 10  1  0  0  0
  9 15  1  0  0  0
 10 11  1  0  0  0
 10 12  1  0  0  0
 11 16  1  0  0  0
 12 13  1  0  0  0
 12  3  1  0  0  0
 13 17  1  0  0  0
 13 18  1  0  0  0
M  END
>  <CHROM.0>
-178.24923796,-175.75554020,-61.28928541

>  <CHROM.1>
-72.05499089,56.24321724,-172.71301179,-59.22589149,-62.05246357,-77.25931106
34.35389458,1.20514710,-62.55554144,0.50369536,0.85587333,0.96900069

>  <Energy>
34.73833871126179

>  <Genealogy>
CO[C@@H]1O[C@H](CO)[C@@H](O)[C@@H](O)[C@H]1N (3D coordinates assigned)
CO[C@@H]1O[C@H](CO)[C@@H](O)[C@@H](O)[C@H]1N (nonaromatic ring conformer: 34.73833871126179 kcal/mol)

>  <Name>
ZINC000164373873

>  <RI>
2.59779e+07

>  <Rbt.Current_Directory>
/home/edward/Documentos/Virtual_Screening/rDock/N-terminal/2

>  <Rbt.Executable>
rbdock ($Id: //depot/dev/client3/rdock/2013.1/src/exe/rbdock.cxx#4 $)

>  <Rbt.Library>
libRbt.so (2013.1, Build901 2013/11/27)

>  <Rbt.Parameter_File>
/home/edward/anaconda3/envs/MD/share/rdock-2013.1-1/data/scripts/dock.prm

>  <Rbt.Receptor>
parameters.prm

>  <SCORE>
-22.1898

>  <SCORE.INTER>
-16.2593

>  <SCORE.INTER.CONST>
1

>  <SCORE.INTER.POLAR>
-4.39518

>  <SCORE.INTER.REPUL>
0.279939

>  <SCORE.INTER.ROT>
3

>  <SCORE.INTER.VDW>
-11.1154

>  <SCORE.INTER.norm>
-1.25071

>  <SCORE.INTRA>
-5.53239

>  <SCORE.INTRA.DIHEDRAL>
-7.63246

>  <SCORE.INTRA.DIHEDRAL.0>
9.62913

>  <SCORE.INTRA.POLAR>
-0.632782

>  <SCORE.INTRA.POLAR.0>
0

>  <SCORE.INTRA.REPUL>
0

>  <SCORE.INTRA.REPUL.0>
0

>  <SCORE.INTRA.VDW>
0.435296

>  <SCORE.INTRA.VDW.0>
-1.0426

>  <SCORE.INTRA.norm>
-0.425569

>  <SCORE.RESTR>
0

>  <SCORE.RESTR.CAVITY>
0

>  <SCORE.RESTR.norm>
0

>  <SCORE.SYSTEM>
-0.39819

>  <SCORE.SYSTEM.CONST>
0

>  <SCORE.SYSTEM.DIHEDRAL>
0.111853

>  <SCORE.SYSTEM.REPUL>
0.0861339

>  <SCORE.SYSTEM.VDW>
-0.884785

>  <SCORE.SYSTEM.norm>
-0.03063

>  <SCORE.heavy>
13

>  <SCORE.norm>
-1.70691

>  <SMILES>
CO[C@@H]1O[C@H](CO)[C@@H](O)[C@@H](O)[C@H]1N

>  <UniqueID>
274

$$$$
ZINC000196304985
  rDOCK(R)          3D
libRbt.so/2013.1/901 2013/11/27
 20 20  0  0  0  0  0  0  0  0999 V2000
   33.1334   -2.8869  -60.0162 H   0  0  0  0  0  0
   32.2195   -2.6252  -60.3674 O   0  0  0  0  0  0
   32.0585   -1.5234  -61.2025 C   0  0  0  0  0  0
   33.0542   -0.6963  -61.3573 N   0  0  0  0  0  0
   33.0730    0.5223  -62.1780 C   0  0  0  0  0  0
   33.2366    1.7632  -61.2783 C   0  0  0  0  0  0
   32.1790    1.7842  -60.3385 O   0  0  0  0  0  0
   32.1501    3.0235  -59.6639 C   0  0  0  0  0  0
   34.4766    1.7175  -60.5818 O   0  0  0  0  0  0
   35.6022    1.7620  -61.4520 C   0  0  0  0  0  0
   35.7834    3.1505  -62.1064 C   0  0  0  0  0  0
   36.6926    3.0766  -63.1729 O   0  0  0  0  0  0
   36.7870    3.9948  -63.5377 H   0  0  0  0  0  0
   35.6060    0.5842  -62.4626 C   0  0  0  0  0  0
   35.8830   -0.6140  -61.7810 O   0  0  0  0  0  0
   35.8940   -1.3378  -62.4606 H   0  0  0  0  0  0
   34.2440    0.4783  -63.1797 C   0  0  0  0  0  0
   34.1777   -0.6529  -64.0154 O   0  0  0  0  0  0
   34.9715   -0.6521  -64.6097 H   0  0  0  0  0  0
   30.7468   -1.3526  -61.9113 C   0  0  0  0  0  0
  1  2  1  0  0  0
  2  3  1  0  0  0
  3  4  2  0  0  0
  3 20  1  0  0  0
  4  5  1  0  0  0
  5  6  1  0  0  0
  6  7  1  0  0  0
  6  9  1  0  0  0
  7  8  1  0  0  0
  9 10  1  0  0  0
 10 11  1  0  0  0
 10 14  1  0  0  0
 11 12  1  0  0  0
 12 13  1  0  0  0
 14 15  1  0  0  0
 14 17  1  0  0  0
 15 16  1  0  0  0
 17 18  1  0  0  0
 17  5  1  0  0  0
 18 19  1  0  0  0
M  END
>  <CHROM.0>
-176.01858906,-60.95010253,62.67917946

>  <CHROM.1>
-11.19908210,114.91288192,-169.14579605,-166.40228431,-178.57663155,-178.94267152
-177.56460446,33.85351511,0.63714390,-61.69555211,-2.56567484,0.56543232
0.38311520

>  <Energy>
38.07452221133415

>  <Genealogy>
CO[C@H]1O[C@H](CO)[C@@H](O)[C@@H](O)[C@H]1N=C(C)O (tautomer)
CO[C@H]1O[C@H](CO)[C@@H](O)[C@@H](O)[C@H]1/N=C(\C)O (cis-trans isomerization)
CO[C@H]1O[C@H](CO)[C@@H](O)[C@@H](O)[C@H]1/N=C(\C)O (3D coordinates assigned)
CO[C@H]1O[C@H](CO)[C@@H](O)[C@@H](O)[C@H]1/N=C(\C)O (nonaromatic ring conformer: 38.07452221133415 kcal/mol)

>  <Name>
ZINC000196304985

>  <RI>
2.59779e+07

>  <Rbt.Current_Directory>
/home/edward/Documentos/Virtual_Screening/rDock/N-terminal/2

>  <Rbt.Executable>
rbdock ($Id: //depot/dev/client3/rdock/2013.1/src/exe/rbdock.cxx#4 $)

>  <Rbt.Library>
libRbt.so (2013.1, Build901 2013/11/27)

>  <Rbt.Parameter_File>
/home/edward/anaconda3/envs/MD/share/rdock-2013.1-1/data/scripts/dock.prm

>  <Rbt.Receptor>
parameters.prm

>  <SCORE>
-20.4814

>  <SCORE.INTER>
-16.5125

>  <SCORE.INTER.CONST>
1

>  <SCORE.INTER.POLAR>
-4.45414

>  <SCORE.INTER.REPUL>
0.329681

>  <SCORE.INTER.ROT>
3

>  <SCORE.INTER.VDW>
-11.4168

>  <SCORE.INTER.norm>
-1.03203

>  <SCORE.INTRA>
-2.84354

>  <SCORE.INTRA.DIHEDRAL>
-6.25333

>  <SCORE.INTRA.DIHEDRAL.0>
8.75258

>  <SCORE.INTRA.POLAR>
0.000245241

>  <SCORE.INTRA.POLAR.0>
-0.000245241

>  <SCORE.INTRA.REPUL>
-0.0697872

>  <SCORE.INTRA.REPUL.0>
0.0697872

>  <SCORE.INTRA.VDW>
0.631227

>  <SCORE.INTRA.VDW.0>
-1.82078

>  <SCORE.INTRA.norm>
-0.177721

>  <SCORE.RESTR>
0

>  <SCORE.RESTR.CAVITY>
0

>  <SCORE.RESTR.norm>
0

>  <SCORE.SYSTEM>
-1.12542

>  <SCORE.SYSTEM.CONST>
0

>  <SCORE.SYSTEM.DIHEDRAL>
0.117759

>  <SCORE.SYSTEM.REPUL>
0.0290223

>  <SCORE.SYSTEM.VDW>
-1.32941

>  <SCORE.SYSTEM.norm>
-0.0703387

>  <SCORE.heavy>
16

>  <SCORE.norm>
-1.28009

>  <SMILES>
CO[C@H]1O[C@H](CO)[C@@H](O)[C@@H](O)[C@H]1/N=C(\C)O

>  <UniqueID>
276

$$$$
ZINC000252694384
  rDOCK(R)          3D
libRbt.so/2013.1/901 2013/11/27
 27 27  0  0  0  0  0  0  0  0999 V2000
   34.1807   10.1616  -54.3527 C   0  0  0  0  0  0
   33.7042    9.0059  -55.2320 C   0  0  0  0  0  0
   34.0583    7.6301  -54.6469 C   0  0  0  0  0  0
   33.6257    6.4714  -55.5625 C   0  0  0  0  0  0
   34.4068    6.4420  -56.8858 C   0  0  0  0  0  0
   34.1893    5.1398  -57.6705 C   0  0  0  0  0  0
   35.0162    5.1338  -58.9609 C   0  0  0  0  0  0
   35.1250    3.7210  -59.5436 C   0  0  0  0  0  0
   33.8628    3.3002  -60.0248 O   0  0  0  0  0  0
   33.8967    1.9476  -60.4420 C   0  0  0  0  0  0
   34.7795    1.8382  -61.5466 O   0  0  0  0  0  0
   34.9084    0.4874  -61.9606 C   0  0  0  0  0  0
   35.9955    0.4160  -63.0431 C   0  0  0  0  0  0
   35.7957    1.4172  -64.0044 O   0  0  0  0  0  0
   33.5539   -0.0377  -62.4992 C   0  0  0  0  0  0
   33.6627   -1.3865  -62.8816 O   0  0  0  0  0  0
   32.4729    0.0982  -61.4111 C   0  0  0  0  0  0
   32.7181   -0.8160  -60.3690 O   0  0  0  0  0  0
   32.4721    1.5381  -60.8623 C   0  0  0  0  0  0
   31.5556    1.6586  -59.7218 N   0  0  0  0  0  0
   30.8637    2.8763  -59.4105 C   0  0  0  0  0  0
   30.1195    3.0001  -58.1213 C   0  0  0  0  0  0
   30.9094    3.8597  -60.1979 O   0  0  0  0  0  0
   34.9227    1.2258  -64.4371 H   0  0  0  0  0  0
   33.9648   -1.8947  -62.0841 H   0  0  0  0  0  0
   33.5731   -0.5475  -59.9415 H   0  0  0  0  0  0
   31.5510    0.9020  -59.0003 H   0  0  0  0  0  0
  1  2  1  0  0  0
  2  3  1  0  0  0
  3  4  1  0  0  0
  4  5  1  0  0  0
  5  6  1  0  0  0
  6  7  1  0  0  0
  7  8  1  0  0  0
  8  9  1  0  0  0
  9 10  1  0  0  0
 10 11  1  0  0  0
 11 12  1  0  0  0
 12 13  1  0  0  0
 12 15  1  0  0  0
 13 14  1  0  0  0
 14 24  1  0  0  0
 15 16  1  0  0  0
 15 17  1  0  0  0
 16 25  1  0  0  0
 17 18  1  0  0  0
 17 19  1  0  0  0
 18 26  1  0  0  0
 19 20  1  0  0  0
 19 10  1  0  0  0
 20 21  1  0  0  0
 20 27  1  0  0  0
 21 22  1  0  0  0
 21 23  2  0  0  0
M  END
>  <CHROM.0>
-175.04706227,-58.04100909,62.19092381

>  <CHROM.1>
-177.74307459,66.46789863,168.28107034,-178.33856089,163.96875636,68.79573310
-173.85985206,-64.30886941,-47.38470639,-63.09489292,57.82807267,65.16530032
88.25683105,33.57058457,3.16675567,-59.58107359,-1.58097683,-0.38482251,-2.42969545

>  <Energy>
36.353319544223034

>  <Genealogy>
CCCCCCCCO[C@@H]1O[C@H](CO)[C@@H](O)[C@@H](O)[C@H]1NC(C)=O (3D coordinates assigned)
CCCCCCCCO[C@@H]1O[C@H](CO)[C@@H](O)[C@@H](O)[C@H]1NC(C)=O (nonaromatic ring conformer: 36.353319544223034 kcal/mol)

>  <Name>
ZINC000252694384

>  <RI>
2.59779e+07

>  <Rbt.Current_Directory>
/home/edward/Documentos/Virtual_Screening/rDock/N-terminal/2

>  <Rbt.Executable>
rbdock ($Id: //depot/dev/client3/rdock/2013.1/src/exe/rbdock.cxx#4 $)

>  <Rbt.Library>
libRbt.so (2013.1, Build901 2013/11/27)

>  <Rbt.Parameter_File>
/home/edward/anaconda3/envs/MD/share/rdock-2013.1-1/data/scripts/dock.prm

>  <Rbt.Receptor>
parameters.prm

>  <SCORE>
-16.7182

>  <SCORE.INTER>
-9.28899

>  <SCORE.INTER.CONST>
1

>  <SCORE.INTER.POLAR>
-2.52686

>  <SCORE.INTER.REPUL>
0

>  <SCORE.INTER.ROT>
10

>  <SCORE.INTER.VDW>
-16.0977

>  <SCORE.INTER.norm>
-0.403869

>  <SCORE.INTRA>
-6.33231

>  <SCORE.INTRA.DIHEDRAL>
-13.7361

>  <SCORE.INTRA.DIHEDRAL.0>
17.663

>  <SCORE.INTRA.POLAR>
-0.000155861

>  <SCORE.INTRA.POLAR.0>
0

>  <SCORE.INTRA.REPUL>
0

>  <SCORE.INTRA.REPUL.0>
0

>  <SCORE.INTRA.VDW>
0.536286

>  <SCORE.INTRA.VDW.0>
-2.33205

>  <SCORE.INTRA.norm>
-0.275318

>  <SCORE.RESTR>
0

>  <SCORE.RESTR.CAVITY>
0

>  <SCORE.RESTR.norm>
0

>  <SCORE.SYSTEM>
-1.09695

>  <SCORE.SYSTEM.CONST>
0

>  <SCORE.SYSTEM.DIHEDRAL>
0.162965

>  <SCORE.SYSTEM.REPUL>
0.0263007

>  <SCORE.SYSTEM.VDW>
-1.30994

>  <SCORE.SYSTEM.norm>
-0.0476935

>  <SCORE.heavy>
23

>  <SCORE.norm>
-0.72688

>  <SMILES>
CCCCCCCCO[C@@H]1O[C@H](CO)[C@@H](O)[C@@H](O)[C@H]1NC(C)=O

>  <UniqueID>
277

$$$$
ZINC000257346145
  rDOCK(R)          3D
libRbt.so/2013.1/901 2013/11/27
 24 26  0  0  0  0  0  0  0  0999 V2000
   36.2625    4.2773  -64.1826 H   0  0  0  0  0  0
   36.3779    3.2794  -64.3153 O   0  0  0  0  0  0
   35.6675    2.3667  -63.5433 C   0  0  0  0  0  0
   35.8812    1.0944  -63.6775 N   0  0  0  0  0  0
   35.1723    0.0805  -62.8955 C   0  0  0  0  0  0
   34.1266   -0.6491  -63.7674 C   0  0  0  0  0  0
   33.3116    0.2917  -64.4231 O   0  0  0  0  0  0
   32.9730    0.9153  -63.7287 H   0  0  0  0  0  0
   33.2761   -1.5687  -62.8770 C   0  0  0  0  0  0
   32.2329   -2.1607  -63.6304 O   0  0  0  0  0  0
   31.2382   -2.7693  -62.8067 C   0  0  0  0  0  0
   30.8878   -4.1108  -63.3926 C   0  0  0  0  0  0
   29.5635   -4.5791  -63.3322 C   0  0  0  0  0  0
   29.2283   -5.8210  -63.8803 C   0  0  0  0  0  0
   30.2095   -6.6032  -64.4948 C   0  0  0  0  0  0
   31.5276   -6.1443  -64.5635 C   0  0  0  0  0  0
   31.8679   -4.9028  -64.0167 C   0  0  0  0  0  0
   31.6592   -2.9628  -61.4624 O   0  0  0  0  0  0
   31.8616   -1.7114  -60.8306 C   0  0  0  0  0  0
   32.7182   -0.7638  -61.6901 C   0  0  0  0  0  0
   33.7783   -0.2217  -60.9219 O   0  0  0  0  0  0
   34.4911    0.7473  -61.6798 C   0  0  0  0  0  0
   35.4986    1.3190  -60.8666 O   0  0  0  0  0  0
   34.9436    2.3124  -60.0320 C   0  0  0  0  0  0
  1  2  1  0  0  0
  2  3  1  0  0  0
  3  4  2  0  0  0
  4  5  1  0  0  0
  5  6  1  0  0  0
  6  7  1  0  0  0
  6  9  1  0  0  0
  7  8  1  0  0  0
  9 10  1  0  0  0
 10 11  1  0  0  0
 11 12  1  0  0  0
 11 18  1  0  0  0
 12 13  2  0  0  0
 13 14  1  0  0  0
 14 15  2  0  0  0
 15 16  1  0  0  0
 16 17  2  0  0  0
 17 12  1  0  0  0
 18 19  1  0  0  0
 19 20  1  0  0  0
 20 21  1  0  0  0
 20  9  1  0  0  0
 21 22  1  0  0  0
 22 23  1  0  0  0
 22  5  1  0  0  0
 23 24  1  0  0  0
M  END
>  <CHROM.0>
71.80483345,63.82118213,61.75301712

>  <CHROM.1>
-176.27584892,106.10798675,-51.54187945,-143.98023491,159.44594381,33.06218394
-1.37009723,-62.83569470,-0.42572922,-0.89821978,-1.92466187

>  <Energy>
56.06447993684393

>  <Genealogy>
CO[C@@H]1O[C@@H]2CO[C@H](c3ccccc3)O[C@H]2[C@@H](O)[C@H]1N=CO (tautomer)
CO[C@@H]1O[C@@H]2CO[C@H](c3ccccc3)O[C@H]2[C@@H](O)[C@H]1/N=C\O (cis-trans isomerization)
CO[C@@H]1O[C@@H]2CO[C@H](c3ccccc3)O[C@H]2[C@@H](O)[C@H]1/N=C\O (3D coordinates assigned)
CO[C@@H]1O[C@@H]2CO[C@H](c3ccccc3)O[C@H]2[C@@H](O)[C@H]1/N=C\O (nonaromatic ring conformer: 56.06447993684393 kcal/mol)

>  <Name>
ZINC000257346145

>  <RI>
2.59779e+07

>  <Rbt.Current_Directory>
/home/edward/Documentos/Virtual_Screening/rDock/N-terminal/2

>  <Rbt.Executable>
rbdock ($Id: //depot/dev/client3/rdock/2013.1/src/exe/rbdock.cxx#4 $)

>  <Rbt.Library>
libRbt.so (2013.1, Build901 2013/11/27)

>  <Rbt.Parameter_File>
/home/edward/anaconda3/envs/MD/share/rdock-2013.1-1/data/scripts/dock.prm

>  <Rbt.Receptor>
parameters.prm

>  <SCORE>
-15.783

>  <SCORE.INTER>
-17.1324

>  <SCORE.INTER.CONST>
1

>  <SCORE.INTER.POLAR>
-3.37955

>  <SCORE.INTER.REPUL>
0.11163

>  <SCORE.INTER.ROT>
3

>  <SCORE.INTER.VDW>
-14.6001

>  <SCORE.INTER.norm>
-0.778746

>  <SCORE.INTRA>
0.629689

>  <SCORE.INTRA.DIHEDRAL>
-2.90234

>  <SCORE.INTRA.DIHEDRAL.0>
6.25484

>  <SCORE.INTRA.POLAR>
0

>  <SCORE.INTRA.POLAR.0>
0

>  <SCORE.INTRA.REPUL>
0

>  <SCORE.INTRA.REPUL.0>
0

>  <SCORE.INTRA.VDW>
2.08086

>  <SCORE.INTRA.VDW.0>
-1.25771

>  <SCORE.INTRA.norm>
0.0286222

>  <SCORE.RESTR>
0

>  <SCORE.RESTR.CAVITY>
0

>  <SCORE.RESTR.norm>
0

>  <SCORE.SYSTEM>
0.71973

>  <SCORE.SYSTEM.CONST>
0

>  <SCORE.SYSTEM.DIHEDRAL>
0.753037

>  <SCORE.SYSTEM.POLAR>
-0.0202864

>  <SCORE.SYSTEM.REPUL>
0.144943

>  <SCORE.SYSTEM.VDW>
-0.312529

>  <SCORE.SYSTEM.norm>
0.032715

>  <SCORE.heavy>
22

>  <SCORE.norm>
-0.717409

>  <SMILES>
CO[C@@H]1O[C@@H]2CO[C@H](c3ccccc3)O[C@H]2[C@@H](O)[C@H]1/N=C\O

>  <UniqueID>
279

$$$$
ZINC000257346492
  rDOCK(R)          3D
libRbt.so/2013.1/901 2013/11/27
 24 26  0  0  0  0  0  0  0  0999 V2000
   36.3596    3.9925  -63.5165 H   0  0  0  0  0  0
   36.5200    3.0432  -63.2734 O   0  0  0  0  0  0
   35.2630    2.4159  -63.2311 C   0  0  0  0  0  0
   34.3762    3.0410  -62.1243 C   0  0  0  0  0  0
   35.1117    3.8682  -61.2396 O   0  0  0  0  0  0
   34.3593    4.2083  -60.0685 C   0  0  0  0  0  0
   34.6410    5.6672  -59.7015 C   0  0  0  0  0  0
   33.9518    6.0513  -58.4174 C   0  0  0  0  0  0
   34.6531    6.0266  -57.1997 C   0  0  0  0  0  0
   34.0010    6.3471  -56.0051 C   0  0  0  0  0  0
   32.6453    6.6867  -56.0161 C   0  0  0  0  0  0
   31.9384    6.7027  -57.2217 C   0  0  0  0  0  0
   32.5864    6.3822  -58.4187 C   0  0  0  0  0  0
   32.9521    4.0483  -60.2392 O   0  0  0  0  0  0
   32.6135    2.6812  -60.4403 C   0  0  0  0  0  0
   33.6362    1.9593  -61.3316 C   0  0  0  0  0  0
   33.0272    1.0550  -62.2257 O   0  0  0  0  0  0
   33.9977    0.2146  -62.8584 C   0  0  0  0  0  0
   33.4994   -0.1720  -64.1268 O   0  0  0  0  0  0
   32.4174   -1.0663  -63.9793 C   0  0  0  0  0  0
   35.4008    0.8791  -63.0768 C   0  0  0  0  0  0
   36.2880    0.5356  -61.9630 N   0  0  0  0  0  0
   36.4574    1.3010  -61.0130 N   0  3  0  0  0  0
   36.6273    2.0648  -60.0640 N   0  5  0  0  0  0
  1  2  1  0  0  0
  2  3  1  0  0  0
  3  4  1  0  0  0
  4  5  1  0  0  0
  5  6  1  0  0  0
  6  7  1  0  0  0
  6 14  1  0  0  0
  7  8  1  0  0  0
  8  9  2  0  0  0
  9 10  1  0  0  0
 10 11  2  0  0  0
 11 12  1  0  0  0
 12 13  2  0  0  0
 13  8  1  0  0  0
 14 15  1  0  0  0
 15 16  1  0  0  0
 16 17  1  0  0  0
 16  4  1  0  0  0
 17 18  1  0  0  0
 18 19  1  0  0  0
 18 21  1  0  0  0
 19 20  1  0  0  0
 21 22  1  0  0  0
 21  3  1  0  0  0
 22 23  2  0  0  0
 23 24  2  0  0  0
M  END
>  <CHROM.0>
-74.27454260,-60.50145461,62.80290472

>  <CHROM.1>
-63.07966343,-175.90303249,97.09493232,-69.94096764,25.50440512,34.22937716
3.13062910,-60.73050690,-1.43781879,0.10872465,0.77481112

>  <Energy>
69.32050242159204

>  <Genealogy>
CO[C@@H]1O[C@@H]2CO[C@H](Cc3ccccc3)O[C@H]2[C@@H](O)[C@H]1N=[N+]=[N-] (cis-trans isomerization)
CO[C@@H]1O[C@@H]2CO[C@H](Cc3ccccc3)O[C@H]2[C@@H](O)[C@H]1N=[N+]=[N-] (3D coordinates assigned)
CO[C@@H]1O[C@@H]2CO[C@H](Cc3ccccc3)O[C@H]2[C@@H](O)[C@H]1N=[N+]=[N-] (nonaromatic ring conformer: 69.32050242159204 kcal/mol)

>  <Name>
ZINC000257346492

>  <RI>
2.59779e+07

>  <Rbt.Current_Directory>
/home/edward/Documentos/Virtual_Screening/rDock/N-terminal/2

>  <Rbt.Executable>
rbdock ($Id: //depot/dev/client3/rdock/2013.1/src/exe/rbdock.cxx#4 $)

>  <Rbt.Library>
libRbt.so (2013.1, Build901 2013/11/27)

>  <Rbt.Parameter_File>
/home/edward/anaconda3/envs/MD/share/rdock-2013.1-1/data/scripts/dock.prm

>  <Rbt.Receptor>
parameters.prm

>  <SCORE>
-15.6965

>  <SCORE.INTER>
-14.5288

>  <SCORE.INTER.CONST>
1

>  <SCORE.INTER.POLAR>
-2.13587

>  <SCORE.INTER.REPUL>
0

>  <SCORE.INTER.ROT>
4

>  <SCORE.INTER.VDW>
-16.6668

>  <SCORE.INTER.norm>
-0.631685

>  <SCORE.INTRA>
-1.016

>  <SCORE.INTRA.DIHEDRAL>
-2.86532

>  <SCORE.INTRA.DIHEDRAL.0>
5.34979

>  <SCORE.INTRA.POLAR>
0

>  <SCORE.INTRA.POLAR.0>
0

>  <SCORE.INTRA.REPUL>
0

>  <SCORE.INTRA.REPUL.0>
0

>  <SCORE.INTRA.VDW>
0.416659

>  <SCORE.INTRA.VDW.0>
-1.43337

>  <SCORE.INTRA.norm>
-0.044174

>  <SCORE.RESTR>
0

>  <SCORE.RESTR.CAVITY>
0

>  <SCORE.RESTR.norm>
0

>  <SCORE.SYSTEM>
-0.151786

>  <SCORE.SYSTEM.CONST>
0

>  <SCORE.SYSTEM.DIHEDRAL>
0.999522

>  <SCORE.SYSTEM.VDW>
-0.651547

>  <SCORE.SYSTEM.norm>
-0.0065994

>  <SCORE.heavy>
23

>  <SCORE.norm>
-0.682459

>  <SMILES>
CO[C@@H]1O[C@@H]2CO[C@H](Cc3ccccc3)O[C@H]2[C@@H](O)[C@H]1N=[N+]=[N-]

>  <UniqueID>
282

$$$$
ZINC000257346903
  rDOCK(R)          3D
libRbt.so/2013.1/901 2013/11/27
 29 30  0  0  0  0  0  0  0  0999 V2000
   29.4374    1.6124  -63.1380 H   0  0  0  0  0  0
   30.2174    1.8072  -62.5240 O   0  0  0  0  0  0
   31.2472    0.8922  -62.3009 C   0  0  0  0  0  0
   32.2326    1.1860  -61.4999 N   0  0  0  0  0  0
   32.4576    2.4218  -60.7356 C   0  0  0  0  0  0
   33.7773    3.1278  -61.1149 C   0  0  0  0  0  0
   34.8796    2.2721  -60.8703 O   0  0  0  0  0  0
   35.2957    1.4031  -62.2714 S   0  0  0  0  0  0
   34.1072    1.2517  -63.1805 O   0  0  0  0  0  0
   36.3662    2.1618  -63.0030 O   0  0  0  0  0  0
   35.9311   -0.2061  -61.8501 C   0  0  0  0  0  0
   33.9146    4.4050  -60.2582 C   0  0  0  0  0  0
   35.1897    4.9646  -60.4497 O   0  0  0  0  0  0
   35.1817    5.4208  -61.3313 H   0  0  0  0  0  0
   33.6918    4.0730  -58.7581 C   0  0  0  0  0  0
   33.7857    5.3289  -57.8765 C   0  0  0  0  0  0
   33.4729    5.0376  -56.5400 O   0  0  0  0  0  0
   34.0380    4.2656  -56.2756 H   0  0  0  0  0  0
   32.4167    3.4805  -58.5624 O   0  0  0  0  0  0
   32.3446    2.2201  -59.2089 C   0  0  0  0  0  0
   31.0870    1.6325  -58.9313 O   0  0  0  0  0  0
   30.9289    1.3917  -57.5453 C   0  0  0  0  0  0
   29.4926    0.9800  -57.2421 C   0  0  0  0  0  0
   31.2416   -0.4273  -62.9795 C   0  0  0  0  0  0
   30.2100   -0.7775  -63.8716 C   0  0  0  0  0  0
   30.2109   -2.0266  -64.5002 C   0  0  0  0  0  0
   31.2357   -2.9400  -64.2452 C   0  0  0  0  0  0
   32.2603   -2.6084  -63.3567 C   0  0  0  0  0  0
   32.2640   -1.3617  -62.7239 C   0  0  0  0  0  0
  1  2  1  0  0  0
  2  3  1  0  0  0
  3  4  2  0  0  0
  3 24  1  0  0  0
  4  5  1  0  0  0
  5  6  1  0  0  0
  6  7  1  0  0  0
  6 12  1  0  0  0
  7  8  1  0  0  0
  8  9  2  0  0  0
  8 10  2  0  0  0
  8 11  1  0  0  0
 12 13  1  0  0  0
 12 15  1  0  0  0
 13 14  1  0  0  0
 15 16  1  0  0  0
 15 19  1  0  0  0
 16 17  1  0  0  0
 17 18  1  0  0  0
 19 20  1  0  0  0
 20 21  1  0  0  0
 20  5  1  0  0  0
 21 22  1  0  0  0
 22 23  1  0  0  0
 24 25  2  0  0  0
 25 26  1  0  0  0
 26 27  2  0  0  0
 27 28  1  0  0  0
 28 29  2  0  0  0
 29 24  1  0  0  0
M  END
>  <CHROM.0>
-175.30057234,-59.16110872,64.22767732

>  <CHROM.1>
-179.94345380,0.75349808,-119.66103134,93.55267170,-25.86872170,76.34248283
175.04704803,51.74058167,178.69496068,170.56985455,32.88200910,1.62099892
-61.00025968,1.83142749,-0.45713848,-2.26296003

>  <Energy>
51.488135597339806

>  <Genealogy>
CCO[C@@H]1O[C@H](CO)[C@@H](O)[C@@H](OS(C)(=O)=O)[C@H]1N=C(O)c1ccccc1 (tautomer)
CCO[C@@H]1O[C@H](CO)[C@@H](O)[C@@H](OS(C)(=O)=O)[C@H]1/N=C(/O)c1ccccc1 (cis-trans isomerization)
CCO[C@@H]1O[C@H](CO)[C@@H](O)[C@@H](OS(C)(=O)=O)[C@H]1/N=C(/O)c1ccccc1 (3D coordinates assigned)
CCO[C@@H]1O[C@H](CO)[C@@H](O)[C@@H](OS(C)(=O)=O)[C@H]1/N=C(/O)c1ccccc1 (nonaromatic ring conformer: 51.488135597339806 kcal/mol)

>  <Name>
ZINC000257346903

>  <RI>
2.59779e+07

>  <Rbt.Current_Directory>
/home/edward/Documentos/Virtual_Screening/rDock/N-terminal/2

>  <Rbt.Executable>
rbdock ($Id: //depot/dev/client3/rdock/2013.1/src/exe/rbdock.cxx#4 $)

>  <Rbt.Library>
libRbt.so (2013.1, Build901 2013/11/27)

>  <Rbt.Parameter_File>
/home/edward/anaconda3/envs/MD/share/rdock-2013.1-1/data/scripts/dock.prm

>  <Rbt.Receptor>
parameters.prm

>  <SCORE>
-18.8592

>  <SCORE.INTER>
-11.2651

>  <SCORE.INTER.CONST>
1

>  <SCORE.INTER.POLAR>
-2.58368

>  <SCORE.INTER.REPUL>
0.502914

>  <SCORE.INTER.ROT>
7

>  <SCORE.INTER.VDW>
-17.3951

>  <SCORE.INTER.norm>
-0.433271

>  <SCORE.INTRA>
-6.49653

>  <SCORE.INTRA.DIHEDRAL>
-16.5833

>  <SCORE.INTRA.DIHEDRAL.0>
23.7394

>  <SCORE.INTRA.POLAR>
0

>  <SCORE.INTRA.POLAR.0>
0

>  <SCORE.INTRA.REPUL>
-0.0288092

>  <SCORE.INTRA.REPUL.0>
0.0288092

>  <SCORE.INTRA.VDW>
1.93916

>  <SCORE.INTRA.VDW.0>
-5.00941

>  <SCORE.INTRA.norm>
-0.249866

>  <SCORE.RESTR>
0

>  <SCORE.RESTR.CAVITY>
0

>  <SCORE.RESTR.norm>
0

>  <SCORE.SYSTEM>
-1.09766

>  <SCORE.SYSTEM.CONST>
0

>  <SCORE.SYSTEM.DIHEDRAL>
0.199748

>  <SCORE.SYSTEM.REPUL>
0.0270126

>  <SCORE.SYSTEM.VDW>
-1.3326

>  <SCORE.SYSTEM.norm>
-0.0422177

>  <SCORE.heavy>
26

>  <SCORE.norm>
-0.725355

>  <SMILES>
CCO[C@@H]1O[C@H](CO)[C@@H](O)[C@@H](OS(C)(=O)=O)[C@H]1/N=C(/O)c1ccccc1

>  <UniqueID>
284

$$$$
ZINC000257347638
  rDOCK(R)          3D
libRbt.so/2013.1/901 2013/11/27
 33 36  0  0  0  0  0  0  0  0999 V2000
   31.1734    0.3282  -59.9288 H   0  0  0  0  0  0
   31.6758    1.1360  -59.5825 O   0  0  0  0  0  0
   32.6576    1.7893  -60.3347 C   0  0  0  0  0  0
   33.0035    1.3160  -61.4955 N   0  0  0  0  0  0
   32.4366    0.1087  -62.0994 C   0  0  0  0  0  0
   33.4137   -0.4965  -63.1357 C   0  0  0  0  0  0
   33.7917    0.5042  -64.0667 O   0  0  0  0  0  0
   35.1746    1.3415  -63.5377 S   0  0  0  0  0  0
   34.7477    2.6952  -63.0455 O   0  0  0  0  0  0
   36.1575    1.5297  -64.6619 O   0  0  0  0  0  0
   35.9665    0.4791  -62.1973 C   0  0  0  0  0  0
   32.6999   -1.6517  -63.8627 C   0  0  0  0  0  0
   33.5034   -2.1564  -64.9120 O   0  0  0  0  0  0
   32.7946   -3.0642  -65.7581 C   0  0  0  0  0  0
   33.6322   -4.2945  -65.9943 C   0  0  0  0  0  0
   35.0338   -4.2214  -65.8772 C   0  0  0  0  0  0
   35.8238   -5.3442  -66.1406 C   0  0  0  0  0  0
   35.2237   -6.5473  -66.5278 C   0  0  0  0  0  0
   33.8354   -6.6223  -66.6741 C   0  0  0  0  0  0
   33.0422   -5.4990  -66.4210 C   0  0  0  0  0  0
   31.5384   -3.4717  -65.2300 O   0  0  0  0  0  0
   30.6719   -2.3558  -65.1296 C   0  0  0  0  0  0
   31.3421   -1.1725  -64.4065 C   0  0  0  0  0  0
   30.5214   -0.7127  -63.3484 O   0  0  0  0  0  0
   31.0853    0.4533  -62.7633 C   0  0  0  0  0  0
   30.2117    0.9432  -61.7636 O   0  0  0  0  0  0
   29.0424    1.4676  -62.3538 C   0  0  0  0  0  0
   33.3159    3.0173  -59.8252 C   0  0  0  0  0  0
   34.3399    3.6447  -60.5602 C   0  0  0  0  0  0
   34.9633    4.7959  -60.0677 C   0  0  0  0  0  0
   34.5768    5.3308  -58.8375 C   0  0  0  0  0  0
   33.5690    4.7123  -58.0928 C   0  0  0  0  0  0
   32.9437    3.5604  -58.5802 C   0  0  0  0  0  0
  1  2  1  0  0  0
  2  3  1  0  0  0
  3  4  2  0  0  0
  3 28  1  0  0  0
  4  5  1  0  0  0
  5  6  1  0  0  0
  6  7  1  0  0  0
  6 12  1  0  0  0
  7  8  1  0  0  0
  8  9  2  0  0  0
  8 10  2  0  0  0
  8 11  1  0  0  0
 12 13  1  0  0  0
 13 14  1  0  0  0
 14 15  1  0  0  0
 14 21  1  0  0  0
 15 16  2  0  0  0
 16 17  1  0  0  0
 17 18  2  0  0  0
 18 19  1  0  0  0
 19 20  2  0  0  0
 20 15  1  0  0  0
 21 22  1  0  0  0
 22 23  1  0  0  0
 23 24  1  0  0  0
 23 12  1  0  0  0
 24 25  1  0  0  0
 25 26  1  0  0  0
 25  5  1  0  0  0
 26 27  1  0  0  0
 28 29  2  0  0  0
 29 30  1  0  0  0
 30 31  2  0  0  0
 31 32  1  0  0  0
 32 33  2  0  0  0
 33 28  1  0  0  0
M  END
>  <CHROM.0>
-174.78580278,-59.99281679,-177.77232546

>  <CHROM.1>
-3.76565147,177.54810313,-156.56611276,89.54501322,-105.17441379,-24.58946705
170.73454672,33.25196345,-0.18288449,-63.06956434,1.58796588,0.19314534,0.63436088

>  <Energy>
75.58421494002728

>  <Genealogy>
CO[C@@H]1O[C@@H]2CO[C@H](c3ccccc3)O[C@H]2[C@@H](OS(C)(=O)=O)[C@H]1N=C(O)c1ccccc1 (tautomer)
CO[C@@H]1O[C@@H]2CO[C@H](c3ccccc3)O[C@H]2[C@@H](OS(C)(=O)=O)[C@H]1/N=C(/O)c1ccccc1 (cis-trans isomerization)
CO[C@@H]1O[C@@H]2CO[C@H](c3ccccc3)O[C@H]2[C@@H](OS(C)(=O)=O)[C@H]1/N=C(/O)c1ccccc1 (3D coordinates assigned)
CO[C@@H]1O[C@@H]2CO[C@H](c3ccccc3)O[C@H]2[C@@H](OS(C)(=O)=O)[C@H]1/N=C(/O)c1ccccc1 (nonaromatic ring conformer: 75.58421494002728 kcal/mol)

>  <Name>
ZINC000257347638

>  <RI>
2.59779e+07

>  <Rbt.Current_Directory>
/home/edward/Documentos/Virtual_Screening/rDock/N-terminal/2

>  <Rbt.Executable>
rbdock ($Id: //depot/dev/client3/rdock/2013.1/src/exe/rbdock.cxx#4 $)

>  <Rbt.Library>
libRbt.so (2013.1, Build901 2013/11/27)

>  <Rbt.Parameter_File>
/home/edward/anaconda3/envs/MD/share/rdock-2013.1-1/data/scripts/dock.prm

>  <Rbt.Receptor>
parameters.prm

>  <SCORE>
-15.6025

>  <SCORE.INTER>
-15.0404

>  <SCORE.INTER.CONST>
1

>  <SCORE.INTER.POLAR>
-0.959166

>  <SCORE.INTER.REPUL>
0.0169885

>  <SCORE.INTER.ROT>
6

>  <SCORE.INTER.VDW>
-23.2642

>  <SCORE.INTER.norm>
-0.470013

>  <SCORE.INTRA>
0.454929

>  <SCORE.INTRA.DIHEDRAL>
-4.90546

>  <SCORE.INTRA.DIHEDRAL.0>
12.3713

>  <SCORE.INTRA.POLAR>
-0.126214

>  <SCORE.INTRA.POLAR.0>
0

>  <SCORE.INTRA.REPUL>
0

>  <SCORE.INTRA.REPUL.0>
0

>  <SCORE.INTRA.VDW>
3.33679

>  <SCORE.INTRA.VDW.0>
-4.02521

>  <SCORE.INTRA.norm>
0.0142165

>  <SCORE.RESTR>
0

>  <SCORE.RESTR.CAVITY>
0

>  <SCORE.RESTR.norm>
0

>  <SCORE.SYSTEM>
-1.01701

>  <SCORE.SYSTEM.CONST>
0

>  <SCORE.SYSTEM.DIHEDRAL>
0.157797

>  <SCORE.SYSTEM.REPUL>
0.0255658

>  <SCORE.SYSTEM.VDW>
-1.22374

>  <SCORE.SYSTEM.norm>
-0.0317816

>  <SCORE.heavy>
32

>  <SCORE.norm>
-0.487578

>  <SMILES>
CO[C@@H]1O[C@@H]2CO[C@H](c3ccccc3)O[C@H]2[C@@H](OS(C)(=O)=O)[C@H]1/N=C(/O)c1ccccc1

>  <UniqueID>
285

$$$$
ZINC000257347639
  rDOCK(R)          3D
libRbt.so/2013.1/901 2013/11/27
 33 36  0  0  0  0  0  0  0  0999 V2000
   31.0379  -10.1973  -67.4755 H   0  0  0  0  0  0
   32.0473  -10.0990  -67.4271 O   0  0  0  0  0  0
   32.6350   -8.9001  -67.0328 C   0  0  0  0  0  0
   31.8602   -7.9296  -66.6390 N   0  0  0  0  0  0
   32.2842   -6.6332  -66.0986 C   0  0  0  0  0  0
   31.5946   -6.3626  -64.7416 C   0  0  0  0  0  0
   30.1878   -6.4522  -64.8940 O   0  0  0  0  0  0
   29.4319   -6.8554  -63.4298 S   0  0  0  0  0  0
   30.4269   -6.8165  -62.3039 O   0  0  0  0  0  0
   28.8994   -8.2537  -63.5468 O   0  0  0  0  0  0
   28.0648   -5.7721  -63.0644 C   0  0  0  0  0  0
   31.9670   -4.9415  -64.2989 C   0  0  0  0  0  0
   31.2885   -4.5923  -63.1112 O   0  0  0  0  0  0
   31.6637   -3.2820  -62.7131 C   0  0  0  0  0  0
   30.9689   -2.9726  -61.4138 C   0  0  0  0  0  0
   29.6513   -3.4139  -61.1984 C   0  0  0  0  0  0
   29.0083   -3.1481  -59.9868 C   0  0  0  0  0  0
   29.6739   -2.4436  -58.9812 C   0  0  0  0  0  0
   30.9848   -2.0045  -59.1845 C   0  0  0  0  0  0
   31.6325   -2.2691  -60.3932 C   0  0  0  0  0  0
   31.2646   -2.3196  -63.6794 O   0  0  0  0  0  0
   31.9326   -2.5568  -64.9044 C   0  0  0  0  0  0
   31.6007   -3.9549  -65.4176 C   0  0  0  0  0  0
   32.3359   -4.2442  -66.5935 O   0  0  0  0  0  0
   31.9510   -5.5125  -67.1107 C   0  0  0  0  0  0
   32.6850   -5.7587  -68.2954 O   0  0  0  0  0  0
   32.2789   -4.8667  -69.3123 C   0  0  0  0  0  0
   34.1086   -8.7792  -67.0770 C   0  0  0  0  0  0
   34.7241   -7.5291  -66.8958 C   0  0  0  0  0  0
   36.1130   -7.4069  -67.0057 C   0  0  0  0  0  0
   36.8923   -8.5259  -67.3143 C   0  0  0  0  0  0
   36.2825   -9.7668  -67.5198 C   0  0  0  0  0  0
   34.8949   -9.8939  -67.4070 C   0  0  0  0  0  0
  1  2  1  0  0  0
  2  3  1  0  0  0
  3  4  2  0  0  0
  3 28  1  0  0  0
  4  5  1  0  0  0
  5  6  1  0  0  0
  6  7  1  0  0  0
  6 12  1  0  0  0
  7  8  1  0  0  0
  8  9  2  0  0  0
  8 10  2  0  0  0
  8 11  1  0  0  0
 12 13  1  0  0  0
 13 14  1  0  0  0
 14 15  1  0  0  0
 14 21  1  0  0  0
 15 16  2  0  0  0
 16 17  1  0  0  0
 17 18  2  0  0  0
 18 19  1  0  0  0
 19 20  2  0  0  0
 20 15  1  0  0  0
 21 22  1  0  0  0
 22 23  1  0  0  0
 23 24  1  0  0  0
 23 12  1  0  0  0
 24 25  1  0  0  0
 25 26  1  0  0  0
 25  5  1  0  0  0
 26 27  1  0  0  0
 28 29  2  0  0  0
 29 30  1  0  0  0
 30 31  2  0  0  0
 31 32  1  0  0  0
 32 33  2  0  0  0
 33 28  1  0  0  0
M  END
>  <CHROM.0>
-175.19646057,-178.20420019,-61.38341181

>  <CHROM.1>
4.54300312,169.73498957,-127.01118109,154.58595497,8.28897883,-37.97106179
172.11178475,31.75333523,-5.81517010,-64.64321520,0.93767184,-0.71600748
-2.67905855

>  <Energy>
72.50690788143015

>  <Genealogy>
CO[C@@H]1O[C@@H]2CO[C@@H](c3ccccc3)O[C@H]2[C@@H](OS(C)(=O)=O)[C@H]1N=C(O)c1ccccc1 (tautomer)
CO[C@@H]1O[C@@H]2CO[C@@H](c3ccccc3)O[C@H]2[C@@H](OS(C)(=O)=O)[C@H]1/N=C(\O)c1ccccc1 (cis-trans isomerization)
CO[C@@H]1O[C@@H]2CO[C@@H](c3ccccc3)O[C@H]2[C@@H](OS(C)(=O)=O)[C@H]1/N=C(\O)c1ccccc1 (3D coordinates assigned)
CO[C@@H]1O[C@@H]2CO[C@@H](c3ccccc3)O[C@H]2[C@@H](OS(C)(=O)=O)[C@H]1/N=C(\O)c1ccccc1 (nonaromatic ring conformer: 72.50690788143015 kcal/mol)

>  <Name>
ZINC000257347639

>  <RI>
2.59779e+07

>  <Rbt.Current_Directory>
/home/edward/Documentos/Virtual_Screening/rDock/N-terminal/2

>  <Rbt.Executable>
rbdock ($Id: //depot/dev/client3/rdock/2013.1/src/exe/rbdock.cxx#4 $)

>  <Rbt.Library>
libRbt.so (2013.1, Build901 2013/11/27)

>  <Rbt.Parameter_File>
/home/edward/anaconda3/envs/MD/share/rdock-2013.1-1/data/scripts/dock.prm

>  <Rbt.Receptor>
parameters.prm

>  <SCORE>
-15.7824

>  <SCORE.INTER>
-10.8262

>  <SCORE.INTER.CONST>
1

>  <SCORE.INTER.POLAR>
-1.43982

>  <SCORE.INTER.REPUL>
0

>  <SCORE.INTER.ROT>
6

>  <SCORE.INTER.VDW>
-17.3308

>  <SCORE.INTER.norm>
-0.338318

>  <SCORE.INTRA>
-4.55484

>  <SCORE.INTRA.DIHEDRAL>
-16.7988

>  <SCORE.INTRA.DIHEDRAL.0>
22.1536

>  <SCORE.INTRA.POLAR>
0

>  <SCORE.INTRA.POLAR.0>
0

>  <SCORE.INTRA.REPUL>
0

>  <SCORE.INTRA.REPUL.0>
0

>  <SCORE.INTRA.VDW>
3.84456

>  <SCORE.INTRA.VDW.0>
-5.29495

>  <SCORE.INTRA.norm>
-0.142339

>  <SCORE.RESTR>
0

>  <SCORE.RESTR.CAVITY>
0

>  <SCORE.RESTR.norm>
0

>  <SCORE.SYSTEM>
-0.40138

>  <SCORE.SYSTEM.CONST>
0

>  <SCORE.SYSTEM.DIHEDRAL>
0.138609

>  <SCORE.SYSTEM.REPUL>
0.0823477

>  <SCORE.SYSTEM.VDW>
-0.882423

>  <SCORE.SYSTEM.norm>
-0.0125431

>  <SCORE.heavy>
32

>  <SCORE.norm>
-0.4932

>  <SMILES>
CO[C@@H]1O[C@@H]2CO[C@@H](c3ccccc3)O[C@H]2[C@@H](OS(C)(=O)=O)[C@H]1/N=C(\O)c1ccccc1

>  <UniqueID>
287

$$$$
ZINC000307008534
  rDOCK(R)          3D
libRbt.so/2013.1/901 2013/11/27
 19 19  0  0  0  0  0  0  0  0999 V2000
   32.7940   -1.1892  -63.7084 C   0  0  0  0  0  0
   34.1646   -1.0610  -63.1969 N   0  3  0  0  0  0
   34.5739    0.2852  -62.7186 C   0  0  0  0  0  0
   35.3603    0.2749  -61.3827 C   0  0  0  0  0  0
   36.6259   -0.3476  -61.5282 O   0  0  0  0  0  0
   36.5060   -1.7417  -61.3497 C   0  0  0  0  0  0
   35.4978    1.6040  -60.8931 O   0  0  0  0  0  0
   36.2307    2.4303  -61.7902 C   0  0  0  0  0  0
   36.4440    3.7986  -61.1229 C   0  0  0  0  0  0
   35.2199    4.4026  -60.7979 O   0  0  0  0  0  0
   35.5009    2.5674  -63.1553 C   0  0  0  0  0  0
   36.2579    3.3522  -64.0432 O   0  0  0  0  0  0
   35.2809    1.1725  -63.7705 C   0  0  0  0  0  0
   36.5222    0.6249  -64.1421 O   0  0  0  0  0  0
   34.8257   -1.3714  -63.9469 H   0  0  0  0  0  0
   34.2690   -1.7373  -62.4040 H   0  0  0  0  0  0
   35.4338    5.2858  -60.3984 H   0  0  0  0  0  0
   36.2804    4.2737  -63.6748 H   0  0  0  0  0  0
   36.9539    0.2929  -63.3121 H   0  0  0  0  0  0
  1  2  1  0  0  0
  2  3  1  0  0  0
  2 15  1  0  0  0
  2 16  1  0  0  0
  3  4  1  0  0  0
  4  5  1  0  0  0
  4  7  1  0  0  0
  5  6  1  0  0  0
  7  8  1  0  0  0
  8  9  1  0  0  0
  8 11  1  0  0  0
  9 10  1  0  0  0
 10 17  1  0  0  0
 11 12  1  0  0  0
 11 13  1  0  0  0
 12 18  1  0  0  0
 13 14  1  0  0  0
 13  3  1  0  0  0
 14 19  1  0  0  0
M  END
>  <CHROM.0>
-175.45898394,-60.29647813,62.92935532

>  <CHROM.1>
136.26197334,-86.44136503,-58.70647237,-178.40120943,-66.35767092,-41.63019199
35.51930468,1.16669738,-62.39996604,2.19669333,1.15054464,2.78222661

>  <Energy>
40.488966298010276

>  <Genealogy>
C[NH2+][C@H]1[C@@H](OC)O[C@H](CO)[C@@H](O)[C@H]1O (protonated)
C[NH2+][C@H]1[C@@H](OC)O[C@H](CO)[C@@H](O)[C@H]1O (3D coordinates assigned)
C[NH2+][C@H]1[C@@H](OC)O[C@H](CO)[C@@H](O)[C@H]1O (nonaromatic ring conformer: 40.488966298010276 kcal/mol)

>  <Name>
ZINC000307008534

>  <RI>
2.59779e+07

>  <Rbt.Current_Directory>
/home/edward/Documentos/Virtual_Screening/rDock/N-terminal/2

>  <Rbt.Executable>
rbdock ($Id: //depot/dev/client3/rdock/2013.1/src/exe/rbdock.cxx#4 $)

>  <Rbt.Library>
libRbt.so (2013.1, Build901 2013/11/27)

>  <Rbt.Parameter_File>
/home/edward/anaconda3/envs/MD/share/rdock-2013.1-1/data/scripts/dock.prm

>  <Rbt.Receptor>
parameters.prm

>  <SCORE>
-23.7501

>  <SCORE.INTER>
-18.0151

>  <SCORE.INTER.CONST>
1

>  <SCORE.INTER.POLAR>
-4.3154

>  <SCORE.INTER.REPUL>
0

>  <SCORE.INTER.ROT>
3

>  <SCORE.INTER.VDW>
-11.7428

>  <SCORE.INTER.norm>
-1.2868

>  <SCORE.INTRA>
-4.61604

>  <SCORE.INTRA.DIHEDRAL>
-2.93789

>  <SCORE.INTRA.DIHEDRAL.0>
10.489

>  <SCORE.INTRA.POLAR>
-0.872868

>  <SCORE.INTRA.POLAR.0>
0

>  <SCORE.INTRA.REPUL>
-0.107328

>  <SCORE.INTRA.REPUL.0>
0.107328

>  <SCORE.INTRA.VDW>
0.3573

>  <SCORE.INTRA.VDW.0>
0.24452

>  <SCORE.INTRA.norm>
-0.329717

>  <SCORE.RESTR>
0

>  <SCORE.RESTR.CAVITY>
0

>  <SCORE.RESTR.norm>
0

>  <SCORE.SYSTEM>
-1.11896

>  <SCORE.SYSTEM.CONST>
0

>  <SCORE.SYSTEM.DIHEDRAL>
0.143978

>  <SCORE.SYSTEM.REPUL>
0.0274569

>  <SCORE.SYSTEM.VDW>
-1.32823

>  <SCORE.SYSTEM.norm>
-0.0799257

>  <SCORE.heavy>
14

>  <SCORE.norm>
-1.69644

>  <SMILES>
C[NH2+][C@H]1[C@@H](OC)O[C@H](CO)[C@@H](O)[C@H]1O

>  <UniqueID>
289

$$$$
ZINC000307565252
  rDOCK(R)          3D
libRbt.so/2013.1/901 2013/11/27
 27 29  0  0  0  0  0  0  0  0999 V2000
   33.5841    4.5040  -60.4156 C   0  0  0  0  0  0
   33.4002    3.3381  -61.1901 O   0  0  0  0  0  0
   33.8417    2.1931  -60.4748 C   0  0  0  0  0  0
   35.2595    2.1704  -60.3803 O   0  0  0  0  0  0
   35.9318    2.1384  -61.6407 C   0  0  0  0  0  0
   36.4503    3.5339  -62.0141 C   0  0  0  0  0  0
   37.0118    3.5038  -63.2972 O   0  0  0  0  0  0
   35.1224    1.5017  -62.8027 C   0  0  0  0  0  0
   36.0038    1.0287  -63.7897 O   0  0  0  0  0  0
   34.2604    0.3545  -62.2561 C   0  0  0  0  0  0
   35.0894   -0.6645  -61.7560 O   0  0  0  0  0  0
   33.2965    0.8931  -61.1579 C   0  0  0  0  0  0
   32.8810   -0.1770  -60.1991 N   0  3  0  0  0  0
   32.1966   -1.2558  -60.8785 C   0  0  0  0  0  0
   32.7372   -1.9702  -61.7656 O   0  0  0  0  0  0
   30.8466   -1.4635  -60.3790 C   0  0  0  0  0  0
   29.8605   -2.3736  -60.7581 C   0  0  0  0  0  0
   28.6312   -2.3353  -60.0754 C   0  0  0  0  0  0
   28.4200   -1.3995  -59.0394 C   0  0  0  0  0  0
   29.4368   -0.4966  -58.6799 C   0  0  0  0  0  0
   30.6428   -0.5597  -59.3768 C   0  0  0  0  0  0
   31.8632    0.2216  -59.2448 C   0  0  0  0  0  0
   32.0313    1.1117  -58.3694 O   0  0  0  0  0  0
   37.0682    4.4486  -63.5955 H   0  0  0  0  0  0
   36.5939    0.3611  -63.3513 H   0  0  0  0  0  0
   35.5547   -1.0718  -62.5327 H   0  0  0  0  0  0
   33.7026   -0.5805  -59.6909 H   0  0  0  0  0  0
  1  2  1  0  0  0
  2  3  1  0  0  0
  3  4  1  0  0  0
  4  5  1  0  0  0
  5  6  1  0  0  0
  5  8  1  0  0  0
  6  7  1  0  0  0
  7 24  1  0  0  0
  8  9  1  0  0  0
  8 10  1  0  0  0
  9 25  1  0  0  0
 10 11  1  0  0  0
 10 12  1  0  0  0
 11 26  1  0  0  0
 12 13  1  0  0  0
 12  3  1  0  0  0
 13 14  1  0  0  0
 13 27  1  0  0  0
 14 15  2  0  0  0
 14 16  1  0  0  0
 16 17  2  0  0  0
 17 18  1  0  0  0
 18 19  2  0  0  0
 19 20  1  0  0  0
 20 21  2  0  0  0
 21 22  1  0  0  0
 21 16  1  0  0  0
 22 23  2  0  0  0
 22 13  1  0  0  0
M  END
>  <CHROM.0>
72.60620824,-177.39322538,61.12509687

>  <CHROM.1>
-71.51234851,-175.36191996,162.89544387,59.18845727,-68.15010047,170.93256694
33.15674129,0.68990983,-60.93577698,0.33049612,0.60835417,0.46189686

>  <Energy>
87.56780905347793

>  <Genealogy>
CO[C@@H]1O[C@H](CO)[C@@H](O)[C@@H](O)[C@H]1[NH+]1C(=O)c2ccccc2C1=O (protonated)
CO[C@@H]1O[C@H](CO)[C@@H](O)[C@@H](O)[C@H]1[NH+]1C(=O)c2ccccc2C1=O (3D coordinates assigned)
CO[C@@H]1O[C@H](CO)[C@@H](O)[C@@H](O)[C@H]1[NH+]1C(=O)c2ccccc2C1=O (nonaromatic ring conformer: 87.56780905347793 kcal/mol)

>  <Name>
ZINC000307565252

>  <RI>
2.59779e+07

>  <Rbt.Current_Directory>
/home/edward/Documentos/Virtual_Screening/rDock/N-terminal/2

>  <Rbt.Executable>
rbdock ($Id: //depot/dev/client3/rdock/2013.1/src/exe/rbdock.cxx#4 $)

>  <Rbt.Library>
libRbt.so (2013.1, Build901 2013/11/27)

>  <Rbt.Parameter_File>
/home/edward/anaconda3/envs/MD/share/rdock-2013.1-1/data/scripts/dock.prm

>  <Rbt.Receptor>
parameters.prm

>  <SCORE>
-17.8698

>  <SCORE.INTER>
-18.9371

>  <SCORE.INTER.CONST>
1

>  <SCORE.INTER.POLAR>
-4.02948

>  <SCORE.INTER.REPUL>
0.272322

>  <SCORE.INTER.ROT>
3

>  <SCORE.INTER.VDW>
-14.9985

>  <SCORE.INTER.norm>
-0.823354

>  <SCORE.INTRA>
0.576521

>  <SCORE.INTRA.DIHEDRAL>
-2.98526

>  <SCORE.INTRA.DIHEDRAL.0>
5.86777

>  <SCORE.INTRA.POLAR>
0

>  <SCORE.INTRA.POLAR.0>
0

>  <SCORE.INTRA.REPUL>
0

>  <SCORE.INTRA.REPUL.0>
0

>  <SCORE.INTRA.VDW>
2.06915

>  <SCORE.INTRA.VDW.0>
-2.53055

>  <SCORE.INTRA.norm>
0.0250661

>  <SCORE.RESTR>
0

>  <SCORE.RESTR.CAVITY>
0

>  <SCORE.RESTR.norm>
0

>  <SCORE.SYSTEM>
0.490771

>  <SCORE.SYSTEM.CONST>
0

>  <SCORE.SYSTEM.DIHEDRAL>
0.795886

>  <SCORE.SYSTEM.POLAR>
-0.0176264

>  <SCORE.SYSTEM.REPUL>
0.061239

>  <SCORE.SYSTEM.VDW>
-0.153437

>  <SCORE.SYSTEM.norm>
0.0213379

>  <SCORE.heavy>
23

>  <SCORE.norm>
-0.77695

>  <SMILES>
CO[C@@H]1O[C@H](CO)[C@@H](O)[C@@H](O)[C@H]1[NH+]1C(=O)c2ccccc2C1=O

>  <UniqueID>
292

$$$$
ZINC000383920275
  rDOCK(R)          3D
libRbt.so/2013.1/901 2013/11/27
 18 19  0  0  0  0  0  0  0  0999 V2000
   32.6562    0.3319  -60.1628 C   0  0  0  0  0  0
   33.4570    1.3663  -59.6336 O   0  0  0  0  0  0
   34.4764    1.7105  -60.5529 C   0  0  0  0  0  0
   33.9019    2.3229  -61.6948 O   0  0  0  0  0  0
   34.8398    2.5087  -62.7536 C   0  0  0  0  0  0
   34.6941    1.3776  -63.7833 C   0  0  0  0  0  0
   35.6781    1.4885  -64.7763 O   0  0  0  0  0  0
   36.3234    2.6708  -62.3041 C   0  0  0  0  0  0
   37.0284    3.4230  -63.2586 O   0  0  0  0  0  0
   36.4150    3.3420  -60.9228 C   0  0  0  0  0  0
   36.0489    4.7177  -60.9987 O   0  0  0  0  0  0
   35.0846    4.9860  -60.0568 C   0  0  0  0  0  0
   34.5931    6.1285  -59.8665 O   0  0  0  0  0  0
   34.6962    3.8405  -59.3365 N   0  0  0  0  0  0
   35.4381    2.7085  -59.8822 C   0  0  0  0  0  0
   35.5332    2.3612  -65.2267 H   0  0  0  0  0  0
   36.6205    4.3282  -63.2694 H   0  0  0  0  0  0
   33.9757    3.8063  -58.5812 H   0  0  0  0  0  0
  1  2  1  0  0  0
  2  3  1  0  0  0
  3  4  1  0  0  0
  4  5  1  0  0  0
  5  6  1  0  0  0
  5  8  1  0  0  0
  6  7  1  0  0  0
  7 16  1  0  0  0
  8  9  1  0  0  0
  8 10  1  0  0  0
  9 17  1  0  0  0
 10 11  1  0  0  0
 11 12  1  0  0  0
 12 13  2  0  0  0
 12 14  1  0  0  0
 14 15  1  0  0  0
 14 18  1  0  0  0
 15  3  1  0  0  0
 15 10  1  0  0  0
M  END
>  <CHROM.0>
-177.33240398,-177.81478508,179.47579577

>  <CHROM.1>
68.02232013,-175.42277324,-61.34976303,63.86654426,35.00976755,2.86587323
-61.37417798,1.82711139,0.88168721,0.82954030

>  <Energy>
49.726064203431655

>  <Genealogy>
CO[C@H]1O[C@H](CO)[C@@H](O)[C@H]2OC(=O)N[C@@H]12 (3D coordinates assigned)
CO[C@H]1O[C@H](CO)[C@@H](O)[C@H]2OC(=O)N[C@@H]12 (nonaromatic ring conformer: 49.726064203431655 kcal/mol)

>  <Name>
ZINC000383920275

>  <RI>
2.59779e+07

>  <Rbt.Current_Directory>
/home/edward/Documentos/Virtual_Screening/rDock/N-terminal/2

>  <Rbt.Executable>
rbdock ($Id: //depot/dev/client3/rdock/2013.1/src/exe/rbdock.cxx#4 $)

>  <Rbt.Library>
libRbt.so (2013.1, Build901 2013/11/27)

>  <Rbt.Parameter_File>
/home/edward/anaconda3/envs/MD/share/rdock-2013.1-1/data/scripts/dock.prm

>  <Rbt.Receptor>
parameters.prm

>  <SCORE>
-18.2715

>  <SCORE.INTER>
-16.7648

>  <SCORE.INTER.CONST>
1

>  <SCORE.INTER.POLAR>
-3.8799

>  <SCORE.INTER.REPUL>
0.237195

>  <SCORE.INTER.ROT>
2

>  <SCORE.INTER.VDW>
-12.1592

>  <SCORE.INTER.norm>
-1.11766

>  <SCORE.INTRA>
-1.04393

>  <SCORE.INTRA.DIHEDRAL>
-3.66971

>  <SCORE.INTRA.DIHEDRAL.0>
4.3288

>  <SCORE.INTRA.POLAR>
-0.0272386

>  <SCORE.INTRA.POLAR.0>
0

>  <SCORE.INTRA.REPUL>
0

>  <SCORE.INTRA.REPUL.0>
0

>  <SCORE.INTRA.VDW>
0.883534

>  <SCORE.INTRA.VDW.0>
-0.490184

>  <SCORE.INTRA.norm>
-0.0695954

>  <SCORE.RESTR>
0

>  <SCORE.RESTR.CAVITY>
0

>  <SCORE.RESTR.norm>
0

>  <SCORE.SYSTEM>
-0.462777

>  <SCORE.SYSTEM.CONST>
0

>  <SCORE.SYSTEM.DIHEDRAL>
0.0599541

>  <SCORE.SYSTEM.REPUL>
0.0875488

>  <SCORE.SYSTEM.VDW>
-0.930499

>  <SCORE.SYSTEM.norm>
-0.0308518

>  <SCORE.heavy>
15

>  <SCORE.norm>
-1.2181

>  <SMILES>
CO[C@H]1O[C@H](CO)[C@@H](O)[C@H]2OC(=O)N[C@@H]12

>  <UniqueID>
293

$$$$
ZINC000394934764
  rDOCK(R)          3D
libRbt.so/2013.1/901 2013/11/27
 18 18  0  0  0  0  0  0  0  0999 V2000
   34.9709   -1.1035  -63.9796 H   0  0  0  0  0  0
   34.0398   -1.2287  -63.6585 O   0  0  0  0  0  0
   33.4026    0.0145  -63.7799 C   0  0  0  0  0  0
   34.0368    1.0373  -62.8260 C   0  0  0  0  0  0
   33.9356    0.5351  -61.5014 O   0  0  0  0  0  0
   34.4086    1.4737  -60.5433 C   0  0  0  0  0  0
   33.6508    2.6741  -60.5687 O   0  0  0  0  0  0
   32.3360    2.4277  -60.1197 C   0  0  0  0  0  0
   35.9065    1.7737  -60.7615 C   0  0  0  0  0  0
   36.3639    2.7554  -59.7810 N   0  0  0  0  0  0
   35.5617    3.4097  -59.1137 N   0  3  0  0  0  0
   34.7607    4.0630  -58.4471 N   0  5  0  0  0  0
   36.1696    2.2633  -62.1990 C   0  0  0  0  0  0
   35.6502    3.5609  -62.3635 O   0  0  0  0  0  0
   35.9678    3.8930  -63.2435 H   0  0  0  0  0  0
   35.5210    1.2860  -63.1983 C   0  0  0  0  0  0
   35.6644    1.7512  -64.5191 O   0  0  0  0  0  0
   35.2456    1.0861  -65.1254 H   0  0  0  0  0  0
  1  2  1  0  0  0
  2  3  1  0  0  0
  3  4  1  0  0  0
  4  5  1  0  0  0
  5  6  1  0  0  0
  6  7  1  0  0  0
  6  9  1  0  0  0
  7  8  1  0  0  0
  9 10  1  0  0  0
  9 13  1  0  0  0
 10 11  2  0  0  0
 11 12  2  0  0  0
 13 14  1  0  0  0
 13 16  1  0  0  0
 14 15  1  0  0  0
 16 17  1  0  0  0
 16  4  1  0  0  0
 17 18  1  0  0  0
M  END
>  <CHROM.0>
-178.16780084,-61.49528466,-61.96356626

>  <CHROM.1>
-65.64053621,-57.98163048,67.25037458,-14.09567820,170.93738998,-56.94959209
34.73985132,1.83643492,-61.62343329,1.69065952,-0.56874598,-2.12656075

>  <Energy>
27.80516321763774

>  <Genealogy>
CO[C@H]1O[C@H](CO)[C@@H](O)[C@@H](O)[C@H]1N=[N+]=[N-] (cis-trans isomerization)
CO[C@H]1O[C@H](CO)[C@@H](O)[C@@H](O)[C@H]1N=[N+]=[N-] (3D coordinates assigned)
CO[C@H]1O[C@H](CO)[C@@H](O)[C@@H](O)[C@H]1N=[N+]=[N-] (nonaromatic ring conformer: 27.80516321763774 kcal/mol)

>  <Name>
ZINC000394934764

>  <RI>
2.59779e+07

>  <Rbt.Current_Directory>
/home/edward/Documentos/Virtual_Screening/rDock/N-terminal/2

>  <Rbt.Executable>
rbdock ($Id: //depot/dev/client3/rdock/2013.1/src/exe/rbdock.cxx#4 $)

>  <Rbt.Library>
libRbt.so (2013.1, Build901 2013/11/27)

>  <Rbt.Parameter_File>
/home/edward/anaconda3/envs/MD/share/rdock-2013.1-1/data/scripts/dock.prm

>  <Rbt.Receptor>
parameters.prm

>  <SCORE>
-17.1768

>  <SCORE.INTER>
-14.2092

>  <SCORE.INTER.CONST>
1

>  <SCORE.INTER.POLAR>
-2.81555

>  <SCORE.INTER.REPUL>
0.145923

>  <SCORE.INTER.ROT>
3

>  <SCORE.INTER.VDW>
-13.7659

>  <SCORE.INTER.norm>
-0.947278

>  <SCORE.INTRA>
-1.97276

>  <SCORE.INTRA.DIHEDRAL>
-6.66023

>  <SCORE.INTRA.DIHEDRAL.0>
7.95106

>  <SCORE.INTRA.POLAR>
0

>  <SCORE.INTRA.POLAR.0>
0

>  <SCORE.INTRA.REPUL>
-0.0722917

>  <SCORE.INTRA.REPUL.0>
0.0803261

>  <SCORE.INTRA.VDW>
1.71882

>  <SCORE.INTRA.VDW.0>
-0.99639

>  <SCORE.INTRA.norm>
-0.131517

>  <SCORE.RESTR>
0

>  <SCORE.RESTR.CAVITY>
0

>  <SCORE.RESTR.norm>
0

>  <SCORE.SYSTEM>
-0.994822

>  <SCORE.SYSTEM.CONST>
0

>  <SCORE.SYSTEM.DIHEDRAL>
0.046591

>  <SCORE.SYSTEM.REPUL>
0.0349755

>  <SCORE.SYSTEM.VDW>
-1.19299

>  <SCORE.SYSTEM.norm>
-0.0663214

>  <SCORE.heavy>
15

>  <SCORE.norm>
-1.14512

>  <SMILES>
CO[C@H]1O[C@H](CO)[C@@H](O)[C@@H](O)[C@H]1N=[N+]=[N-]

>  <UniqueID>
295

$$$$
ZINC000396869768
  rDOCK(R)          3D
libRbt.so/2013.1/901 2013/11/27
 18 18  0  0  0  0  0  0  0  0999 V2000
   34.9160    4.4019  -58.8953 C   0  0  0  0  0  0
   35.9237    3.7044  -59.5939 O   0  0  0  0  0  0
   35.8876    4.0283  -60.9722 C   0  0  0  0  0  0
   34.6679    3.3705  -61.6571 C   0  0  0  0  0  0
   34.6051    3.6312  -63.0570 O   0  0  0  0  0  0
   35.5058    2.8570  -63.8373 C   0  0  0  0  0  0
   36.8357    3.2368  -63.5895 O   0  0  0  0  0  0
   35.3066    1.3384  -63.6363 C   0  0  0  0  0  0
   33.9997    0.9274  -64.1616 N   0  0  0  0  0  0
   35.4416    0.9911  -62.1382 C   0  0  0  0  0  0
   35.1232   -0.3733  -61.9063 O   0  0  0  0  0  0
   36.1916   -1.2116  -62.2896 C   0  0  0  0  0  0
   34.4992    1.8706  -61.2990 C   0  0  0  0  0  0
   33.1549    1.4795  -61.5431 O   0  0  0  0  0  0
   32.2966    1.9698  -60.5364 C   0  0  0  0  0  0
   36.8947    4.2141  -63.7546 H   0  0  0  0  0  0
   33.2521    1.3916  -63.5968 H   0  0  0  0  0  0
   33.8795   -0.0976  -63.9911 H   0  0  0  0  0  0
  1  2  1  0  0  0
  2  3  1  0  0  0
  3  4  1  0  0  0
  4  5  1  0  0  0
  5  6  1  0  0  0
  6  7  1  0  0  0
  6  8  1  0  0  0
  7 16  1  0  0  0
  8  9  1  0  0  0
  8 10  1  0  0  0
  9 17  1  0  0  0
  9 18  1  0  0  0
 10 11  1  0  0  0
 10 13  1  0  0  0
 11 12  1  0  0  0
 13 14  1  0  0  0
 13  4  1  0  0  0
 14 15  1  0  0  0
M  END
>  <CHROM.0>
-176.05247275,-60.25879893,-179.74262238

>  <CHROM.1>
-72.87052561,-178.21461369,-55.07792435,-64.47016183,77.40844081,-75.36689404
34.95132426,2.14790914,-61.93395118,1.60385452,0.95381728,0.66548980

>  <Energy>
44.952116378952

>  <Genealogy>
COC[C@H]1O[C@@H](O)[C@H](N)[C@H](OC)[C@@H]1OC (3D coordinates assigned)
COC[C@H]1O[C@@H](O)[C@H](N)[C@H](OC)[C@@H]1OC (nonaromatic ring conformer: 44.952116378952 kcal/mol)

>  <Name>
ZINC000396869768

>  <RI>
2.59779e+07

>  <Rbt.Current_Directory>
/home/edward/Documentos/Virtual_Screening/rDock/N-terminal/2

>  <Rbt.Executable>
rbdock ($Id: //depot/dev/client3/rdock/2013.1/src/exe/rbdock.cxx#4 $)

>  <Rbt.Library>
libRbt.so (2013.1, Build901 2013/11/27)

>  <Rbt.Parameter_File>
/home/edward/anaconda3/envs/MD/share/rdock-2013.1-1/data/scripts/dock.prm

>  <Rbt.Receptor>
parameters.prm

>  <SCORE>
-22.9774

>  <SCORE.INTER>
-14.4267

>  <SCORE.INTER.CONST>
1

>  <SCORE.INTER.POLAR>
-2.48738

>  <SCORE.INTER.REPUL>
0.000802072

>  <SCORE.INTER.ROT>
5

>  <SCORE.INTER.VDW>
-16.3736

>  <SCORE.INTER.norm>
-0.961779

>  <SCORE.INTRA>
-7.50702

>  <SCORE.INTRA.DIHEDRAL>
-13.3081

>  <SCORE.INTRA.DIHEDRAL.0>
17.1516

>  <SCORE.INTRA.POLAR>
-0.526894

>  <SCORE.INTRA.POLAR.0>
0

>  <SCORE.INTRA.REPUL>
-0.27145

>  <SCORE.INTRA.REPUL.0>
0.27145

>  <SCORE.INTRA.VDW>
2.29574

>  <SCORE.INTRA.VDW.0>
-1.4589

>  <SCORE.INTRA.norm>
-0.500468

>  <SCORE.RESTR>
0

>  <SCORE.RESTR.CAVITY>
0

>  <SCORE.RESTR.norm>
0

>  <SCORE.SYSTEM>
-1.04372

>  <SCORE.SYSTEM.CONST>
0

>  <SCORE.SYSTEM.DIHEDRAL>
0.0772829

>  <SCORE.SYSTEM.REPUL>
0.0291169

>  <SCORE.SYSTEM.VDW>
-1.22794

>  <SCORE.SYSTEM.norm>
-0.0695811

>  <SCORE.heavy>
15

>  <SCORE.norm>
-1.53183

>  <SMILES>
COC[C@H]1O[C@@H](O)[C@H](N)[C@H](OC)[C@@H]1OC

>  <UniqueID>
298

$$$$
ZINC000575124622
  rDOCK(R)          3D
libRbt.so/2013.1/901 2013/11/27
 25 27  0  0  0  0  0  0  0  0999 V2000
   36.6321    4.6272  -62.9217 H   0  0  0  0  0  0
   36.7571    4.2437  -61.9922 O   0  0  0  0  0  0
   36.2216    3.0063  -61.6463 C   0  0  0  0  0  0
   35.5273    2.3475  -62.5312 N   0  0  0  0  0  0
   34.9068    1.0299  -62.3564 C   0  0  0  0  0  0
   34.8991    0.2568  -63.6935 C   0  0  0  0  0  0
   34.3555    1.0651  -64.7089 O   0  0  0  0  0  0
   34.8398    1.9313  -64.6808 H   0  0  0  0  0  0
   34.0733   -1.0291  -63.5306 C   0  0  0  0  0  0
   33.9545   -1.7020  -64.7715 O   0  0  0  0  0  0
   32.9532   -2.7193  -64.7503 C   0  0  0  0  0  0
   33.5016   -3.9445  -65.4314 C   0  0  0  0  0  0
   32.6552   -5.0080  -65.7921 C   0  0  0  0  0  0
   33.1788   -6.1446  -66.4164 C   0  0  0  0  0  0
   34.5479   -6.2307  -66.6824 C   0  0  0  0  0  0
   35.3969   -5.1808  -66.3233 C   0  0  0  0  0  0
   34.8783   -4.0423  -65.6989 C   0  0  0  0  0  0
   32.5436   -3.0813  -63.4376 O   0  0  0  0  0  0
   31.8899   -1.9909  -62.8132 C   0  0  0  0  0  0
   32.6909   -0.6833  -62.9503 C   0  0  0  0  0  0
   32.8307   -0.0541  -61.6886 O   0  0  0  0  0  0
   33.4631    1.2106  -61.8361 C   0  0  0  0  0  0
   33.5254    1.8451  -60.5724 O   0  0  0  0  0  0
   32.2431    2.2936  -60.1902 C   0  0  0  0  0  0
   36.4506    2.4947  -60.2541 C   0  0  0  0  0  0
  1  2  1  0  0  0
  2  3  1  0  0  0
  3  4  2  0  0  0
  3 25  1  0  0  0
  4  5  1  0  0  0
  5  6  1  0  0  0
  6  7  1  0  0  0
  6  9  1  0  0  0
  7  8  1  0  0  0
  9 10  1  0  0  0
 10 11  1  0  0  0
 11 12  1  0  0  0
 11 18  1  0  0  0
 12 13  2  0  0  0
 13 14  1  0  0  0
 14 15  2  0  0  0
 15 16  1  0  0  0
 16 17  2  0  0  0
 17 12  1  0  0  0
 18 19  1  0  0  0
 19 20  1  0  0  0
 20 21  1  0  0  0
 20  9  1  0  0  0
 21 22  1  0  0  0
 22 23  1  0  0  0
 22  5  1  0  0  0
 23 24  1  0  0  0
M  END
>  <CHROM.0>
-177.26472418,62.19823208,177.92780584

>  <CHROM.1>
-1.31113481,-147.69553338,51.27776093,-167.34290660,167.22600277,34.06571251
-0.81094610,-63.40295776,-1.40395879,-0.49317343,-2.52784543

>  <Energy>
60.350453315109846

>  <Genealogy>
CO[C@@H]1O[C@@H]2CO[C@H](c3ccccc3)O[C@H]2[C@@H](O)[C@H]1N=C(C)O (tautomer)
CO[C@@H]1O[C@@H]2CO[C@H](c3ccccc3)O[C@H]2[C@@H](O)[C@H]1/N=C(\C)O (cis-trans isomerization)
CO[C@@H]1O[C@@H]2CO[C@H](c3ccccc3)O[C@H]2[C@@H](O)[C@H]1/N=C(\C)O (3D coordinates assigned)
CO[C@@H]1O[C@@H]2CO[C@H](c3ccccc3)O[C@H]2[C@@H](O)[C@H]1/N=C(\C)O (nonaromatic ring conformer: 60.350453315109846 kcal/mol)

>  <Name>
ZINC000575124622

>  <RI>
2.59779e+07

>  <Rbt.Current_Directory>
/home/edward/Documentos/Virtual_Screening/rDock/N-terminal/2

>  <Rbt.Executable>
rbdock ($Id: //depot/dev/client3/rdock/2013.1/src/exe/rbdock.cxx#4 $)

>  <Rbt.Library>
libRbt.so (2013.1, Build901 2013/11/27)

>  <Rbt.Parameter_File>
/home/edward/anaconda3/envs/MD/share/rdock-2013.1-1/data/scripts/dock.prm

>  <Rbt.Receptor>
parameters.prm

>  <SCORE>
-14.7342

>  <SCORE.INTER>
-13.7795

>  <SCORE.INTER.CONST>
1

>  <SCORE.INTER.POLAR>
-1.34629

>  <SCORE.INTER.REPUL>
0.0709413

>  <SCORE.INTER.ROT>
3

>  <SCORE.INTER.VDW>
-17.9568

>  <SCORE.INTER.norm>
-0.59911

>  <SCORE.INTRA>
-0.726396

>  <SCORE.INTRA.DIHEDRAL>
-2.44626

>  <SCORE.INTRA.DIHEDRAL.0>
5.38357

>  <SCORE.INTRA.POLAR>
-0.135903

>  <SCORE.INTRA.POLAR.0>
0

>  <SCORE.INTRA.REPUL>
0

>  <SCORE.INTRA.REPUL.0>
0

>  <SCORE.INTRA.VDW>
0.958803

>  <SCORE.INTRA.VDW.0>
-1.75497

>  <SCORE.INTRA.norm>
-0.0315824

>  <SCORE.RESTR>
0

>  <SCORE.RESTR.CAVITY>
0

>  <SCORE.RESTR.norm>
0

>  <SCORE.SYSTEM>
-0.228246

>  <SCORE.SYSTEM.CONST>
0

>  <SCORE.SYSTEM.DIHEDRAL>
0.0818468

>  <SCORE.SYSTEM.REPUL>
0.172594

>  <SCORE.SYSTEM.VDW>
-1.13214

>  <SCORE.SYSTEM.norm>
-0.00992375

>  <SCORE.heavy>
23

>  <SCORE.norm>
-0.640616

>  <SMILES>
CO[C@@H]1O[C@@H]2CO[C@H](c3ccccc3)O[C@H]2[C@@H](O)[C@H]1/N=C(\C)O

>  <UniqueID>
299

$$$$
ZINC000575124647
  rDOCK(R)          3D
libRbt.so/2013.1/901 2013/11/27
 22 22  0  0  0  0  0  0  0  0999 V2000
   31.4803   -1.6873  -65.4540 H   0  0  0  0  0  0
   32.1352   -1.1478  -64.9006 O   0  0  0  0  0  0
   33.2839   -1.7327  -64.3688 C   0  0  0  0  0  0
   34.1304   -1.0279  -63.6788 N   0  0  0  0  0  0
   33.9663    0.3905  -63.3479 C   0  0  0  0  0  0
   35.1732    1.1870  -63.8919 C   0  0  0  0  0  0
   36.3946    0.5261  -63.6507 O   0  0  0  0  0  0
   36.3283   -0.3959  -64.0055 H   0  0  0  0  0  0
   35.1846    2.6299  -63.3388 C   0  0  0  0  0  0
   36.4119    3.2502  -63.6260 O   0  0  0  0  0  0
   36.3088    4.2094  -63.3914 H   0  0  0  0  0  0
   34.9349    2.6330  -61.8120 C   0  0  0  0  0  0
   34.8537    4.0625  -61.2548 C   0  0  0  0  0  0
   36.0837    4.7259  -61.3865 O   0  0  0  0  0  0
   35.9731    5.6241  -60.9790 H   0  0  0  0  0  0
   33.7237    1.9627  -61.5110 O   0  0  0  0  0  0
   33.8226    0.5814  -61.8205 C   0  0  0  0  0  0
   32.6401   -0.0664  -61.3945 O   0  0  0  0  0  0
   32.4931   -0.0059  -59.9861 C   0  0  0  0  0  0
   31.2229   -0.7470  -59.5649 C   0  0  0  0  0  0
   29.9639   -0.0614  -60.0908 C   0  0  0  0  0  0
   33.5658   -3.1781  -64.6229 C   0  0  0  0  0  0
  1  2  1  0  0  0
  2  3  1  0  0  0
  3  4  2  0  0  0
  3 22  1  0  0  0
  4  5  1  0  0  0
  5  6  1  0  0  0
  6  7  1  0  0  0
  6  9  1  0  0  0
  7  8  1  0  0  0
  9 10  1  0  0  0
  9 12  1  0  0  0
 10 11  1  0  0  0
 12 13  1  0  0  0
 12 16  1  0  0  0
 13 14  1  0  0  0
 14 15  1  0  0  0
 16 17  1  0  0  0
 17 18  1  0  0  0
 17  5  1  0  0  0
 18 19  1  0  0  0
 19 20  1  0  0  0
 20 21  1  0  0  0
M  END
>  <CHROM.0>
-178.68167661,-57.20193854,-174.88081315

>  <CHROM.1>
178.83388848,-122.12743509,53.31552876,170.53470153,-65.08276625,-177.87361915
176.09936591,-178.57846697,-65.37700003,33.91024470,0.81640957,-62.46354159
-2.47681781,0.71696181,0.74461704

>  <Energy>
33.087308244186005

>  <Genealogy>
CCCO[C@@H]1O[C@H](CO)[C@@H](O)[C@@H](O)[C@H]1N=C(C)O (tautomer)
CCCO[C@@H]1O[C@H](CO)[C@@H](O)[C@@H](O)[C@H]1/N=C(/C)O (cis-trans isomerization)
CCCO[C@@H]1O[C@H](CO)[C@@H](O)[C@@H](O)[C@H]1/N=C(/C)O (3D coordinates assigned)
CCCO[C@@H]1O[C@H](CO)[C@@H](O)[C@@H](O)[C@H]1/N=C(/C)O (nonaromatic ring conformer: 33.087308244186005 kcal/mol)

>  <Name>
ZINC000575124647

>  <RI>
2.59779e+07

>  <Rbt.Current_Directory>
/home/edward/Documentos/Virtual_Screening/rDock/N-terminal/2

>  <Rbt.Executable>
rbdock ($Id: //depot/dev/client3/rdock/2013.1/src/exe/rbdock.cxx#4 $)

>  <Rbt.Library>
libRbt.so (2013.1, Build901 2013/11/27)

>  <Rbt.Parameter_File>
/home/edward/anaconda3/envs/MD/share/rdock-2013.1-1/data/scripts/dock.prm

>  <Rbt.Receptor>
parameters.prm

>  <SCORE>
-22.3307

>  <SCORE.INTER>
-14.4129

>  <SCORE.INTER.CONST>
1

>  <SCORE.INTER.POLAR>
-3.23539

>  <SCORE.INTER.REPUL>
0.0194931

>  <SCORE.INTER.ROT>
5

>  <SCORE.INTER.VDW>
-13.91

>  <SCORE.INTER.norm>
-0.800716

>  <SCORE.INTRA>
-6.98299

>  <SCORE.INTRA.DIHEDRAL>
-13.7918

>  <SCORE.INTRA.DIHEDRAL.0>
14.8846

>  <SCORE.INTRA.POLAR>
-0.443363

>  <SCORE.INTRA.POLAR.0>
0

>  <SCORE.INTRA.REPUL>
0

>  <SCORE.INTRA.REPUL.0>
0

>  <SCORE.INTRA.VDW>
1.42034

>  <SCORE.INTRA.VDW.0>
-2.35632

>  <SCORE.INTRA.norm>
-0.387944

>  <SCORE.RESTR>
0

>  <SCORE.RESTR.CAVITY>
0

>  <SCORE.RESTR.norm>
0

>  <SCORE.SYSTEM>
-0.934795

>  <SCORE.SYSTEM.CONST>
0

>  <SCORE.SYSTEM.DIHEDRAL>
0.175689

>  <SCORE.SYSTEM.REPUL>
0.0363843

>  <SCORE.SYSTEM.VDW>
-1.20456

>  <SCORE.SYSTEM.norm>
-0.0519331

>  <SCORE.heavy>
18

>  <SCORE.norm>
-1.24059

>  <SMILES>
CCCO[C@@H]1O[C@H](CO)[C@@H](O)[C@@H](O)[C@H]1/N=C(/C)O

>  <UniqueID>
302

$$$$
ZINC000616582453
  rDOCK(R)          3D
libRbt.so/2013.1/901 2013/11/27
 25 25  0  0  0  0  0  0  0  0999 V2000
   28.7131    0.0775  -60.4267 H   0  0  0  0  0  0
   29.3004   -0.5430  -59.8823 O   0  0  0  0  0  0
   30.6826   -0.3822  -59.8290 C   0  0  0  0  0  0
   31.2175    0.5857  -60.5175 N   0  0  0  0  0  0
   32.6432    0.9194  -60.6203 C   0  0  0  0  0  0
   32.8786    2.3461  -60.0887 C   0  0  0  0  0  0
   32.0017    3.2563  -60.7086 O   0  0  0  0  0  0
   32.1861    3.2213  -61.6834 H   0  0  0  0  0  0
   34.3344    2.7721  -60.3566 C   0  0  0  0  0  0
   34.5003    4.1288  -60.0320 O   0  0  0  0  0  0
   35.4627    4.3376  -60.1591 H   0  0  0  0  0  0
   34.6922    2.5294  -61.8444 C   0  0  0  0  0  0
   36.1671    2.8602  -62.1287 C   0  0  0  0  0  0
   36.4093    2.9680  -63.5060 O   0  0  0  0  0  0
   36.0604    3.8538  -63.7879 H   0  0  0  0  0  0
   34.4809    1.1680  -62.1804 O   0  0  0  0  0  0
   33.1062    0.8306  -62.0886 C   0  0  0  0  0  0
   32.9362   -0.5005  -62.5368 O   0  0  0  0  0  0
   33.3341   -0.6421  -63.8876 C   0  0  0  0  0  0
   33.2209   -2.1120  -64.3118 C   0  0  0  0  0  0
   31.8061   -2.6873  -64.1221 C   0  0  0  0  0  0
   30.7472   -2.1380  -65.0950 C   0  0  0  0  0  0
   30.9486   -2.6278  -66.5362 C   0  0  0  0  0  0
   29.9230   -2.0027  -67.4776 C   0  0  0  0  0  0
   31.4990   -1.3036  -58.9633 C   0  0  0  0  0  0
  1  2  1  0  0  0
  2  3  1  0  0  0
  3  4  2  0  0  0
  3 25  1  0  0  0
  4  5  1  0  0  0
  5  6  1  0  0  0
  6  7  1  0  0  0
  6  9  1  0  0  0
  7  8  1  0  0  0
  9 10  1  0  0  0
  9 12  1  0  0  0
 10 11  1  0  0  0
 12 13  1  0  0  0
 12 16  1  0  0  0
 13 14  1  0  0  0
 14 15  1  0  0  0
 16 17  1  0  0  0
 17 18  1  0  0  0
 17  5  1  0  0  0
 18 19  1  0  0  0
 19 20  1  0  0  0
 20 21  1  0  0  0
 21 22  1  0  0  0
 22 23  1  0  0  0
 23 24  1  0  0  0
M  END
>  <CHROM.0>
-174.70809869,-60.79839847,63.08490049

>  <CHROM.1>
-0.91979326,-119.18816267,-60.06784419,176.06369236,-165.09031610,77.25218891
179.44783894,176.41009146,56.98351674,70.28982167,70.35720446,-177.04245237
32.72002935,0.49911001,-62.22872202,2.16209665,-0.65660811,-2.04373612

>  <Energy>
38.581491128033065

>  <Genealogy>
CCCCCCO[C@@H]1O[C@H](CO)[C@@H](O)[C@@H](O)[C@H]1N=C(C)O (tautomer)
CCCCCCO[C@@H]1O[C@H](CO)[C@@H](O)[C@@H](O)[C@H]1/N=C(/C)O (cis-trans isomerization)
CCCCCCO[C@@H]1O[C@H](CO)[C@@H](O)[C@@H](O)[C@H]1/N=C(/C)O (3D coordinates assigned)
CCCCCCO[C@@H]1O[C@H](CO)[C@@H](O)[C@@H](O)[C@H]1/N=C(/C)O (nonaromatic ring conformer: 38.581491128033065 kcal/mol)

>  <Name>
ZINC000616582453

>  <RI>
2.59779e+07

>  <Rbt.Current_Directory>
/home/edward/Documentos/Virtual_Screening/rDock/N-terminal/2

>  <Rbt.Executable>
rbdock ($Id: //depot/dev/client3/rdock/2013.1/src/exe/rbdock.cxx#4 $)

>  <Rbt.Library>
libRbt.so (2013.1, Build901 2013/11/27)

>  <Rbt.Parameter_File>
/home/edward/anaconda3/envs/MD/share/rdock-2013.1-1/data/scripts/dock.prm

>  <Rbt.Receptor>
parameters.prm

>  <SCORE>
-16.0844

>  <SCORE.INTER>
-11.02

>  <SCORE.INTER.CONST>
1

>  <SCORE.INTER.POLAR>
-3.085

>  <SCORE.INTER.REPUL>
0.0187871

>  <SCORE.INTER.ROT>
8

>  <SCORE.INTER.VDW>
-14.025

>  <SCORE.INTER.norm>
-0.524764

>  <SCORE.INTRA>
-3.95284

>  <SCORE.INTRA.DIHEDRAL>
-9.65654

>  <SCORE.INTRA.DIHEDRAL.0>
12.9165

>  <SCORE.INTRA.POLAR>
0

>  <SCORE.INTRA.POLAR.0>
0

>  <SCORE.INTRA.REPUL>
0

>  <SCORE.INTRA.REPUL.0>
0

>  <SCORE.INTRA.VDW>
0.875435

>  <SCORE.INTRA.VDW.0>
-1.73746

>  <SCORE.INTRA.norm>
-0.18823

>  <SCORE.RESTR>
0

>  <SCORE.RESTR.CAVITY>
0

>  <SCORE.RESTR.norm>
0

>  <SCORE.SYSTEM>
-1.1115

>  <SCORE.SYSTEM.CONST>
0

>  <SCORE.SYSTEM.DIHEDRAL>
0.187319

>  <SCORE.SYSTEM.REPUL>
0.0253469

>  <SCORE.SYSTEM.VDW>
-1.33189

>  <SCORE.SYSTEM.norm>
-0.0529284

>  <SCORE.heavy>
21

>  <SCORE.norm>
-0.765922

>  <SMILES>
CCCCCCO[C@@H]1O[C@H](CO)[C@@H](O)[C@@H](O)[C@H]1/N=C(/C)O

>  <UniqueID>
304

$$$$
ZINC000616582683
  rDOCK(R)          3D
libRbt.so/2013.1/901 2013/11/27
 22 22  0  0  0  0  0  0  0  0999 V2000
   36.7568   -3.3964  -63.5285 C   0  0  0  0  0  0
   37.1653   -2.4584  -62.6697 C   0  0  0  0  0  0
   36.2037   -1.7398  -61.7636 C   0  0  0  0  0  0
   36.4640   -0.3485  -61.7515 O   0  0  0  0  0  0
   35.2773    0.4060  -61.5360 C   0  0  0  0  0  0
   35.5667    1.6864  -60.9908 O   0  0  0  0  0  0
   36.3657    2.4710  -61.8651 C   0  0  0  0  0  0
   36.7199    3.7816  -61.1459 C   0  0  0  0  0  0
   37.4052    3.5170  -59.9515 O   0  0  0  0  0  0
   35.6103    2.7554  -63.1856 C   0  0  0  0  0  0
   36.4120    3.5087  -64.0619 O   0  0  0  0  0  0
   35.2295    1.4280  -63.8614 C   0  0  0  0  0  0
   36.3833    0.7694  -64.3272 O   0  0  0  0  0  0
   34.4777    0.5369  -62.8525 C   0  0  0  0  0  0
   34.1915   -0.7862  -63.4233 N   0  0  0  0  0  0
   32.9424   -1.4601  -63.2136 C   0  0  0  0  0  0
   32.7251   -2.8210  -63.7901 C   0  0  0  0  0  0
   32.0115   -0.8997  -62.5741 O   0  0  0  0  0  0
   38.2465    3.0532  -60.2030 H   0  0  0  0  0  0
   36.5639    4.3924  -63.6356 H   0  0  0  0  0  0
   36.8335    0.3757  -63.5347 H   0  0  0  0  0  0
   34.8924   -1.2458  -64.0478 H   0  0  0  0  0  0
  1  2  2  0  0  0
  2  3  1  0  0  0
  3  4  1  0  0  0
  4  5  1  0  0  0
  5  6  1  0  0  0
  6  7  1  0  0  0
  7  8  1  0  0  0
  7 10  1  0  0  0
  8  9  1  0  0  0
  9 19  1  0  0  0
 10 11  1  0  0  0
 10 12  1  0  0  0
 11 20  1  0  0  0
 12 13  1  0  0  0
 12 14  1  0  0  0
 13 21  1  0  0  0
 14 15  1  0  0  0
 14  5  1  0  0  0
 15 16  1  0  0  0
 15 22  1  0  0  0
 16 17  1  0  0  0
 16 18  2  0  0  0
M  END
>  <CHROM.0>
-177.86824795,-55.96657648,-179.40717878

>  <CHROM.1>
-135.24613229,149.26343899,156.14501461,58.63037634,61.94655118,-64.72353936
75.65960178,96.96099071,35.47303235,0.44129826,-62.57110946,-2.01815756,-0.36643083
0.10207464

>  <Energy>
33.281617839799345

>  <Genealogy>
C=CCO[C@H]1O[C@H](CO)[C@@H](O)[C@@H](O)[C@H]1NC(C)=O (3D coordinates assigned)
C=CCO[C@H]1O[C@H](CO)[C@@H](O)[C@@H](O)[C@H]1NC(C)=O (nonaromatic ring conformer: 33.281617839799345 kcal/mol)

>  <Name>
ZINC000616582683

>  <RI>
2.59779e+07

>  <Rbt.Current_Directory>
/home/edward/Documentos/Virtual_Screening/rDock/N-terminal/2

>  <Rbt.Executable>
rbdock ($Id: //depot/dev/client3/rdock/2013.1/src/exe/rbdock.cxx#4 $)

>  <Rbt.Library>
libRbt.so (2013.1, Build901 2013/11/27)

>  <Rbt.Parameter_File>
/home/edward/anaconda3/envs/MD/share/rdock-2013.1-1/data/scripts/dock.prm

>  <Rbt.Receptor>
parameters.prm

>  <SCORE>
-24.3611

>  <SCORE.INTER>
-19.8212

>  <SCORE.INTER.CONST>
1

>  <SCORE.INTER.POLAR>
-4.08169

>  <SCORE.INTER.REPUL>
0

>  <SCORE.INTER.ROT>
5

>  <SCORE.INTER.VDW>
-16.3434

>  <SCORE.INTER.norm>
-1.10118

>  <SCORE.INTRA>
-3.55997

>  <SCORE.INTRA.DIHEDRAL>
-4.16778

>  <SCORE.INTRA.DIHEDRAL.0>
13.4193

>  <SCORE.INTRA.POLAR>
-0.750169

>  <SCORE.INTRA.POLAR.0>
0

>  <SCORE.INTRA.REPUL>
-0.0983168

>  <SCORE.INTRA.REPUL.0>
0.0983168

>  <SCORE.INTRA.VDW>
1.56608

>  <SCORE.INTRA.VDW.0>
-3.05381

>  <SCORE.INTRA.norm>
-0.197776

>  <SCORE.RESTR>
0

>  <SCORE.RESTR.CAVITY>
0

>  <SCORE.RESTR.norm>
0

>  <SCORE.SYSTEM>
-0.979982

>  <SCORE.SYSTEM.CONST>
0

>  <SCORE.SYSTEM.DIHEDRAL>
0.10412

>  <SCORE.SYSTEM.REPUL>
0.0341516

>  <SCORE.SYSTEM.VDW>
-1.2028

>  <SCORE.SYSTEM.norm>
-0.0544434

>  <SCORE.heavy>
18

>  <SCORE.norm>
-1.3534

>  <SMILES>
C=CCO[C@H]1O[C@H](CO)[C@@H](O)[C@@H](O)[C@H]1NC(C)=O

>  <UniqueID>
306

$$$$
ZINC000616582813
  rDOCK(R)          3D
libRbt.so/2013.1/901 2013/11/27
 21 21  0  0  0  0  0  0  0  0999 V2000
   31.4413    1.0120  -63.7218 H   0  0  0  0  0  0
   31.3761    0.0279  -63.9527 O   0  0  0  0  0  0
   32.5151   -0.7738  -64.0251 C   0  0  0  0  0  0
   33.6872   -0.2904  -63.7386 N   0  0  0  0  0  0
   33.9382    1.0800  -63.2832 C   0  0  0  0  0  0
   35.2242    1.6067  -63.9434 C   0  0  0  0  0  0
   36.2715    0.6873  -63.7446 O   0  0  0  0  0  0
   35.9957   -0.1652  -64.1722 H   0  0  0  0  0  0
   35.5962    2.9781  -63.3499 C   0  0  0  0  0  0
   36.8539    3.3700  -63.8416 O   0  0  0  0  0  0
   36.9309    4.3507  -63.7071 H   0  0  0  0  0  0
   35.6136    2.8932  -61.8026 C   0  0  0  0  0  0
   35.9096    4.2605  -61.1639 C   0  0  0  0  0  0
   35.8734    4.1870  -59.7638 O   0  0  0  0  0  0
   34.9823    3.8234  -59.5202 H   0  0  0  0  0  0
   34.3496    2.4582  -61.3299 O   0  0  0  0  0  0
   34.0811    1.1278  -61.7454 C   0  0  0  0  0  0
   32.8618    0.7074  -61.1644 O   0  0  0  0  0  0
   32.9621    0.7111  -59.7556 C   0  0  0  0  0  0
   31.6660    0.1793  -59.1644 C   0  0  0  0  0  0
   32.3959   -2.1934  -64.4768 C   0  0  0  0  0  0
  1  2  1  0  0  0
  2  3  1  0  0  0
  3  4  2  0  0  0
  3 21  1  0  0  0
  4  5  1  0  0  0
  5  6  1  0  0  0
  6  7  1  0  0  0
  6  9  1  0  0  0
  7  8  1  0  0  0
  9 10  1  0  0  0
  9 12  1  0  0  0
 10 11  1  0  0  0
 12 13  1  0  0  0
 12 16  1  0  0  0
 13 14  1  0  0  0
 14 15  1  0  0  0
 16 17  1  0  0  0
 17 18  1  0  0  0
 17  5  1  0  0  0
 18 19  1  0  0  0
 19 20  1  0  0  0
M  END
>  <CHROM.0>
-176.45280413,-61.15540330,-178.86165518

>  <CHROM.1>
3.10211369,-140.49834933,60.70173492,161.04794248,177.74011539,-55.87291038
178.79150192,-176.77074267,34.19874226,1.38119108,-62.34366645,-2.53434168
0.70294907,1.09953689

>  <Energy>
29.983253584428322

>  <Genealogy>
CCO[C@@H]1O[C@H](CO)[C@@H](O)[C@@H](O)[C@H]1N=C(C)O (tautomer)
CCO[C@@H]1O[C@H](CO)[C@@H](O)[C@@H](O)[C@H]1/N=C(\C)O (cis-trans isomerization)
CCO[C@@H]1O[C@H](CO)[C@@H](O)[C@@H](O)[C@H]1/N=C(\C)O (3D coordinates assigned)
CCO[C@@H]1O[C@H](CO)[C@@H](O)[C@@H](O)[C@H]1/N=C(\C)O (nonaromatic ring conformer: 29.983253584428322 kcal/mol)

>  <Name>
ZINC000616582813

>  <RI>
2.59779e+07

>  <Rbt.Current_Directory>
/home/edward/Documentos/Virtual_Screening/rDock/N-terminal/2

>  <Rbt.Executable>
rbdock ($Id: //depot/dev/client3/rdock/2013.1/src/exe/rbdock.cxx#4 $)

>  <Rbt.Library>
libRbt.so (2013.1, Build901 2013/11/27)

>  <Rbt.Parameter_File>
/home/edward/anaconda3/envs/MD/share/rdock-2013.1-1/data/scripts/dock.prm

>  <Rbt.Receptor>
parameters.prm

>  <SCORE>
-22.6338

>  <SCORE.INTER>
-17.2319

>  <SCORE.INTER.CONST>
1

>  <SCORE.INTER.POLAR>
-4.00617

>  <SCORE.INTER.REPUL>
0.182452

>  <SCORE.INTER.ROT>
4

>  <SCORE.INTER.VDW>
-13.9232

>  <SCORE.INTER.norm>
-1.01364

>  <SCORE.INTRA>
-4.35944

>  <SCORE.INTRA.DIHEDRAL>
-9.76696

>  <SCORE.INTRA.DIHEDRAL.0>
12.3208

>  <SCORE.INTRA.POLAR>
-0.0881958

>  <SCORE.INTRA.POLAR.0>
0

>  <SCORE.INTRA.REPUL>
0

>  <SCORE.INTRA.REPUL.0>
0

>  <SCORE.INTRA.VDW>
0.823904

>  <SCORE.INTRA.VDW.0>
-2.16093

>  <SCORE.INTRA.norm>
-0.256438

>  <SCORE.RESTR>
0

>  <SCORE.RESTR.CAVITY>
0

>  <SCORE.RESTR.norm>
0

>  <SCORE.SYSTEM>
-1.04245

>  <SCORE.SYSTEM.CONST>
0

>  <SCORE.SYSTEM.DIHEDRAL>
0.0748929

>  <SCORE.SYSTEM.REPUL>
0.0302327

>  <SCORE.SYSTEM.VDW>
-1.23106

>  <SCORE.SYSTEM.norm>
-0.0613207

>  <SCORE.heavy>
17

>  <SCORE.norm>
-1.3314

>  <SMILES>
CCO[C@@H]1O[C@H](CO)[C@@H](O)[C@@H](O)[C@H]1/N=C(\C)O

>  <UniqueID>
307

$$$$
ZINC000616582904
  rDOCK(R)          3D
libRbt.so/2013.1/901 2013/11/27
 22 22  0  0  0  0  0  0  0  0999 V2000
   30.9255   -2.6782  -60.1184 C   0  0  0  0  0  0
   31.9012   -2.1320  -60.5683 C   0  0  0  0  0  0
   33.0914   -1.4699  -61.1150 C   0  0  0  0  0  0
   32.8732   -0.0750  -61.2023 O   0  0  0  0  0  0
   34.0022    0.5818  -61.7502 C   0  0  0  0  0  0
   33.9559    1.9527  -61.3868 O   0  0  0  0  0  0
   35.1151    2.6331  -61.8389 C   0  0  0  0  0  0
   35.1076    4.0511  -61.2484 C   0  0  0  0  0  0
   33.8663    4.6744  -61.4506 O   0  0  0  0  0  0
   34.0258    5.6534  -61.4188 H   0  0  0  0  0  0
   35.1575    2.6500  -63.3875 C   0  0  0  0  0  0
   36.3249    3.2875  -63.8434 O   0  0  0  0  0  0
   36.2769    4.2340  -63.5481 H   0  0  0  0  0  0
   35.1193    1.2079  -63.9263 C   0  0  0  0  0  0
   36.3289    0.5460  -63.6439 O   0  0  0  0  0  0
   36.2573   -0.3672  -64.0266 H   0  0  0  0  0  0
   33.9457    0.4414  -63.2831 C   0  0  0  0  0  0
   33.9948   -0.9773  -63.6446 N   0  0  0  0  0  0
   33.0936   -1.5845  -64.3569 C   0  0  0  0  0  0
   31.9666   -0.9003  -64.8113 O   0  0  0  0  0  0
   31.2447   -1.3731  -65.3418 H   0  0  0  0  0  0
   33.2507   -3.0404  -64.6560 C   0  0  0  0  0  0
  1  2  3  0  0  0
  2  3  1  0  0  0
  3  4  1  0  0  0
  4  5  1  0  0  0
  5  6  1  0  0  0
  6  7  1  0  0  0
  7  8  1  0  0  0
  7 11  1  0  0  0
  8  9  1  0  0  0
  9 10  1  0  0  0
 11 12  1  0  0  0
 11 14  1  0  0  0
 12 13  1  0  0  0
 14 15  1  0  0  0
 14 17  1  0  0  0
 15 16  1  0  0  0
 17 18  1  0  0  0
 17  5  1  0  0  0
 18 19  2  0  0  0
 19 20  1  0  0  0
 19 22  1  0  0  0
 20 21  1  0  0  0
M  END
>  <CHROM.0>
-175.38647705,63.13133661,61.50874729

>  <CHROM.1>
-158.14502162,-178.97100528,-159.23547072,-49.30271169,-156.30191104,-63.97959143
-178.89235391,123.16763624,-178.01461583,33.92934401,0.59823938,-62.60525666
2.42132453,-0.91681902,-2.37689116

>  <Energy>
29.791743457029828

>  <Genealogy>
C#CCO[C@@H]1O[C@H](CO)[C@@H](O)[C@@H](O)[C@H]1N=C(C)O (tautomer)
C#CCO[C@@H]1O[C@H](CO)[C@@H](O)[C@@H](O)[C@H]1/N=C(/C)O (cis-trans isomerization)
C#CCO[C@@H]1O[C@H](CO)[C@@H](O)[C@@H](O)[C@H]1/N=C(/C)O (3D coordinates assigned)
C#CCO[C@@H]1O[C@H](CO)[C@@H](O)[C@@H](O)[C@H]1/N=C(/C)O (nonaromatic ring conformer: 29.791743457029828 kcal/mol)

>  <Name>
ZINC000616582904

>  <RI>
2.59779e+07

>  <Rbt.Current_Directory>
/home/edward/Documentos/Virtual_Screening/rDock/N-terminal/2

>  <Rbt.Executable>
rbdock ($Id: //depot/dev/client3/rdock/2013.1/src/exe/rbdock.cxx#4 $)

>  <Rbt.Library>
libRbt.so (2013.1, Build901 2013/11/27)

>  <Rbt.Parameter_File>
/home/edward/anaconda3/envs/MD/share/rdock-2013.1-1/data/scripts/dock.prm

>  <Rbt.Receptor>
parameters.prm

>  <SCORE>
-24.3699

>  <SCORE.INTER>
-18.7337

>  <SCORE.INTER.CONST>
1

>  <SCORE.INTER.POLAR>
-4.06954

>  <SCORE.INTER.REPUL>
0.00415433

>  <SCORE.INTER.ROT>
5

>  <SCORE.INTER.VDW>
-15.318

>  <SCORE.INTER.norm>
-1.04076

>  <SCORE.INTRA>
-5.326

>  <SCORE.INTRA.DIHEDRAL>
-13.1325

>  <SCORE.INTRA.DIHEDRAL.0>
18.0264

>  <SCORE.INTRA.POLAR>
-0.0403829

>  <SCORE.INTRA.POLAR.0>
0

>  <SCORE.INTRA.REPUL>
0

>  <SCORE.INTRA.REPUL.0>
0

>  <SCORE.INTRA.VDW>
1.37755

>  <SCORE.INTRA.VDW.0>
-2.12126

>  <SCORE.INTRA.norm>
-0.295889

>  <SCORE.RESTR>
0

>  <SCORE.RESTR.CAVITY>
0

>  <SCORE.RESTR.norm>
0

>  <SCORE.SYSTEM>
-0.310239

>  <SCORE.SYSTEM.CONST>
0

>  <SCORE.SYSTEM.DIHEDRAL>
0.164032

>  <SCORE.SYSTEM.REPUL>
0.167362

>  <SCORE.SYSTEM.VDW>
-1.22906

>  <SCORE.SYSTEM.norm>
-0.0172355

>  <SCORE.heavy>
18

>  <SCORE.norm>
-1.35388

>  <SMILES>
C#CCO[C@@H]1O[C@H](CO)[C@@H](O)[C@@H](O)[C@H]1/N=C(/C)O

>  <UniqueID>
309

$$$$
ZINC000616583702
  rDOCK(R)          3D
libRbt.so/2013.1/901 2013/11/27
 24 24  0  0  0  0  0  0  0  0999 V2000
   30.6786   -3.6524  -61.3503 C   0  0  0  0  0  0
   31.0465   -2.1838  -61.1425 C   0  0  0  0  0  0
   31.3380   -1.8476  -59.6722 C   0  0  0  0  0  0
   31.4539   -0.3347  -59.4240 C   0  0  0  0  0  0
   32.7768    0.2318  -59.9616 C   0  0  0  0  0  0
   32.8004    0.2975  -61.3777 O   0  0  0  0  0  0
   34.0180    0.8365  -61.8667 C   0  0  0  0  0  0
   34.1256    2.1807  -61.4284 O   0  0  0  0  0  0
   35.3670    2.7429  -61.8202 C   0  0  0  0  0  0
   35.4963    4.1260  -61.1726 C   0  0  0  0  0  0
   35.4696    3.9962  -59.7782 O   0  0  0  0  0  0
   35.4400    2.8487  -63.3610 C   0  0  0  0  0  0
   36.6832    3.3757  -63.7490 O   0  0  0  0  0  0
   35.2369    1.4597  -63.9942 C   0  0  0  0  0  0
   36.3686    0.6602  -63.7484 O   0  0  0  0  0  0
   33.9711    0.7973  -63.4096 C   0  0  0  0  0  0
   33.8410   -0.5832  -63.8908 N   0  0  0  0  0  0
   32.5665   -1.2142  -64.0755 C   0  0  0  0  0  0
   32.4954   -2.6054  -64.6155 C   0  0  0  0  0  0
   31.5014   -0.5954  -63.8066 O   0  0  0  0  0  0
   35.5652    4.9142  -59.4134 H   0  0  0  0  0  0
   36.6669    4.3420  -63.5219 H   0  0  0  0  0  0
   36.1913   -0.2277  -64.1557 H   0  0  0  0  0  0
   34.7022   -1.1420  -64.0909 H   0  0  0  0  0  0
  1  2  1  0  0  0
  2  3  1  0  0  0
  3  4  1  0  0  0
  4  5  1  0  0  0
  5  6  1  0  0  0
  6  7  1  0  0  0
  7  8  1  0  0  0
  8  9  1  0  0  0
  9 10  1  0  0  0
  9 12  1  0  0  0
 10 11  1  0  0  0
 11 21  1  0  0  0
 12 13  1  0  0  0
 12 14  1  0  0  0
 13 22  1  0  0  0
 14 15  1  0  0  0
 14 16  1  0  0  0
 15 23  1  0  0  0
 16 17  1  0  0  0
 16  7  1  0  0  0
 17 18  1  0  0  0
 17 24  1  0  0  0
 18 19  1  0  0  0
 18 20  2  0  0  0
M  END
>  <CHROM.0>
-73.86977155,64.14376638,-177.90191405

>  <CHROM.1>
-169.50026534,-74.20306894,72.66898045,179.28265775,-64.10879954,60.95775578
179.44861476,-73.16097198,178.93748903,88.35855388,33.67122634,0.55844670
-62.17619943,2.81398023,-0.82998742,-2.10375796

>  <Energy>
32.1675134500207

>  <Genealogy>
CCCCCO[C@@H]1O[C@H](CO)[C@@H](O)[C@@H](O)[C@H]1NC(C)=O (3D coordinates assigned)
CCCCCO[C@@H]1O[C@H](CO)[C@@H](O)[C@@H](O)[C@H]1NC(C)=O (nonaromatic ring conformer: 32.1675134500207 kcal/mol)

>  <Name>
ZINC000616583702

>  <RI>
2.59779e+07

>  <Rbt.Current_Directory>
/home/edward/Documentos/Virtual_Screening/rDock/N-terminal/2

>  <Rbt.Executable>
rbdock ($Id: //depot/dev/client3/rdock/2013.1/src/exe/rbdock.cxx#4 $)

>  <Rbt.Library>
libRbt.so (2013.1, Build901 2013/11/27)

>  <Rbt.Parameter_File>
/home/edward/anaconda3/envs/MD/share/rdock-2013.1-1/data/scripts/dock.prm

>  <Rbt.Receptor>
parameters.prm

>  <SCORE>
-20.5528

>  <SCORE.INTER>
-18.7951

>  <SCORE.INTER.CONST>
1

>  <SCORE.INTER.POLAR>
-4.33549

>  <SCORE.INTER.REPUL>
0.000612873

>  <SCORE.INTER.ROT>
7

>  <SCORE.INTER.VDW>
-16.4575

>  <SCORE.INTER.norm>
-0.939755

>  <SCORE.INTRA>
-2.5166

>  <SCORE.INTRA.DIHEDRAL>
-7.40282

>  <SCORE.INTRA.DIHEDRAL.0>
11.3401

>  <SCORE.INTRA.POLAR>
0

>  <SCORE.INTRA.POLAR.0>
0

>  <SCORE.INTRA.REPUL>
0

>  <SCORE.INTRA.REPUL.0>
0

>  <SCORE.INTRA.VDW>
1.18481

>  <SCORE.INTRA.VDW.0>
-2.37531

>  <SCORE.INTRA.norm>
-0.12583

>  <SCORE.RESTR>
0

>  <SCORE.RESTR.CAVITY>
0

>  <SCORE.RESTR.norm>
0

>  <SCORE.SYSTEM>
0.75889

>  <SCORE.SYSTEM.CONST>
0

>  <SCORE.SYSTEM.DIHEDRAL>
1.01442

>  <SCORE.SYSTEM.REPUL>
0.140108

>  <SCORE.SYSTEM.VDW>
-0.448862

>  <SCORE.SYSTEM.norm>
0.0379445

>  <SCORE.heavy>
20

>  <SCORE.norm>
-1.02764

>  <SMILES>
CCCCCO[C@@H]1O[C@H](CO)[C@@H](O)[C@@H](O)[C@H]1NC(C)=O

>  <UniqueID>
311

$$$$
ZINC000616583781
  rDOCK(R)          3D
libRbt.so/2013.1/901 2013/11/27
 23 23  0  0  0  0  0  0  0  0999 V2000
   30.8529    1.3071  -57.5390 C   0  0  0  0  0  0
   31.1511   -0.1284  -57.9706 C   0  0  0  0  0  0
   31.3616   -0.2617  -59.4868 C   0  0  0  0  0  0
   32.7267    0.2572  -59.9445 C   0  0  0  0  0  0
   32.7812    0.2162  -61.3560 O   0  0  0  0  0  0
   33.9919    0.7860  -61.8174 C   0  0  0  0  0  0
   34.1106    2.1000  -61.2953 O   0  0  0  0  0  0
   35.3583    2.6739  -61.6485 C   0  0  0  0  0  0
   35.4864    4.0140  -60.9048 C   0  0  0  0  0  0
   34.3172    4.7789  -61.0271 O   0  0  0  0  0  0
   35.4378    2.8684  -63.1835 C   0  0  0  0  0  0
   36.6884    3.3987  -63.5417 O   0  0  0  0  0  0
   35.2175    1.5226  -63.8995 C   0  0  0  0  0  0
   36.3383    0.6952  -63.7008 O   0  0  0  0  0  0
   33.9426    0.8423  -63.3585 C   0  0  0  0  0  0
   33.7946   -0.5040  -63.9244 N   0  0  0  0  0  0
   32.5140   -1.1249  -64.1018 C   0  0  0  0  0  0
   32.4248   -2.4874  -64.7073 C   0  0  0  0  0  0
   31.4625   -0.5422  -63.7215 O   0  0  0  0  0  0
   34.3542    5.2151  -61.9183 H   0  0  0  0  0  0
   36.6490    4.3737  -63.3581 H   0  0  0  0  0  0
   36.1653   -0.1514  -64.1895 H   0  0  0  0  0  0
   34.6474   -1.0475  -64.1909 H   0  0  0  0  0  0
  1  2  1  0  0  0
  2  3  1  0  0  0
  3  4  1  0  0  0
  4  5  1  0  0  0
  5  6  1  0  0  0
  6  7  1  0  0  0
  7  8  1  0  0  0
  8  9  1  0  0  0
  8 11  1  0  0  0
  9 10  1  0  0  0
 10 20  1  0  0  0
 11 12  1  0  0  0
 11 13  1  0  0  0
 12 21  1  0  0  0
 13 14  1  0  0  0
 13 15  1  0  0  0
 14 22  1  0  0  0
 15 16  1  0  0  0
 15  6  1  0  0  0
 16 17  1  0  0  0
 16 23  1  0  0  0
 17 18  1  0  0  0
 17 19  2  0  0  0
M  END
>  <CHROM.0>
73.03495489,-59.09415579,-62.06821221

>  <CHROM.1>
75.69187900,-174.37743104,175.50288465,-55.40420176,-47.24742119,-80.16347020
-79.64094444,-178.95862810,86.12052321,33.70693894,1.11100610,-61.95931703
-2.92179026,-0.77618895,-2.22032803

>  <Energy>
31.042860381603525

>  <Genealogy>
CCCCO[C@@H]1O[C@H](CO)[C@@H](O)[C@@H](O)[C@H]1NC(C)=O (3D coordinates assigned)
CCCCO[C@@H]1O[C@H](CO)[C@@H](O)[C@@H](O)[C@H]1NC(C)=O (nonaromatic ring conformer: 31.042860381603525 kcal/mol)

>  <Name>
ZINC000616583781

>  <RI>
2.59779e+07

>  <Rbt.Current_Directory>
/home/edward/Documentos/Virtual_Screening/rDock/N-terminal/2

>  <Rbt.Executable>
rbdock ($Id: //depot/dev/client3/rdock/2013.1/src/exe/rbdock.cxx#4 $)

>  <Rbt.Library>
libRbt.so (2013.1, Build901 2013/11/27)

>  <Rbt.Parameter_File>
/home/edward/anaconda3/envs/MD/share/rdock-2013.1-1/data/scripts/dock.prm

>  <Rbt.Receptor>
parameters.prm

>  <SCORE>
-20.9175

>  <SCORE.INTER>
-21.7072

>  <SCORE.INTER.CONST>
1

>  <SCORE.INTER.POLAR>
-5.02709

>  <SCORE.INTER.REPUL>
0

>  <SCORE.INTER.ROT>
6

>  <SCORE.INTER.VDW>
-16.0151

>  <SCORE.INTER.norm>
-1.14248

>  <SCORE.INTRA>
0.741265

>  <SCORE.INTRA.DIHEDRAL>
-1.96634

>  <SCORE.INTRA.DIHEDRAL.0>
8.56911

>  <SCORE.INTRA.POLAR>
0

>  <SCORE.INTRA.POLAR.0>
0

>  <SCORE.INTRA.REPUL>
0

>  <SCORE.INTRA.REPUL.0>
0

>  <SCORE.INTRA.VDW>
1.72443

>  <SCORE.INTRA.VDW.0>
-1.55228

>  <SCORE.INTRA.norm>
0.039014

>  <SCORE.RESTR>
0

>  <SCORE.RESTR.CAVITY>
0

>  <SCORE.RESTR.norm>
0

>  <SCORE.SYSTEM>
0.0484695

>  <SCORE.SYSTEM.CONST>
0

>  <SCORE.SYSTEM.DIHEDRAL>
0.831562

>  <SCORE.SYSTEM.POLAR>
-0.01624

>  <SCORE.SYSTEM.REPUL>
0.00842309

>  <SCORE.SYSTEM.VDW>
-0.354211

>  <SCORE.SYSTEM.norm>
0.00255103

>  <SCORE.heavy>
19

>  <SCORE.norm>
-1.10092

>  <SMILES>
CCCCO[C@@H]1O[C@H](CO)[C@@H](O)[C@@H](O)[C@H]1NC(C)=O

>  <UniqueID>
313

$$$$
ZINC000616589990
  rDOCK(R)          3D
libRbt.so/2013.1/901 2013/11/27
 20 20  0  0  0  0  0  0  0  0999 V2000
   31.6168   -1.9743  -60.6701 C   0  0  0  0  0  0
   32.9098   -1.3218  -61.1463 C   0  0  0  0  0  0
   32.6799    0.0364  -61.4725 O   0  0  0  0  0  0
   33.8662    0.6597  -61.9290 C   0  0  0  0  0  0
   33.8477    2.0208  -61.5276 O   0  0  0  0  0  0
   35.0559    2.6695  -61.8850 C   0  0  0  0  0  0
   35.0321    4.0550  -61.3104 C   0  0  0  0  0  0
   36.1095    4.6507  -61.0453 O   0  0  0  0  0  0
   33.8207    4.7034  -61.1014 O   0  5  0  0  0  0
   35.2006    2.7320  -63.4236 C   0  0  0  0  0  0
   36.4182    3.3376  -63.7812 O   0  0  0  0  0  0
   35.1498    1.3130  -64.0124 C   0  0  0  0  0  0
   36.3286    0.6220  -63.6737 O   0  0  0  0  0  0
   33.9075    0.5670  -63.4721 C   0  0  0  0  0  0
   33.8892   -0.8325  -63.9213 N   0  3  0  0  0  0
   36.3575    4.2925  -63.5165 H   0  0  0  0  0  0
   36.2574   -0.2874  -64.0655 H   0  0  0  0  0  0
   34.3778   -1.4359  -63.2209 H   0  0  0  0  0  0
   34.3667   -0.9346  -64.8463 H   0  0  0  0  0  0
   32.9017   -1.1676  -64.0030 H   0  0  0  0  0  0
  1  2  1  0  0  0
  2  3  1  0  0  0
  3  4  1  0  0  0
  4  5  1  0  0  0
  5  6  1  0  0  0
  6  7  1  0  0  0
  6 10  1  0  0  0
  7  8  2  0  0  0
  7  9  1  0  0  0
 10 11  1  0  0  0
 10 12  1  0  0  0
 11 16  1  0  0  0
 12 13  1  0  0  0
 12 14  1  0  0  0
 13 17  1  0  0  0
 14 15  1  0  0  0
 14  4  1  0  0  0
 15 18  1  0  0  0
 15 19  1  0  0  0
 15 20  1  0  0  0
M  END
>  <CHROM.0>
-178.96443795,-63.44751225,63.80176391

>  <CHROM.1>
-179.48168362,-147.07173084,153.66218576,-68.00340035,179.72048211,-32.00553724
34.40090533,1.53068255,-62.30509960,2.33317640,-0.80609373,-2.59582385

>  <Energy>
28.441563453359052

>  <Genealogy>
CCO[C@@H]1O[C@H](C(=O)[O-])[C@@H](O)[C@@H](O)[C@H]1[NH3+] (protonated)
CCO[C@@H]1O[C@H](C(=O)[O-])[C@@H](O)[C@@H](O)[C@H]1[NH3+] (3D coordinates assigned)
CCO[C@@H]1O[C@H](C(=O)[O-])[C@@H](O)[C@@H](O)[C@H]1[NH3+] (nonaromatic ring conformer: 28.441563453359052 kcal/mol)

>  <Name>
ZINC000616589990

>  <RI>
2.59779e+07

>  <Rbt.Current_Directory>
/home/edward/Documentos/Virtual_Screening/rDock/N-terminal/2

>  <Rbt.Executable>
rbdock ($Id: //depot/dev/client3/rdock/2013.1/src/exe/rbdock.cxx#4 $)

>  <Rbt.Library>
libRbt.so (2013.1, Build901 2013/11/27)

>  <Rbt.Parameter_File>
/home/edward/anaconda3/envs/MD/share/rdock-2013.1-1/data/scripts/dock.prm

>  <Rbt.Receptor>
parameters.prm

>  <SCORE>
-22.588

>  <SCORE.INTER>
-18.8129

>  <SCORE.INTER.CONST>
1

>  <SCORE.INTER.POLAR>
-3.91593

>  <SCORE.INTER.REPUL>
0

>  <SCORE.INTER.ROT>
3

>  <SCORE.INTER.VDW>
-13.8987

>  <SCORE.INTER.norm>
-1.25419

>  <SCORE.INTRA>
-2.67888

>  <SCORE.INTRA.DIHEDRAL>
-7.07716

>  <SCORE.INTRA.DIHEDRAL.0>
14.1221

>  <SCORE.INTRA.POLAR>
0

>  <SCORE.INTRA.POLAR.0>
0

>  <SCORE.INTRA.REPUL>
0

>  <SCORE.INTRA.REPUL.0>
0

>  <SCORE.INTRA.VDW>
0.859702

>  <SCORE.INTRA.VDW.0>
-1.74952

>  <SCORE.INTRA.norm>
-0.178592

>  <SCORE.RESTR>
0

>  <SCORE.RESTR.CAVITY>
0

>  <SCORE.RESTR.norm>
0

>  <SCORE.SYSTEM>
-1.09624

>  <SCORE.SYSTEM.CONST>
0

>  <SCORE.SYSTEM.DIHEDRAL>
0.134873

>  <SCORE.SYSTEM.REPUL>
0.037157

>  <SCORE.SYSTEM.VDW>
-1.34946

>  <SCORE.SYSTEM.norm>
-0.0730825

>  <SCORE.heavy>
15

>  <SCORE.norm>
-1.50587

>  <SMILES>
CCO[C@@H]1O[C@H](C(=O)[O-])[C@@H](O)[C@@H](O)[C@H]1[NH3+]

>  <UniqueID>
317

$$$$
ZINC000616591357
  rDOCK(R)          3D
libRbt.so/2013.1/901 2013/11/27
 25 27  0  0  0  0  0  0  0  0999 V2000
   31.1356    0.4900  -60.1743 C   0  0  0  0  0  0
   32.1984    0.8157  -61.0436 O   0  0  0  0  0  0
   33.0703    1.7411  -60.4221 C   0  0  0  0  0  0
   32.4160    3.0021  -60.3254 O   0  0  0  0  0  0
   33.2543    3.9324  -59.6638 C   0  0  0  0  0  0
   32.5137    5.2498  -59.3810 C   0  0  0  0  0  0
   33.0924    6.3466  -60.0672 O   0  0  0  0  0  0
   34.4931    6.4651  -59.8058 C   0  0  0  0  0  0
   34.7290    7.1198  -58.4622 C   0  0  0  0  0  0
   34.5981    6.3948  -57.2622 C   0  0  0  0  0  0
   34.7843    7.0291  -56.0302 C   0  0  0  0  0  0
   35.0911    8.3912  -55.9824 C   0  0  0  0  0  0
   35.2070    9.1231  -57.1667 C   0  0  0  0  0  0
   35.0214    8.4934  -58.4012 C   0  0  0  0  0  0
   35.2346    5.2481  -59.9160 O   0  0  0  0  0  0
   34.4701    4.2419  -60.5382 C   0  0  0  0  0  0
   35.2874    2.9580  -60.7415 C   0  0  0  0  0  0
   35.8636    2.5381  -59.5288 O   0  0  0  0  0  0
   34.3523    1.8556  -61.2896 C   0  0  0  0  0  0
   35.0567    0.5691  -61.3461 N   0  0  0  0  0  0
   36.0084    0.2595  -62.3735 C   0  0  0  0  0  0
   36.7146   -1.0568  -62.3621 C   0  0  0  0  0  0
   36.2305    1.0771  -63.3073 O   0  0  0  0  0  0
   36.4209    1.7427  -59.7341 H   0  0  0  0  0  0
   34.8470   -0.1647  -60.6312 H   0  0  0  0  0  0
  1  2  1  0  0  0
  2  3  1  0  0  0
  3  4  1  0  0  0
  4  5  1  0  0  0
  5  6  1  0  0  0
  6  7  1  0  0  0
  7  8  1  0  0  0
  8  9  1  0  0  0
  8 15  1  0  0  0
  9 10  2  0  0  0
 10 11  1  0  0  0
 11 12  2  0  0  0
 12 13  1  0  0  0
 13 14  2  0  0  0
 14  9  1  0  0  0
 15 16  1  0  0  0
 16 17  1  0  0  0
 16  5  1  0  0  0
 17 18  1  0  0  0
 17 19  1  0  0  0
 18 24  1  0  0  0
 19 20  1  0  0  0
 19  3  1  0  0  0
 20 21  1  0  0  0
 20 25  1  0  0  0
 21 22  1  0  0  0
 21 23  2  0  0  0
M  END
>  <CHROM.0>
-79.13389214,-60.93733080,-61.48104777

>  <CHROM.1>
-70.53744145,78.44645033,-176.56174614,160.17508771,34.36410607,3.88753656
-59.87763394,1.56935363,-0.19693866,-2.62107798

>  <Energy>
59.66082926293785

>  <Genealogy>
CO[C@@H]1O[C@@H]2CO[C@@H](c3ccccc3)O[C@H]2[C@@H](O)[C@H]1NC(C)=O (3D coordinates assigned)
CO[C@@H]1O[C@@H]2CO[C@@H](c3ccccc3)O[C@H]2[C@@H](O)[C@H]1NC(C)=O (nonaromatic ring conformer: 59.66082926293785 kcal/mol)

>  <Name>
ZINC000616591357

>  <RI>
2.59779e+07

>  <Rbt.Current_Directory>
/home/edward/Documentos/Virtual_Screening/rDock/N-terminal/2

>  <Rbt.Executable>
rbdock ($Id: //depot/dev/client3/rdock/2013.1/src/exe/rbdock.cxx#4 $)

>  <Rbt.Library>
libRbt.so (2013.1, Build901 2013/11/27)

>  <Rbt.Parameter_File>
/home/edward/anaconda3/envs/MD/share/rdock-2013.1-1/data/scripts/dock.prm

>  <Rbt.Receptor>
parameters.prm

>  <SCORE>
-14.7366

>  <SCORE.INTER>
-13.9236

>  <SCORE.INTER.CONST>
1

>  <SCORE.INTER.POLAR>
-1.57872

>  <SCORE.INTER.REPUL>
0

>  <SCORE.INTER.ROT>
3

>  <SCORE.INTER.VDW>
-16.9559

>  <SCORE.INTER.norm>
-0.605373

>  <SCORE.INTRA>
-0.894546

>  <SCORE.INTRA.DIHEDRAL>
-2.39858

>  <SCORE.INTRA.DIHEDRAL.0>
5.00085

>  <SCORE.INTRA.POLAR>
0

>  <SCORE.INTRA.POLAR.0>
0

>  <SCORE.INTRA.REPUL>
0

>  <SCORE.INTRA.REPUL.0>
0

>  <SCORE.INTRA.VDW>
0.304743

>  <SCORE.INTRA.VDW.0>
-1.81253

>  <SCORE.INTRA.norm>
-0.0388933

>  <SCORE.RESTR>
0

>  <SCORE.RESTR.CAVITY>
0

>  <SCORE.RESTR.norm>
0

>  <SCORE.SYSTEM>
0.0814921

>  <SCORE.SYSTEM.CONST>
0

>  <SCORE.SYSTEM.DIHEDRAL>
1.67567

>  <SCORE.SYSTEM.VDW>
-0.756342

>  <SCORE.SYSTEM.norm>
0.00354314

>  <SCORE.heavy>
23

>  <SCORE.norm>
-0.640723

>  <SMILES>
CO[C@@H]1O[C@@H]2CO[C@@H](c3ccccc3)O[C@H]2[C@@H](O)[C@H]1NC(C)=O

>  <UniqueID>
320

$$$$
