obj01.pdb
 OpenBabel03312118333D

 33 35  0  0  1  0  0  0  0  0999 V2000
   34.4600    0.4030  -61.4630 C   0  0  2  0  0  0  0  0  0  0  0  0
   31.4480   -4.1500  -65.6180 C   0  0  0  0  0  0  0  0  0  0  0  0
   35.5110   -0.4990  -61.1620 O   0  0  0  0  0  0  0  0  0  0  0  0
   34.2620    0.5920  -62.9480 C   0  0  2  0  0  0  0  0  0  0  0  0
   31.5420   -3.0050  -64.8510 C   0  0  0  0  0  0  0  0  0  0  0  0
   34.0600   -0.6570  -63.6450 N   0  0  0  0  0  0  0  0  0  0  0  0
   35.4470    1.3580  -63.4970 C   0  0  1  0  0  0  0  0  0  0  0  0
   32.5930   -4.7780  -66.0400 C   0  0  0  0  0  0  0  0  0  0  0  0
   35.3190    1.5200  -64.9050 O   0  0  0  0  0  0  0  0  0  0  0  0
   35.4990    2.6980  -62.7960 C   0  0  2  0  0  0  0  0  0  0  0  0
   33.9180   -3.1030  -64.9360 C   0  0  0  0  0  0  0  0  0  0  0  0
   36.6120    3.4100  -63.2990 O   0  0  0  0  0  0  0  0  0  0  0  0
   35.7180    2.4380  -61.3250 C   0  0  2  0  0  0  0  0  0  0  0  0
   33.6680    5.9620  -57.1000 C   0  0  0  0  0  0  0  0  0  0  0  0
   34.6550    1.6550  -60.8130 O   0  0  0  0  0  0  0  0  0  0  0  0
   35.7770    3.7080  -60.4950 C   0  0  0  0  0  0  0  0  0  0  0  0
   32.7650   -2.4820  -64.5170 C   0  0  0  0  0  0  0  0  0  0  0  0
   34.2580    7.1740  -56.6870 C   0  0  0  0  0  0  0  0  0  0  0  0
   33.8240   -4.2540  -65.6940 C   0  0  0  0  0  0  0  0  0  0  0  0
   34.7710    7.8040  -57.7890 C   0  0  0  0  0  0  0  0  0  0  0  0
   33.8570    5.9180  -58.4620 C   0  0  0  0  0  0  0  0  0  0  0  0
   32.8240   -1.2630  -63.7010 C   0  0  0  0  0  0  0  0  0  0  0  0
   34.2960    7.6700  -55.2570 C   0  0  0  0  0  0  0  0  0  0  0  0
   35.4850    9.0730  -57.9450 C   0  0  0  0  0  0  0  0  0  0  0  0
   34.6110    4.5690  -60.7660 N   0  0  0  0  0  0  0  0  0  0  0  0
   34.7110    8.8530  -55.0920 O   0  0  0  0  0  0  0  0  0  0  0  0
   31.8220   -0.8920  -63.1150 O   0  0  0  0  0  0  0  0  0  0  0  0
   33.8950    6.8060  -54.4280 O   0  0  0  0  0  0  0  0  0  0  0  0
   33.1760    3.5180  -58.7810 O   0  0  0  0  0  0  0  0  0  0  0  0
   32.1930    5.3290  -60.1640 O   0  0  0  0  0  0  0  0  0  0  0  0
   34.5270    7.0310  -58.8860 O   0  0  0  0  0  0  0  0  0  0  0  0
   33.3610    4.7070  -59.5870 S   0  0  0  0  0  0  0  0  0  0  0  0
   35.4060   -5.1490  -66.2810 Br  0  0  0  0  0  0  0  0  0  0  0  0
  1  3  1  6  0  0  0
  1 15  1  0  0  0  0
  1  4  1  0  0  0  0
  2  5  2  0  0  0  0
  2  8  1  0  0  0  0
  4  6  1  6  0  0  0
  4  7  1  0  0  0  0
  5 17  1  0  0  0  0
  6 22  1  0  0  0  0
  7  9  1  6  0  0  0
  7 10  1  0  0  0  0
  8 19  2  0  0  0  0
 10 12  1  6  0  0  0
 10 13  1  0  0  0  0
 11 17  2  0  0  0  0
 11 19  1  0  0  0  0
 13 15  1  0  0  0  0
 13 16  1  1  0  0  0
 14 18  1  0  0  0  0
 14 21  2  0  0  0  0
 16 25  1  0  0  0  0
 17 22  1  0  0  0  0
 18 20  2  0  0  0  0
 18 23  1  0  0  0  0
 19 33  1  0  0  0  0
 20 24  1  0  0  0  0
 20 31  1  0  0  0  0
 21 31  1  0  0  0  0
 21 32  1  0  0  0  0
 22 27  2  0  0  0  0
 23 26  2  0  0  0  0
 23 28  1  0  0  0  0
 25 32  1  0  0  0  0
 29 32  2  0  0  0  0
 30 32  2  0  0  0  0
M  END
$$$$
