@<TRIPOS>MOLECULE
gsma.pdb
   53    55     1     0     0
SMALL
bcc


@<TRIPOS>ATOM
      1 C1          85.2230    17.5630  -101.9920 c3      1002 604       0.336900
      2 C1A         89.0200    22.4480  -104.5680 ca      1002 604      -0.140000
      3 O1          84.0160    17.9720  -102.6190 oh      1002 604      -0.618800
      4 C2          86.3940    17.7720  -102.9310 c3      1002 604       0.000700
      5 C2A         88.5540    21.2500  -104.0630 ca      1002 604      -0.064000
      6 N2          86.6000    19.1550  -103.2580 n       1002 604      -0.539900
      7 C3          86.1760    16.9900  -104.2010 c3      1002 604       0.094100
      8 C3A         88.6500    23.6220  -103.9480 ca      1002 604      -0.087000
      9 O3          87.3820    17.0370  -104.9250 oh      1002 604      -0.584800
     10 C4          85.8590    15.5500  -103.8860 c3      1002 604       0.096100
     11 C4A         87.3640    22.4070  -102.3320 ca      1002 604      -0.076000
     12 O4          85.4470    14.9380  -105.0970 oh      1002 604      -0.606800
     13 C5          84.7070    15.5670  -102.9120 c3      1002 604       0.094100
     14 C5A         83.9070    10.8720   -99.5110 cc      1002 604      -0.013300
     15 O5          85.1600    16.1740  -101.7130 os      1002 604      -0.433600
     16 C6          84.1030    14.2150  -102.6080 c3      1002 604       0.242800
     17 C6A         87.7310    21.2420  -102.9530 ca      1002 604      -0.137600
     18 C7          83.5430     9.5360   -99.7910 cc      1002 604      -0.283900
     19 C8          87.8280    23.5950  -102.8370 ca      1002 604      -0.038900
     20 C9          84.1850     9.1680  -100.9490 cd      1002 604       0.354000
     21 C10         84.7590    11.2570  -100.5220 cd      1002 604      -0.197400
     22 C11         87.2160    19.9950  -102.3720 c       1002 604       0.674700
     23 C12         82.5860     8.6870   -98.9390 c       1002 604       0.935200
     24 C18         84.2100     7.9320  -101.7430 c3      1002 604      -0.158400
     25 N21         85.1610    13.2300  -102.3910 n3      1002 604      -0.904100
     26 O22         82.3520     7.5240   -99.3970 o       1002 604      -0.821300
     27 O23         87.3660    19.7930  -101.1770 o       1002 604      -0.601100
     28 O24         82.1260     9.2470   -97.8970 o       1002 604      -0.821300
     29 O25         85.0120    13.6990   -99.8100 o       1002 604      -0.686300
     30 O26         86.9580    12.3860  -100.7750 o       1002 604      -0.686300
     31 O27         84.9320    10.2180  -101.3920 os      1002 604      -0.354800
     32 S32         85.5660    12.7780  -100.7890 sy      1002 604       1.504800
     33 Br          87.2890    25.1810  -101.9440 br      1002 604      -0.088100
     34 H01         86.0000    13.5990  -102.8150 hn      1002 604       0.450800
     35 H02         85.3510    18.1470  -101.0800 h2      1002 604       0.114700
     36 H03         89.6700    22.4650  -105.4430 ha      1002 604       0.142000
     37 H04         83.6970    17.2690  -103.1890 ho      1002 604       0.413000
     38 H05         87.2850    17.4190  -102.4120 h1      1002 604       0.102700
     39 H06         88.8350    20.3110  -104.5400 ha      1002 604       0.163000
     40 H07         86.2870    19.5100  -104.1500 hn      1002 604       0.315500
     41 H08         85.3450    17.4130  -104.7650 h1      1002 604       0.081700
     42 H09         89.0070    24.5760  -104.3360 ha      1002 604       0.146000
     43 H10         87.6040    17.9510  -105.1190 ho      1002 604       0.417000
     44 H11         86.7090    15.0120  -103.4660 h1      1002 604       0.075700
     45 H12         86.7170    22.3900  -101.4550 ha      1002 604       0.156000
     46 H13         85.2200    14.0200  -104.9310 ho      1002 604       0.452000
     47 H14         83.9020    16.1300  -103.3840 h1      1002 604       0.055700
     48 H15         83.5790    11.4760   -98.6650 ha      1002 604       0.186000
     49 H16         83.4820    13.9000  -103.4470 h1      1002 604       0.061200
     50 H17         83.3570     7.9180  -102.4220 hc      1002 604       0.071033
     51 H18         84.1590     7.0710  -101.0770 hc      1002 604       0.071033
     52 H19         83.4950    14.2900  -101.7060 h1      1002 604       0.061200
     53 H20         85.1340     7.8900  -102.3200 hc      1002 604       0.071033
@<TRIPOS>BOND
     1     1     3 1   
     2     1    15 1   
     3     1    35 1   
     4     1     4 1   
     5     2     5 ar  
     6     2     8 ar  
     7     2    36 1   
     8     3    37 1   
     9     4     6 1   
    10     4     7 1   
    11     4    38 1   
    12     5    17 ar  
    13     5    39 1   
    14     6    40 1   
    15     6    22 1   
    16     7     9 1   
    17     7    10 1   
    18     7    41 1   
    19     8    19 ar  
    20     8    42 1   
    21     9    43 1   
    22    10    12 1   
    23    10    13 1   
    24    10    44 1   
    25    11    17 ar  
    26    11    19 ar  
    27    11    45 1   
    28    12    46 1   
    29    13    15 1   
    30    13    16 1   
    31    13    47 1   
    32    14    18 1   
    33    14    21 2   
    34    14    48 1   
    35    16    25 1   
    36    16    49 1   
    37    16    52 1   
    38    17    22 1   
    39    18    20 2   
    40    18    23 1   
    41    19    33 1   
    42    20    24 1   
    43    20    31 1   
    44    21    31 1   
    45    21    32 1   
    46    22    27 2   
    47    23    26 1   
    48    23    28 1   
    49    24    50 1   
    50    24    51 1   
    51    24    53 1   
    52    25    32 1   
    53    25    34 1   
    54    29    32 2   
    55    30    32 2   
@<TRIPOS>SUBSTRUCTURE
     1 604         1 TEMP              0 ****  ****    0 ROOT
