REMARK  Name = 440049
REMARK  6 active torsions:
REMARK  status: ('A' for Active; 'I' for Inactive)
REMARK    1  A    between atoms: N_1  and  C_2
REMARK    2  A    between atoms: C_3  and  O_4
REMARK    3  A    between atoms: C_6  and  C_7
REMARK    4  A    between atoms: C_7  and  O_8
REMARK    5  A    between atoms: C_9  and  O_10
REMARK    6  A    between atoms: C_11  and  O_12
REMARK                            x       y       z     vdW  Elec       q    Type
REMARK                         _______ _______ _______ _____ _____    ______ ____
ROOT
ATOM      1  C   UNL     1      -0.422   1.080   0.511  0.00  0.00    +0.000 C 
ATOM      2  C   UNL     1      -1.117   1.441  -0.821  0.00  0.00    +0.000 C 
ATOM      3  O   UNL     1      -0.270   1.246  -1.946  0.00  0.00    +0.000 OA
ATOM      4  C   UNL     1       0.248  -0.076  -2.074  0.00  0.00    +0.000 C 
ATOM      5  C   UNL     1       0.942  -0.603  -0.787  0.00  0.00    +0.000 C 
ATOM      6  C   UNL     1       0.099  -0.364   0.480  0.00  0.00    +0.000 C 
ENDROOT
BRANCH   1   7
ATOM      7  N   UNL     1      -1.337   1.269   1.639  0.00  0.00    +0.000 NA
ATOM      8  H   UNL     1      -1.613   2.278   1.674  0.00  0.00    +0.000 HD
ATOM      9  H   UNL     1      -0.811   1.085   2.525  0.00  0.00    +0.000 HD
ENDBRANCH   1   7
BRANCH   2  10
ATOM     10  O   UNL     1      -2.330   0.750  -0.984  0.00  0.00    +0.000 OA
ATOM     11  H   UNL     1      -3.013   1.219  -0.436  0.00  0.00    +0.000 HD
ENDBRANCH   2  10
BRANCH   5  12
ATOM     12  O   UNL     1       2.221  -0.032  -0.637  0.00  0.00    +0.000 OA
ATOM     13  H   UNL     1       2.131   0.953  -0.712  0.00  0.00    +0.000 HD
ENDBRANCH   5  12
BRANCH   6  14
ATOM     14  O   UNL     1      -0.979  -1.266   0.531  0.00  0.00    +0.000 OA
ATOM     15  H   UNL     1      -0.606  -2.146   0.797  0.00  0.00    +0.000 HD
ENDBRANCH   6  14
BRANCH   4  16
ATOM     16  C   UNL     1      -0.771  -1.069  -2.671  0.00  0.00    +0.000 C 
BRANCH  16  17
ATOM     17  O   UNL     1      -1.319  -0.558  -3.857  0.00  0.00    +0.000 OA
ATOM     18  H   UNL     1      -2.058   0.049  -3.592  0.00  0.00    +0.000 HD
ENDBRANCH  16  17
ENDBRANCH   4  16
TORSDOF 6
