REMARK  Name = 440235
REMARK  9 active torsions:
REMARK  status: ('A' for Active; 'I' for Inactive)
REMARK    1  A    between atoms: O_2  and  C_3
REMARK    2  A    between atoms: C_3  and  C_30
REMARK    3  A    between atoms: N_4  and  C_5
REMARK    4  A    between atoms: C_7  and  O_9
REMARK    5  A    between atoms: C_12  and  C_14
REMARK    6  A    between atoms: C_14  and  O_17
REMARK    7  A    between atoms: O_17  and  S_18
REMARK    8  A    between atoms: C_22  and  O_24
REMARK    9  A    between atoms: C_26  and  O_28
REMARK                            x       y       z     vdW  Elec       q    Type
REMARK                         _______ _______ _______ _____ _____    ______ ____
ROOT
ATOM      1  C   UNL     1       0.125  -0.984   1.385  0.00  0.00    +0.000 C 
ATOM      2  C   UNL     1       0.672  -2.143   0.534  0.00  0.00    +0.000 C 
ATOM      3  O   UNL     1       0.253  -2.077  -0.824  0.00  0.00    +0.000 OA
ATOM      4  C   UNL     1       0.595  -0.862  -1.485  0.00  0.00    +0.000 C 
ATOM      5  C   UNL     1       0.118   0.406  -0.735  0.00  0.00    +0.000 C 
ATOM      6  C   UNL     1       0.493   0.374   0.761  0.00  0.00    +0.000 C 
ENDROOT
BRANCH   1   8
ATOM      7  C   UNL     1      -2.054  -0.533   2.405  0.00  0.00    +0.000 C 
ATOM      8  N   UNL     1      -1.329  -1.123   1.502  0.00  0.00    +0.000 NA
ATOM      9  C   UNL     1      -3.532  -0.756   2.422  0.00  0.00    +0.000 C 
BRANCH   7  11
ATOM     10  H   UNL     1      -2.018   0.725   4.093  0.00  0.00    +0.000 HD
ATOM     11  O   UNL     1      -1.463   0.275   3.376  0.00  0.00    +0.000 OA
ENDBRANCH   7  11
ENDBRANCH   1   8
BRANCH   2  12
ATOM     12  O   UNL     1       2.069  -2.227   0.640  0.00  0.00    +0.000 OA
ATOM     13  H   UNL     1       2.336  -3.069   0.187  0.00  0.00    +0.000 HD
ENDBRANCH   2  12
BRANCH   5  14
ATOM     14  O   UNL     1      -1.278   0.512  -0.871  0.00  0.00    +0.000 OA
ATOM     15  H   UNL     1      -1.520   1.450  -0.653  0.00  0.00    +0.000 HD
ENDBRANCH   5  14
BRANCH   6  16
ATOM     16  O   UNL     1       1.867   0.614   0.935  0.00  0.00    +0.000 OA
ATOM     17  H   UNL     1       2.017   1.579   0.758  0.00  0.00    +0.000 HD
ENDBRANCH   6  16
BRANCH   4  18
ATOM     18  C   UNL     1       2.072  -0.808  -1.919  0.00  0.00    +0.000 C 
BRANCH  18  19
ATOM     19  O   UNL     1       2.418  -2.021  -2.544  0.00  0.00    +0.000 OA
BRANCH  19  20
ATOM     20  S   UNL     1       4.073  -1.986  -2.904  0.00  0.00    +0.000 S 
ATOM     21  O   UNL     1       4.876  -2.024  -1.634  0.00  0.00    +0.000 OA
ATOM     22  O   UNL     1       4.414  -3.191  -3.734  0.00  0.00    +0.000 OA
ATOM     23  O   UNL     1       4.457  -0.601  -3.775  0.00  0.00    +0.000 OA
ENDBRANCH  19  20
ENDBRANCH  18  19
ENDBRANCH   4  18
TORSDOF 8
