REMARK  Name = 445621
REMARK  6 active torsions:
REMARK  status: ('A' for Active; 'I' for Inactive)
REMARK    1  A    between atoms: N_1  and  C_2
REMARK    2  A    between atoms: C_3  and  O_4
REMARK    3  A    between atoms: C_6  and  C_7
REMARK    4  A    between atoms: C_7  and  O_8
REMARK    5  A    between atoms: C_9  and  O_10
REMARK    6  A    between atoms: C_11  and  O_12
REMARK                            x       y       z     vdW  Elec       q    Type
REMARK                         _______ _______ _______ _____ _____    ______ ____
ROOT
ATOM      1  C   UNL     1       1.163   0.135   0.860  0.00  0.00    +0.000 C 
ATOM      2  C   UNL     1      -0.326   0.530   0.720  0.00  0.00    +0.000 C 
ATOM      3  O   UNL     1      -1.158  -0.619   0.746  0.00  0.00    +0.000 OA
ATOM      4  C   UNL     1      -0.892  -1.489  -0.344  0.00  0.00    +0.000 C 
ATOM      5  C   UNL     1       0.555  -2.035  -0.270  0.00  0.00    +0.000 C 
ATOM      6  C   UNL     1       1.555  -0.864  -0.244  0.00  0.00    +0.000 C 
ENDROOT
BRANCH   1   7
ATOM      7  N   UNL     1       2.034   1.319   0.836  0.00  0.00    +0.000 N 
ATOM      8  H   UNL     1       2.021   1.774  -0.106  0.00  0.00    +0.000 HD
ATOM      9  H   UNL     1       3.016   1.040   1.063  0.00  0.00    +0.000 HD
ATOM     10  H   UNL     1       1.718   2.009   1.557  0.00  0.00    +0.000 HD
ENDBRANCH   1   7
BRANCH   2  11
ATOM     11  O   UNL     1      -0.559   1.283  -0.448  0.00  0.00    +0.000 OA
ATOM     12  H   UNL     1      -0.385   2.234  -0.224  0.00  0.00    +0.000 HD
ENDBRANCH   2  11
BRANCH   5  13
ATOM     13  O   UNL     1       0.815  -2.846  -1.388  0.00  0.00    +0.000 OA
ATOM     14  H   UNL     1       1.522  -3.489  -1.121  0.00  0.00    +0.000 HD
ENDBRANCH   5  13
BRANCH   6  15
ATOM     15  O   UNL     1       2.849  -1.350   0.007  0.00  0.00    +0.000 OA
ATOM     16  H   UNL     1       3.226  -1.638  -0.865  0.00  0.00    +0.000 HD
ENDBRANCH   6  15
BRANCH   4  17
ATOM     17  C   UNL     1      -1.923  -2.630  -0.291  0.00  0.00    +0.000 C 
BRANCH  17  18
ATOM     18  O   UNL     1      -1.860  -3.430  -1.442  0.00  0.00    +0.000 OA
ATOM     19  H   UNL     1      -2.285  -2.911  -2.173  0.00  0.00    +0.000 HD
ENDBRANCH  17  18
ENDBRANCH   4  17
TORSDOF 6
