REMARK  Name = 6713972
REMARK  8 active torsions:
REMARK  status: ('A' for Active; 'I' for Inactive)
REMARK    1  A    between atoms: O_2  and  N_3
REMARK    2  A    between atoms: N_4  and  C_31
REMARK    3  A    between atoms: N_7  and  C_9
REMARK    4  A    between atoms: C_11  and  O_13
REMARK    5  A    between atoms: C_16  and  C_18
REMARK    6  A    between atoms: C_18  and  O_21
REMARK    7  A    between atoms: C_23  and  O_25
REMARK    8  A    between atoms: C_27  and  O_29
REMARK                            x       y       z     vdW  Elec       q    Type
REMARK                         _______ _______ _______ _____ _____    ______ ____
ROOT
ATOM      1  C   UNL     1      -0.276   0.184  -0.362  0.00  0.00    +0.000 C 
ATOM      2  C   UNL     1      -1.127   1.054   0.588  0.00  0.00    +0.000 C 
ATOM      3  O   UNL     1      -2.375   1.383  -0.003  0.00  0.00    +0.000 OA
ATOM      4  C   UNL     1      -3.170   0.241  -0.302  0.00  0.00    +0.000 C 
ATOM      5  C   UNL     1      -2.454  -0.739  -1.261  0.00  0.00    +0.000 C 
ATOM      6  C   UNL     1      -1.053  -1.094  -0.726  0.00  0.00    +0.000 C 
ENDROOT
BRANCH   1  11
ATOM      7  N   UNL     1       3.434  -0.973   1.378  0.00  0.00    +0.000 NA
ATOM      8  N   UNL     1       3.467   0.040   0.597  0.00  0.00    +0.000 N 
ATOM      9  C   UNL     1       2.248   0.438  -0.066  0.00  0.00    +0.000 C 
ATOM     10  O   UNL     1       2.278   1.327  -0.961  0.00  0.00    +0.000 OA
ATOM     11  N   UNL     1       0.993  -0.175   0.282  0.00  0.00    +0.000 N 
ATOM     12  H   UNL     1       0.955  -0.826   1.098  0.00  0.00    +0.000 HD
ATOM     13  C   UNL     1       4.719   0.774   0.359  0.00  0.00    +0.000 C 
BRANCH   7  15
ATOM     14  H   UNL     1       5.461  -1.071   1.963  0.00  0.00    +0.000 HD
ATOM     15  O   UNL     1       4.535  -1.467   2.053  0.00  0.00    +0.000 OA
ENDBRANCH   7  15
ENDBRANCH   1  11
BRANCH   2  16
ATOM     16  O   UNL     1      -0.447   2.254   0.850  0.00  0.00    +0.000 OA
ATOM     17  H   UNL     1       0.210   2.069   1.571  0.00  0.00    +0.000 HD
ENDBRANCH   2  16
BRANCH   5  18
ATOM     18  O   UNL     1      -2.353  -0.134  -2.527  0.00  0.00    +0.000 OA
ATOM     19  H   UNL     1      -2.365  -0.862  -3.202  0.00  0.00    +0.000 HD
ENDBRANCH   5  18
BRANCH   6  20
ATOM     20  O   UNL     1      -0.343  -1.887  -1.647  0.00  0.00    +0.000 OA
ATOM     21  H   UNL     1      -0.078  -1.313  -2.412  0.00  0.00    +0.000 HD
ENDBRANCH   6  20
BRANCH   4  22
ATOM     22  C   UNL     1      -3.740  -0.441   0.958  0.00  0.00    +0.000 C 
BRANCH  22  23
ATOM     23  O   UNL     1      -4.329   0.519   1.790  0.00  0.00    +0.000 OA
ATOM     24  H   UNL     1      -4.683   0.026   2.575  0.00  0.00    +0.000 HD
ENDBRANCH  22  23
ENDBRANCH   4  22
TORSDOF 7
