REMARK  Name = 2733335
REMARK  9 active torsions:
REMARK  status: ('A' for Active; 'I' for Inactive)
REMARK    1  A    between atoms: O_2  and  C_3
REMARK    2  A    between atoms: N_4  and  C_6
REMARK    3  A    between atoms: C_8  and  O_10
REMARK    4  A    between atoms: C_13  and  C_15
REMARK    5  A    between atoms: C_15  and  O_18
REMARK    6  A    between atoms: C_20  and  O_22
REMARK    7  A    between atoms: C_24  and  O_26
REMARK    8  A    between atoms: N_28  and  N_29
REMARK    9  A    between atoms: N_28  and  C_31
REMARK                            x       y       z     vdW  Elec       q    Type
REMARK                         _______ _______ _______ _____ _____    ______ ____
ROOT
ATOM      1  C   UNL     1       0.023   0.041   1.081  0.00  0.00    +0.000 C 
ATOM      2  C   UNL     1      -0.468   1.347   0.419  0.00  0.00    +0.000 C 
ATOM      3  O   UNL     1      -1.879   1.466   0.533  0.00  0.00    +0.000 OA
ATOM      4  C   UNL     1      -2.553   0.405  -0.132  0.00  0.00    +0.000 C 
ATOM      5  C   UNL     1      -2.202  -0.962   0.513  0.00  0.00    +0.000 C 
ATOM      6  C   UNL     1      -0.680  -1.191   0.480  0.00  0.00    +0.000 C 
ENDROOT
BRANCH   1   8
ATOM      7  C   UNL     1       2.334  -0.198  -0.086  0.00  0.00    +0.000 C 
ATOM      8  N   UNL     1       1.491  -0.072   1.082  0.00  0.00    +0.000 N 
ATOM      9  H   UNL     1       1.938  -0.056   2.026  0.00  0.00    +0.000 HD
ATOM     10  N   UNL     1       3.634  -0.023   0.011  0.00  0.00    +0.000 N 
ATOM     11  C   UNL     1       4.512  -0.175  -1.160  0.00  0.00    +0.000 C 
BRANCH   7  13
ATOM     12  H   UNL     1       2.237  -0.611  -2.187  0.00  0.00    +0.000 HD
ATOM     13  O   UNL     1       1.738  -0.519  -1.312  0.00  0.00    +0.000 OA
ENDBRANCH   7  13
BRANCH  10  14
ATOM     14  N   UNL     1       4.187   0.344   1.254  0.00  0.00    +0.000 NA
ATOM     15  O   UNL     1       5.410   0.547   1.405  0.00  0.00    +0.000 OA
ENDBRANCH  10  14
ENDBRANCH   1   8
BRANCH   2  16
ATOM     16  O   UNL     1      -0.066   1.438  -0.924  0.00  0.00    +0.000 OA
ATOM     17  H   UNL     1      -0.319   2.347  -1.231  0.00  0.00    +0.000 HD
ENDBRANCH   2  16
BRANCH   5  18
ATOM     18  O   UNL     1      -2.872  -2.021  -0.128  0.00  0.00    +0.000 OA
ATOM     19  H   UNL     1      -2.610  -2.008  -1.085  0.00  0.00    +0.000 HD
ENDBRANCH   5  18
BRANCH   6  20
ATOM     20  O   UNL     1      -0.368  -2.339   1.226  0.00  0.00    +0.000 OA
ATOM     21  H   UNL     1       0.528  -2.642   0.925  0.00  0.00    +0.000 HD
ENDBRANCH   6  20
BRANCH   4  22
ATOM     22  C   UNL     1      -4.061   0.668  -0.053  0.00  0.00    +0.000 C 
BRANCH  22  23
ATOM     23  O   UNL     1      -4.358   1.897  -0.655  0.00  0.00    +0.000 OA
ATOM     24  H   UNL     1      -5.339   2.018  -0.566  0.00  0.00    +0.000 HD
ENDBRANCH  22  23
ENDBRANCH   4  22
TORSDOF 8
