REMARK  Name = 11908605
REMARK  8 active torsions:
REMARK  status: ('A' for Active; 'I' for Inactive)
REMARK    1  A    between atoms: O_2  and  C_3
REMARK    2  A    between atoms: C_3  and  C_27
REMARK    3  A    between atoms: N_4  and  C_5
REMARK    4  A    between atoms: C_7  and  O_9
REMARK    5  A    between atoms: C_11  and  O_13
REMARK    6  A    between atoms: C_15  and  C_17
REMARK    7  A    between atoms: C_17  and  O_20
REMARK    8  A    between atoms: C_23  and  O_25
REMARK                            x       y       z     vdW  Elec       q    Type
REMARK                         _______ _______ _______ _____ _____    ______ ____
ROOT
ATOM      1  C   UNL     1      -0.728  -0.615  -0.797  0.00  0.00    +0.000 C 
ATOM      2  C   UNL     1       0.756  -0.520  -1.202  0.00  0.00    +0.000 C 
ATOM      3  C   UNL     1       1.643  -1.249  -0.175  0.00  0.00    +0.000 C 
ATOM      4  C   UNL     1       1.091  -2.672   0.093  0.00  0.00    +0.000 C 
ATOM      5  O   UNL     1      -0.260  -2.603   0.521  0.00  0.00    +0.000 OA
ATOM      6  C   UNL     1      -1.086  -2.092  -0.510  0.00  0.00    +0.000 C 
ENDROOT
BRANCH   1   8
ATOM      7  C   UNL     1      -2.088   0.765   0.708  0.00  0.00    +0.000 C 
ATOM      8  N   UNL     1      -0.955   0.213   0.392  0.00  0.00    +0.000 NA
ATOM      9  C   UNL     1      -2.193   1.562   1.968  0.00  0.00    +0.000 C 
BRANCH   7  11
ATOM     10  H   UNL     1      -4.099   1.022   0.142  0.00  0.00    +0.000 HD
ATOM     11  O   UNL     1      -3.210   0.606  -0.105  0.00  0.00    +0.000 OA
ENDBRANCH   7  11
ENDBRANCH   1   8
BRANCH   2  12
ATOM     12  O   UNL     1       0.945  -1.087  -2.475  0.00  0.00    +0.000 OA
ATOM     13  H   UNL     1       0.603  -0.429  -3.136  0.00  0.00    +0.000 HD
ENDBRANCH   2  12
BRANCH   3  14
ATOM     14  O   UNL     1       2.958  -1.315  -0.669  0.00  0.00    +0.000 OA
ATOM     15  H   UNL     1       3.570  -1.213   0.107  0.00  0.00    +0.000 HD
ENDBRANCH   3  14
BRANCH   6  16
ATOM     16  O   UNL     1      -2.423  -2.197  -0.099  0.00  0.00    +0.000 OA
ATOM     17  H   UNL     1      -2.983  -2.078  -0.911  0.00  0.00    +0.000 HD
ENDBRANCH   6  16
BRANCH   4  18
ATOM     18  C   UNL     1       1.911  -3.380   1.182  0.00  0.00    +0.000 C 
BRANCH  18  19
ATOM     19  O   UNL     1       1.422  -4.678   1.395  0.00  0.00    +0.000 OA
ATOM     20  H   UNL     1       0.648  -4.596   2.011  0.00  0.00    +0.000 HD
ENDBRANCH  18  19
ENDBRANCH   4  18
TORSDOF 7
