REMARK  Name = 57376616
REMARK  7 active torsions:
REMARK  status: ('A' for Active; 'I' for Inactive)
REMARK    1  A    between atoms: C_1  and  C_2
REMARK    2  A    between atoms: N_4  and  C_5
REMARK    3  A    between atoms: C_6  and  O_7
REMARK    4  A    between atoms: C_9  and  C_10
REMARK    5  A    between atoms: C_10  and  O_11
REMARK    6  A    between atoms: C_12  and  O_13
REMARK    7  A    between atoms: C_14  and  O_15
REMARK                            x       y       z     vdW  Elec       q    Type
REMARK                         _______ _______ _______ _____ _____    ______ ____
ROOT
ATOM      1  C   UNL     1      -2.006   0.303  -1.038  0.00  0.00    +0.000 C 
ATOM      2  C   UNL     1      -2.837   0.956   0.091  0.00  0.00    +0.000 C 
ATOM      3  O   UNL     1      -2.032   1.187   1.234  0.00  0.00    +0.000 OA
ATOM      4  C   UNL     1      -1.602  -0.042   1.798  0.00  0.00    +0.000 C 
ATOM      5  C   UNL     1      -0.649  -0.779   0.826  0.00  0.00    +0.000 C 
ATOM      6  C   UNL     1      -1.368  -1.003  -0.520  0.00  0.00    +0.000 C 
ENDROOT
BRANCH   1  10
ATOM      7  C   UNL     1       0.585   2.158  -3.294  0.00  0.00    +0.000 C 
ATOM      8  C   UNL     1      -0.494   1.213  -2.877  0.00  0.00    +0.000 C 
ATOM      9  O   UNL     1      -0.984   0.415  -3.722  0.00  0.00    +0.000 OA
ATOM     10  N   UNL     1      -0.982   1.236  -1.528  0.00  0.00    +0.000 N 
ATOM     11  H   UNL     1      -0.566   1.932  -0.868  0.00  0.00    +0.000 HD
ENDBRANCH   1  10
BRANCH   2  12
ATOM     12  O   UNL     1      -3.351   2.186  -0.346  0.00  0.00    +0.000 OA
ATOM     13  H   UNL     1      -4.074   1.983  -0.996  0.00  0.00    +0.000 HD
ENDBRANCH   2  12
BRANCH   5  14
ATOM     14  O   UNL     1       0.523  -0.028   0.617  0.00  0.00    +0.000 OA
ATOM     15  H   UNL     1       1.203  -0.360   1.258  0.00  0.00    +0.000 HD
ENDBRANCH   5  14
BRANCH   6  16
ATOM     16  O   UNL     1      -0.479  -1.525  -1.474  0.00  0.00    +0.000 OA
ATOM     17  H   UNL     1      -0.298  -2.466  -1.214  0.00  0.00    +0.000 HD
ENDBRANCH   6  16
BRANCH   4  18
ATOM     18  C   UNL     1      -0.938   0.247   3.152  0.00  0.00    +0.000 C 
BRANCH  18  19
ATOM     19  O   UNL     1      -0.612  -0.947   3.813  0.00  0.00    +0.000 OA
ATOM     20  H   UNL     1       0.321  -1.173   3.559  0.00  0.00    +0.000 HD
ENDBRANCH  18  19
ENDBRANCH   4  18
TORSDOF 6
