REMARK  Name = 441477
REMARK  6 active torsions:
REMARK  status: ('A' for Active; 'I' for Inactive)
REMARK    1  A    between atoms: N_1  and  C_2
REMARK    2  A    between atoms: C_3  and  O_4
REMARK    3  A    between atoms: C_6  and  C_7
REMARK    4  A    between atoms: C_7  and  O_8
REMARK    5  A    between atoms: C_9  and  O_10
REMARK    6  A    between atoms: C_11  and  O_12
REMARK                            x       y       z     vdW  Elec       q    Type
REMARK                         _______ _______ _______ _____ _____    ______ ____
ROOT
ATOM      1  C   UNL     1       0.812  -1.439   0.342  0.00  0.00    +0.000 C 
ATOM      2  C   UNL     1      -0.280  -0.862   1.273  0.00  0.00    +0.000 C 
ATOM      3  O   UNL     1      -1.262  -0.189   0.509  0.00  0.00    +0.000 OA
ATOM      4  C   UNL     1      -0.764   1.060   0.048  0.00  0.00    +0.000 C 
ATOM      5  C   UNL     1       0.640   0.943  -0.638  0.00  0.00    +0.000 C 
ATOM      6  C   UNL     1       1.038  -0.527  -0.902  0.00  0.00    +0.000 C 
ENDROOT
BRANCH   1   7
ATOM      7  N   UNL     1       2.052  -1.639   1.098  0.00  0.00    +0.000 NA
ATOM      8  H   UNL     1       2.478  -0.711   1.323  0.00  0.00    +0.000 HD
ATOM      9  H   UNL     1       2.732  -2.157   0.495  0.00  0.00    +0.000 HD
ENDBRANCH   1   7
BRANCH   2  10
ATOM     10  O   UNL     1      -0.880  -1.893   2.013  0.00  0.00    +0.000 OA
ATOM     11  H   UNL     1      -1.447  -2.415   1.386  0.00  0.00    +0.000 HD
ENDBRANCH   2  10
BRANCH   5  12
ATOM     12  O   UNL     1       1.617   1.535   0.181  0.00  0.00    +0.000 OA
ATOM     13  H   UNL     1       1.503   2.518   0.099  0.00  0.00    +0.000 HD
ENDBRANCH   5  12
BRANCH   6  14
ATOM     14  O   UNL     1       0.348  -1.026  -2.024  0.00  0.00    +0.000 OA
ATOM     15  H   UNL     1      -0.612  -1.101  -1.788  0.00  0.00    +0.000 HD
ENDBRANCH   6  14
BRANCH   4  16
ATOM     16  C   UNL     1      -1.792   1.672  -0.915  0.00  0.00    +0.000 C 
BRANCH  16  17
ATOM     17  O   UNL     1      -3.021   1.861  -0.267  0.00  0.00    +0.000 OA
ATOM     18  H   UNL     1      -3.496   0.990  -0.293  0.00  0.00    +0.000 HD
ENDBRANCH  16  17
ENDBRANCH   4  16
TORSDOF 6
