REMARK  Name = 90659182
REMARK  10 active torsions:
REMARK  status: ('A' for Active; 'I' for Inactive)
REMARK    1  A    between atoms: O_2  and  C_3
REMARK    2  A    between atoms: C_3  and  C_32
REMARK    3  A    between atoms: N_4  and  C_5
REMARK    4  A    between atoms: C_7  and  O_9
REMARK    5  A    between atoms: C_12  and  C_14
REMARK    6  A    between atoms: C_14  and  O_17
REMARK    7  A    between atoms: C_19  and  O_21
REMARK    8  A    between atoms: O_21  and  C_22
REMARK    9  A    between atoms: C_22  and  C_24
REMARK   10  A    between atoms: C_28  and  O_30
REMARK                            x       y       z     vdW  Elec       q    Type
REMARK                         _______ _______ _______ _____ _____    ______ ____
ROOT
ATOM      1  C   UNL     1      -0.096   0.239  -0.768  0.00  0.00    +0.000 C 
ATOM      2  C   UNL     1      -1.444  -0.413  -0.421  0.00  0.00    +0.000 C 
ATOM      3  O   UNL     1      -1.259  -1.546   0.414  0.00  0.00    +0.000 OA
ATOM      4  C   UNL     1      -0.666  -1.217   1.665  0.00  0.00    +0.000 C 
ATOM      5  C   UNL     1       0.700  -0.502   1.508  0.00  0.00    +0.000 C 
ATOM      6  C   UNL     1       0.620   0.680   0.523  0.00  0.00    +0.000 C 
ENDROOT
BRANCH   1   8
ATOM      7  C   UNL     1       0.614   1.950  -2.364  0.00  0.00    +0.000 C 
ATOM      8  N   UNL     1      -0.317   1.382  -1.657  0.00  0.00    +0.000 NA
ATOM      9  C   UNL     1       0.267   3.110  -3.241  0.00  0.00    +0.000 C 
BRANCH   7  11
ATOM     10  H   UNL     1       2.650   1.892  -2.898  0.00  0.00    +0.000 HD
ATOM     11  O   UNL     1       1.921   1.466  -2.338  0.00  0.00    +0.000 OA
ENDBRANCH   7  11
ENDBRANCH   1   8
BRANCH   2  12
ATOM     12  O   UNL     1      -2.058  -0.831  -1.610  0.00  0.00    +0.000 OA
ATOM     13  H   UNL     1      -2.966  -1.149  -1.361  0.00  0.00    +0.000 HD
ENDBRANCH   2  12
BRANCH   6  14
ATOM     14  O   UNL     1      -0.054   1.756   1.129  0.00  0.00    +0.000 OA
ATOM     15  H   UNL     1       0.248   2.585   0.674  0.00  0.00    +0.000 HD
ENDBRANCH   6  14
BRANCH   4  16
ATOM     16  C   UNL     1      -1.643  -0.498   2.621  0.00  0.00    +0.000 C 
BRANCH  16  17
ATOM     17  O   UNL     1      -2.815  -1.252   2.778  0.00  0.00    +0.000 OA
ATOM     18  H   UNL     1      -3.387  -1.058   1.991  0.00  0.00    +0.000 HD
ENDBRANCH  16  17
ENDBRANCH   4  16
BRANCH   5  19
ATOM     19  O   UNL     1       1.655  -1.458   1.038  0.00  0.00    +0.000 OA
BRANCH  19  20
ATOM     20  C   UNL     1       3.041  -1.281   1.130  0.00  0.00    +0.000 C 
ATOM     21  O   UNL     1       3.527  -0.279   1.722  0.00  0.00    +0.000 OA
ATOM     22  C   UNL     1       3.951  -2.319   0.570  0.00  0.00    +0.000 C 
ENDBRANCH  19  20
ENDBRANCH   5  19
TORSDOF 8
