REMARK  Name = 440271
REMARK  9 active torsions:
REMARK  status: ('A' for Active; 'I' for Inactive)
REMARK    1  A    between atoms: C_1  and  C_2
REMARK    2  A    between atoms: C_2  and  O_3
REMARK    3  A    between atoms: N_4  and  C_5
REMARK    4  A    between atoms: C_6  and  O_7
REMARK    5  A    between atoms: C_9  and  C_10
REMARK    6  A    between atoms: C_10  and  O_11
REMARK    7  A    between atoms: O_11  and  S_12
REMARK    8  A    between atoms: C_16  and  O_17
REMARK    9  A    between atoms: C_18  and  O_19
REMARK                            x       y       z     vdW  Elec       q    Type
REMARK                         _______ _______ _______ _____ _____    ______ ____
ROOT
ATOM      1  C   UNL     1      -1.366   0.374   0.246  0.00  0.00    +0.000 C 
ATOM      2  C   UNL     1      -0.633   0.052   1.564  0.00  0.00    +0.000 C 
ATOM      3  O   UNL     1       0.210  -1.086   1.454  0.00  0.00    +0.000 OA
ATOM      4  C   UNL     1       1.202  -0.982   0.437  0.00  0.00    +0.000 C 
ATOM      5  C   UNL     1       0.605  -0.635  -0.956  0.00  0.00    +0.000 C 
ATOM      6  C   UNL     1      -0.358   0.559  -0.904  0.00  0.00    +0.000 C 
ENDROOT
BRANCH   1   9
ATOM      7  C   UNL     1      -4.157  -1.818  -1.137  0.00  0.00    +0.000 C 
ATOM      8  C   UNL     1      -3.293  -0.624  -0.887  0.00  0.00    +0.000 C 
ATOM      9  N   UNL     1      -2.296  -0.717  -0.058  0.00  0.00    +0.000 NA
BRANCH   8  10
ATOM     10  O   UNL     1      -3.547   0.570  -1.561  0.00  0.00    +0.000 OA
ATOM     11  H   UNL     1      -4.312   0.647  -2.221  0.00  0.00    +0.000 HD
ENDBRANCH   8  10
ENDBRANCH   1   9
BRANCH   2  12
ATOM     12  O   UNL     1       0.084   1.162   2.043  0.00  0.00    +0.000 OA
ATOM     13  H   UNL     1      -0.584   1.828   2.353  0.00  0.00    +0.000 HD
ENDBRANCH   2  12
BRANCH   5  14
ATOM     14  O   UNL     1       1.617  -0.387  -1.899  0.00  0.00    +0.000 OA
ATOM     15  H   UNL     1       2.030  -1.264  -2.114  0.00  0.00    +0.000 HD
ENDBRANCH   5  14
BRANCH   6  16
ATOM     16  O   UNL     1       0.357   1.758  -0.745  0.00  0.00    +0.000 OA
ATOM     17  H   UNL     1      -0.266   2.497  -0.976  0.00  0.00    +0.000 HD
ENDBRANCH   6  16
BRANCH   4  18
ATOM     18  C   UNL     1       2.397  -0.108   0.876  0.00  0.00    +0.000 C 
BRANCH  18  19
ATOM     19  O   UNL     1       3.542  -0.465   0.137  0.00  0.00    +0.000 OA
BRANCH  19  20
ATOM     20  S   UNL     1       4.825   0.539   0.605  0.00  0.00    +0.000 S 
ATOM     21  O   UNL     1       4.514   1.972   0.271  0.00  0.00    +0.000 OA
ATOM     22  O   UNL     1       5.085   0.407   2.080  0.00  0.00    +0.000 OA
ATOM     23  O   UNL     1       6.205   0.074  -0.232  0.00  0.00    +0.000 OA
ENDBRANCH  19  20
ENDBRANCH  18  19
ENDBRANCH   4  18
TORSDOF 8
