REMARK  Name = 12600646
REMARK  9 active torsions:
REMARK  status: ('A' for Active; 'I' for Inactive)
REMARK    1  A    between atoms: N_2  and  N_3
REMARK    2  A    between atoms: N_3  and  C_4
REMARK    3  A    between atoms: C_4  and  C_5
REMARK    4  A    between atoms: N_9  and  C_10
REMARK    5  A    between atoms: C_11  and  O_12
REMARK    6  A    between atoms: C_14  and  C_15
REMARK    7  A    between atoms: C_15  and  O_16
REMARK    8  A    between atoms: C_17  and  O_18
REMARK    9  A    between atoms: C_19  and  O_20
REMARK                            x       y       z     vdW  Elec       q    Type
REMARK                         _______ _______ _______ _____ _____    ______ ____
ROOT
ATOM      1  C   UNL     1       0.685  -0.513   0.356  0.00  0.00    +0.000 C 
ATOM      2  C   UNL     1       1.992  -0.189  -0.393  0.00  0.00    +0.000 C 
ATOM      3  O   UNL     1       2.741   0.780   0.322  0.00  0.00    +0.000 OA
ATOM      4  C   UNL     1       2.053   2.021   0.350  0.00  0.00    +0.000 C 
ATOM      5  C   UNL     1       0.733   1.880   1.150  0.00  0.00    +0.000 C 
ATOM      6  C   UNL     1      -0.144   0.772   0.538  0.00  0.00    +0.000 C 
ENDROOT
BRANCH   1  10
ATOM      7  N   UNL     1      -1.399  -3.626  -0.562  0.00  0.00    +0.000 N 
ATOM      8  C   UNL     1      -0.756  -2.611   0.234  0.00  0.00    +0.000 C 
ATOM      9  O   UNL     1      -0.821  -2.670   1.492  0.00  0.00    +0.000 OA
ATOM     10  N   UNL     1      -0.087  -1.507  -0.396  0.00  0.00    +0.000 N 
ATOM     11  H   UNL     1      -0.277  -1.321  -1.407  0.00  0.00    +0.000 HD
BRANCH   7  13
ATOM     12  O   UNL     1       0.245  -3.654  -2.202  0.00  0.00    +0.000 OA
ATOM     13  N   UNL     1      -0.886  -4.013  -1.814  0.00  0.00    +0.000 NA
ENDBRANCH   7  13
BRANCH   7  14
ATOM     14  C   UNL     1      -2.576  -4.330  -0.048  0.00  0.00    +0.000 C 
BRANCH  14  15
ATOM     15  C   UNL     1      -2.172  -5.561   0.765  0.00  0.00    +0.000 C 
ATOM     16 CL   UNL     1      -1.436  -6.810  -0.274  0.00  0.00    +0.000 Cl
ENDBRANCH  14  15
ENDBRANCH   7  14
ENDBRANCH   1  10
BRANCH   2  17
ATOM     17  O   UNL     1       2.755  -1.360  -0.501  0.00  0.00    +0.000 OA
ATOM     18  H   UNL     1       3.531  -1.137  -1.079  0.00  0.00    +0.000 HD
ENDBRANCH   2  17
BRANCH   5  19
ATOM     19  O   UNL     1       0.028   3.096   1.196  0.00  0.00    +0.000 OA
ATOM     20  H   UNL     1      -0.163   3.370   0.261  0.00  0.00    +0.000 HD
ENDBRANCH   5  19
BRANCH   6  21
ATOM     21  O   UNL     1      -1.236   0.528   1.388  0.00  0.00    +0.000 OA
ATOM     22  H   UNL     1      -1.951   0.124   0.831  0.00  0.00    +0.000 HD
ENDBRANCH   6  21
BRANCH   4  23
ATOM     23  C   UNL     1       2.968   3.069   0.992  0.00  0.00    +0.000 C 
BRANCH  23  24
ATOM     24  O   UNL     1       4.148   3.186   0.246  0.00  0.00    +0.000 OA
ATOM     25  H   UNL     1       4.701   3.866   0.710  0.00  0.00    +0.000 HD
ENDBRANCH  23  24
ENDBRANCH   4  23
TORSDOF 9
