REMARK  Name = 16738680
REMARK  10 active torsions:
REMARK  status: ('A' for Active; 'I' for Inactive)
REMARK    1  A    between atoms: C_1  and  C_2
REMARK    2  A    between atoms: N_4  and  C_5
REMARK    3  A    between atoms: C_6  and  O_7
REMARK    4  A    between atoms: C_9  and  C_10
REMARK    5  A    between atoms: C_10  and  O_11
REMARK    6  A    between atoms: C_12  and  O_13
REMARK    7  A    between atoms: C_14  and  O_15
REMARK    8  A    between atoms: O_15  and  C_16
REMARK    9  A    between atoms: C_16  and  C_17
REMARK   10  A    between atoms: C_16  and  C_18
REMARK                            x       y       z     vdW  Elec       q    Type
REMARK                         _______ _______ _______ _____ _____    ______ ____
ROOT
ATOM      1  C   UNL     1      -0.654   0.456  -0.766  0.00  0.00    +0.000 C 
ATOM      2  C   UNL     1      -0.535  -0.163  -2.174  0.00  0.00    +0.000 C 
ATOM      3  O   UNL     1      -0.711  -1.571  -2.126  0.00  0.00    +0.000 OA
ATOM      4  C   UNL     1       0.293  -2.196  -1.340  0.00  0.00    +0.000 C 
ATOM      5  C   UNL     1       0.218  -1.720   0.129  0.00  0.00    +0.000 C 
ATOM      6  C   UNL     1       0.361  -0.189   0.194  0.00  0.00    +0.000 C 
ENDROOT
BRANCH   1  10
ATOM      7  C   UNL     1      -0.929   4.294  -0.128  0.00  0.00    +0.000 C 
ATOM      8  C   UNL     1      -1.274   2.841  -0.116  0.00  0.00    +0.000 C 
ATOM      9  O   UNL     1      -2.283   2.446   0.530  0.00  0.00    +0.000 OA
ATOM     10  N   UNL     1      -0.452   1.908  -0.830  0.00  0.00    +0.000 N 
ATOM     11  H   UNL     1       0.409   2.273  -1.299  0.00  0.00    +0.000 HD
ENDBRANCH   1  10
BRANCH   2  12
ATOM     12  O   UNL     1       0.688   0.176  -2.779  0.00  0.00    +0.000 OA
ATOM     13  H   UNL     1       0.641  -0.160  -3.712  0.00  0.00    +0.000 HD
ENDBRANCH   2  12
BRANCH   5  14
ATOM     14  O   UNL     1       1.248  -2.322   0.873  0.00  0.00    +0.000 OA
ATOM     15  H   UNL     1       0.969  -2.297   1.825  0.00  0.00    +0.000 HD
ENDBRANCH   5  14
BRANCH   4  16
ATOM     16  C   UNL     1       0.095  -3.717  -1.426  0.00  0.00    +0.000 C 
BRANCH  16  17
ATOM     17  O   UNL     1       0.153  -4.144  -2.761  0.00  0.00    +0.000 OA
ATOM     18  H   UNL     1       1.111  -4.133  -3.021  0.00  0.00    +0.000 HD
ENDBRANCH  16  17
ENDBRANCH   4  16
BRANCH   6  19
ATOM     19  O   UNL     1       0.090   0.234   1.523  0.00  0.00    +0.000 OA
BRANCH  19  20
ATOM     20  C   UNL     1       1.023   1.197   1.985  0.00  0.00    +0.000 C 
ATOM     21  C   UNL     1       2.230   0.501   2.619  0.00  0.00    +0.000 C 
BRANCH  20  22
ATOM     22  C   UNL     1       0.350   2.056   3.012  0.00  0.00    +0.000 C 
ATOM     23  O   UNL     1       0.582   3.293   3.055  0.00  0.00    +0.000 OA
ATOM     24  O   UNL     1      -0.499   1.486   3.953  0.00  0.00    +0.000 OA
ENDBRANCH  20  22
ENDBRANCH  19  20
ENDBRANCH   6  19
TORSDOF 8
