REMARK  Name = 447448
REMARK  10 active torsions:
REMARK  status: ('A' for Active; 'I' for Inactive)
REMARK    1  A    between atoms: O_2  and  C_3
REMARK    2  A    between atoms: C_3  and  C_27
REMARK    3  A    between atoms: N_4  and  C_5
REMARK    4  A    between atoms: C_7  and  O_9
REMARK    5  A    between atoms: C_12  and  C_14
REMARK    6  A    between atoms: C_14  and  O_17
REMARK    7  A    between atoms: C_19  and  O_21
REMARK    8  A    between atoms: C_23  and  O_25
REMARK    9  A    between atoms: C_27  and  C_30
REMARK   10  A    between atoms: C_30  and  C_33
REMARK                            x       y       z     vdW  Elec       q    Type
REMARK                         _______ _______ _______ _____ _____    ______ ____
ROOT
ATOM      1  C   UNL     1      -0.369   0.263   0.621  0.00  0.00    +0.000 C 
ATOM      2  C   UNL     1      -1.010   0.440  -0.774  0.00  0.00    +0.000 C 
ATOM      3  O   UNL     1      -2.402   0.665  -0.642  0.00  0.00    +0.000 OA
ATOM      4  C   UNL     1      -3.052  -0.481  -0.118  0.00  0.00    +0.000 C 
ATOM      5  C   UNL     1      -2.574  -0.748   1.329  0.00  0.00    +0.000 C 
ATOM      6  C   UNL     1      -1.044  -0.912   1.350  0.00  0.00    +0.000 C 
ENDROOT
BRANCH   1   8
ATOM      7  C   UNL     1       1.992   0.893   0.429  0.00  0.00    +0.000 C 
ATOM      8  N   UNL     1       1.064  -0.016   0.492  0.00  0.00    +0.000 NA
BRANCH   7  10
ATOM      9  H   UNL     1       2.381   2.963   0.421  0.00  0.00    +0.000 HD
ATOM     10  O   UNL     1       1.666   2.248   0.490  0.00  0.00    +0.000 OA
ENDBRANCH   7  10
BRANCH   7  11
ATOM     11  C   UNL     1       3.420   0.474   0.256  0.00  0.00    +0.000 C 
BRANCH  11  12
ATOM     12  C   UNL     1       3.789   0.451  -1.230  0.00  0.00    +0.000 C 
ATOM     13  C   UNL     1       5.242   0.029  -1.431  0.00  0.00    +0.000 C 
ENDBRANCH  11  12
ENDBRANCH   7  11
ENDBRANCH   1   8
BRANCH   2  14
ATOM     14  O   UNL     1      -0.452   1.557  -1.415  0.00  0.00    +0.000 OA
ATOM     15  H   UNL     1       0.346   1.242  -1.916  0.00  0.00    +0.000 HD
ENDBRANCH   2  14
BRANCH   5  16
ATOM     16  O   UNL     1      -3.177  -1.917   1.824  0.00  0.00    +0.000 OA
ATOM     17  H   UNL     1      -3.138  -1.864   2.815  0.00  0.00    +0.000 HD
ENDBRANCH   5  16
BRANCH   6  18
ATOM     18  O   UNL     1      -0.604  -0.965   2.683  0.00  0.00    +0.000 OA
ATOM     19  H   UNL     1       0.278  -1.421   2.679  0.00  0.00    +0.000 HD
ENDBRANCH   6  18
BRANCH   4  20
ATOM     20  C   UNL     1      -4.566  -0.231  -0.172  0.00  0.00    +0.000 C 
BRANCH  20  21
ATOM     21  O   UNL     1      -5.269  -1.408   0.118  0.00  0.00    +0.000 OA
ATOM     22  H   UNL     1      -6.231  -1.170   0.080  0.00  0.00    +0.000 HD
ENDBRANCH  20  21
ENDBRANCH   4  20
TORSDOF 9
