REMARK  Name = 448882
REMARK  8 active torsions:
REMARK  status: ('A' for Active; 'I' for Inactive)
REMARK    1  A    between atoms: C_1  and  O_2
REMARK    2  A    between atoms: O_2  and  C_3
REMARK    3  A    between atoms: C_5  and  C_6
REMARK    4  A    between atoms: C_6  and  O_7
REMARK    5  A    between atoms: C_8  and  O_9
REMARK    6  A    between atoms: C_10  and  O_11
REMARK    7  A    between atoms: C_12  and  N_13
REMARK    8  A    between atoms: C_14  and  C_15
REMARK                            x       y       z     vdW  Elec       q    Type
REMARK                         _______ _______ _______ _____ _____    ______ ____
ROOT
ATOM      1  C   UNL     1      -0.066   0.855  -0.510  0.00  0.00    +0.000 C 
ATOM      2  O   UNL     1       1.288   0.715  -0.927  0.00  0.00    +0.000 OA
ATOM      3  C   UNL     1       2.055  -0.015   0.018  0.00  0.00    +0.000 C 
ATOM      4  C   UNL     1       1.535  -1.465   0.136  0.00  0.00    +0.000 C 
ATOM      5  C   UNL     1       0.058  -1.433   0.571  0.00  0.00    +0.000 C 
ATOM      6  C   UNL     1      -0.750  -0.524  -0.375  0.00  0.00    +0.000 C 
ENDROOT
BRANCH   6   7
ATOM      7  N   UNL     1      -2.127  -0.366   0.111  0.00  0.00    +0.000 N 
ATOM      8  C   UNL     1      -3.188   0.110  -0.728  0.00  0.00    +0.000 C 
ATOM      9  C   UNL     1      -4.560   0.288  -0.164  0.00  0.00    +0.000 C 
ATOM     10  O   UNL     1      -2.982   0.347  -1.949  0.00  0.00    +0.000 OA
ATOM     11  H   UNL     1      -2.358  -0.627   1.097  0.00  0.00    +0.000 HD
ENDBRANCH   6   7
BRANCH   1  13
ATOM     12  C   UNL     1       0.111   2.938   0.496  0.00  0.00    +0.000 C 
ATOM     13  O   UNL     1      -0.164   1.572   0.712  0.00  0.00    +0.000 OA
ENDBRANCH   1  13
BRANCH   4  14
ATOM     14  O   UNL     1       1.666  -2.122  -1.101  0.00  0.00    +0.000 OA
ATOM     15  H   UNL     1       1.695  -3.095  -0.910  0.00  0.00    +0.000 HD
ENDBRANCH   4  14
BRANCH   5  16
ATOM     16  O   UNL     1      -0.486  -2.728   0.558  0.00  0.00    +0.000 OA
ATOM     17  H   UNL     1      -0.106  -3.205   1.341  0.00  0.00    +0.000 HD
ENDBRANCH   5  16
BRANCH   3  18
ATOM     18  C   UNL     1       3.529   0.024  -0.416  0.00  0.00    +0.000 C 
BRANCH  18  19
ATOM     19  O   UNL     1       4.345  -0.643   0.509  0.00  0.00    +0.000 OA
ATOM     20  H   UNL     1       4.428  -0.045   1.298  0.00  0.00    +0.000 HD
ENDBRANCH  18  19
ENDBRANCH   3  18
TORSDOF 6
