REMARK  Name = 439281
REMARK  8 active torsions:
REMARK  status: ('A' for Active; 'I' for Inactive)
REMARK    1  A    between atoms: C_1  and  C_2
REMARK    2  A    between atoms: C_2  and  O_3
REMARK    3  A    between atoms: N_4  and  C_5
REMARK    4  A    between atoms: C_6  and  O_7
REMARK    5  A    between atoms: C_9  and  C_10
REMARK    6  A    between atoms: C_10  and  O_11
REMARK    7  A    between atoms: C_12  and  O_13
REMARK    8  A    between atoms: C_14  and  O_15
REMARK                            x       y       z     vdW  Elec       q    Type
REMARK                         _______ _______ _______ _____ _____    ______ ____
ROOT
ATOM      1  C   UNL     1      -0.752  -0.418   0.219  0.00  0.00    +0.000 C 
ATOM      2  C   UNL     1      -1.054   0.967  -0.392  0.00  0.00    +0.000 C 
ATOM      3  O   UNL     1      -0.894   2.002   0.568  0.00  0.00    +0.000 OA
ATOM      4  C   UNL     1      -1.805   1.869   1.650  0.00  0.00    +0.000 C 
ATOM      5  C   UNL     1      -1.556   0.541   2.414  0.00  0.00    +0.000 C 
ATOM      6  C   UNL     1      -1.649  -0.653   1.447  0.00  0.00    +0.000 C 
ENDROOT
BRANCH   1   9
ATOM      7  C   UNL     1       3.042  -0.737   0.306  0.00  0.00    +0.000 C 
ATOM      8  C   UNL     1       1.642  -0.697  -0.213  0.00  0.00    +0.000 C 
ATOM      9  N   UNL     1       0.658  -0.503   0.613  0.00  0.00    +0.000 NA
BRANCH   8  10
ATOM     10  O   UNL     1       1.405  -0.842  -1.580  0.00  0.00    +0.000 OA
ATOM     11  H   UNL     1       2.167  -0.979  -2.232  0.00  0.00    +0.000 HD
ENDBRANCH   8  10
ENDBRANCH   1   9
BRANCH   2  12
ATOM     12  O   UNL     1      -2.341   0.986  -0.956  0.00  0.00    +0.000 OA
ATOM     13  H   UNL     1      -2.432   1.861  -1.416  0.00  0.00    +0.000 HD
ENDBRANCH   2  12
BRANCH   5  14
ATOM     14  O   UNL     1      -2.463   0.378   3.477  0.00  0.00    +0.000 OA
ATOM     15  H   UNL     1      -3.380   0.384   3.095  0.00  0.00    +0.000 HD
ENDBRANCH   5  14
BRANCH   6  16
ATOM     16  O   UNL     1      -1.270  -1.829   2.116  0.00  0.00    +0.000 OA
ATOM     17  H   UNL     1      -1.568  -2.588   1.550  0.00  0.00    +0.000 HD
ENDBRANCH   6  16
BRANCH   4  18
ATOM     18  C   UNL     1      -1.620   3.086   2.571  0.00  0.00    +0.000 C 
BRANCH  18  19
ATOM     19  O   UNL     1      -2.610   3.132   3.563  0.00  0.00    +0.000 OA
ATOM     20  H   UNL     1      -3.445   3.432   3.119  0.00  0.00    +0.000 HD
ENDBRANCH  18  19
ENDBRANCH   4  18
TORSDOF 7
