REMARK  Name = 5317448
REMARK  6 active torsions:
REMARK  status: ('A' for Active; 'I' for Inactive)
REMARK    1  A    between atoms: N_1  and  C_2
REMARK    2  A    between atoms: C_3  and  O_4
REMARK    3  A    between atoms: C_6  and  C_7
REMARK    4  A    between atoms: C_7  and  O_8
REMARK    5  A    between atoms: C_9  and  O_10
REMARK    6  A    between atoms: C_11  and  O_12
REMARK                            x       y       z     vdW  Elec       q    Type
REMARK                         _______ _______ _______ _____ _____    ______ ____
ROOT
ATOM      1  C   UNL     1      -1.557  -0.112   0.325  0.00  0.00    +0.000 C 
ATOM      2  C   UNL     1      -0.775  -1.429   0.547  0.00  0.00    +0.000 C 
ATOM      3  O   UNL     1       0.589  -1.174   0.856  0.00  0.00    +0.000 OA
ATOM      4  C   UNL     1       1.247  -0.489  -0.201  0.00  0.00    +0.000 C 
ATOM      5  C   UNL     1       0.636   0.915  -0.418  0.00  0.00    +0.000 C 
ATOM      6  C   UNL     1      -0.859   0.754  -0.753  0.00  0.00    +0.000 C 
ENDROOT
BRANCH   1   7
ATOM      7  N   UNL     1      -2.951  -0.394  -0.028  0.00  0.00    +0.000 NA
ATOM      8  H   UNL     1      -3.493   0.499   0.015  0.00  0.00    +0.000 HD
ATOM      9  H   UNL     1      -3.004  -0.738  -1.014  0.00  0.00    +0.000 HD
ENDBRANCH   1   7
BRANCH   2  10
ATOM     10  O   UNL     1      -0.874  -2.287  -0.566  0.00  0.00    +0.000 OA
ATOM     11  H   UNL     1      -1.715  -2.805  -0.464  0.00  0.00    +0.000 HD
ENDBRANCH   2  10
BRANCH   5  12
ATOM     12  O   UNL     1       0.793   1.691   0.745  0.00  0.00    +0.000 OA
ATOM     13  H   UNL     1       0.866   2.638   0.455  0.00  0.00    +0.000 HD
ENDBRANCH   5  12
BRANCH   6  14
ATOM     14  O   UNL     1      -1.483   2.006  -0.902  0.00  0.00    +0.000 OA
ATOM     15  H   UNL     1      -1.550   2.426  -0.006  0.00  0.00    +0.000 HD
ENDBRANCH   6  14
BRANCH   4  16
ATOM     16  C   UNL     1       2.752  -0.422   0.097  0.00  0.00    +0.000 C 
BRANCH  16  17
ATOM     17  O   UNL     1       2.991   0.106   1.376  0.00  0.00    +0.000 OA
ATOM     18  H   UNL     1       3.334   1.030   1.252  0.00  0.00    +0.000 HD
ENDBRANCH  16  17
ENDBRANCH   4  16
TORSDOF 6
