REMARK  Name = 6420074
REMARK  8 active torsions:
REMARK  status: ('A' for Active; 'I' for Inactive)
REMARK    1  A    between atoms: O_2  and  N_3
REMARK    2  A    between atoms: N_4  and  C_31
REMARK    3  A    between atoms: N_7  and  C_9
REMARK    4  A    between atoms: C_11  and  O_13
REMARK    5  A    between atoms: C_16  and  C_18
REMARK    6  A    between atoms: C_18  and  O_21
REMARK    7  A    between atoms: C_23  and  O_25
REMARK    8  A    between atoms: C_27  and  O_29
REMARK                            x       y       z     vdW  Elec       q    Type
REMARK                         _______ _______ _______ _____ _____    ______ ____
ROOT
ATOM      1  C   UNL     1       0.738   0.637  -0.439  0.00  0.00    +0.000 C 
ATOM      2  C   UNL     1       0.734  -0.582  -1.385  0.00  0.00    +0.000 C 
ATOM      3  O   UNL     1       2.022  -0.782  -1.946  0.00  0.00    +0.000 OA
ATOM      4  C   UNL     1       2.954  -1.121  -0.933  0.00  0.00    +0.000 C 
ATOM      5  C   UNL     1       3.155   0.071   0.032  0.00  0.00    +0.000 C 
ATOM      6  C   UNL     1       1.803   0.444   0.660  0.00  0.00    +0.000 C 
ENDROOT
BRANCH   1  11
ATOM      7  N   UNL     1      -3.195   1.128   1.143  0.00  0.00    +0.000 NA
ATOM      8  N   UNL     1      -2.515   2.191   0.947  0.00  0.00    +0.000 N 
ATOM      9  C   UNL     1      -1.214   2.085   0.336  0.00  0.00    +0.000 C 
ATOM     10  O   UNL     1      -0.620   3.126  -0.059  0.00  0.00    +0.000 OA
ATOM     11  N   UNL     1      -0.587   0.801   0.169  0.00  0.00    +0.000 N 
ATOM     12  H   UNL     1      -1.028  -0.038   0.610  0.00  0.00    +0.000 HD
ATOM     13  C   UNL     1      -3.089   3.509   1.246  0.00  0.00    +0.000 C 
BRANCH   7  15
ATOM     14  H   UNL     1      -4.978   0.297   1.811  0.00  0.00    +0.000 HD
ATOM     15  O   UNL     1      -4.468   1.160   1.669  0.00  0.00    +0.000 OA
ENDBRANCH   7  15
ENDBRANCH   1  11
BRANCH   2  16
ATOM     16  O   UNL     1      -0.180  -0.346  -2.422  0.00  0.00    +0.000 OA
ATOM     17  H   UNL     1      -0.234  -1.188  -2.945  0.00  0.00    +0.000 HD
ENDBRANCH   2  16
BRANCH   5  18
ATOM     18  O   UNL     1       3.672   1.182  -0.662  0.00  0.00    +0.000 OA
ATOM     19  H   UNL     1       4.660   1.143  -0.582  0.00  0.00    +0.000 HD
ENDBRANCH   5  18
BRANCH   6  20
ATOM     20  O   UNL     1       1.948   1.622   1.413  0.00  0.00    +0.000 OA
ATOM     21  H   UNL     1       1.214   1.630   2.082  0.00  0.00    +0.000 HD
ENDBRANCH   6  20
BRANCH   4  22
ATOM     22  C   UNL     1       4.278  -1.537  -1.589  0.00  0.00    +0.000 C 
BRANCH  22  23
ATOM     23  O   UNL     1       4.091  -2.676  -2.386  0.00  0.00    +0.000 OA
ATOM     24  H   UNL     1       4.035  -3.450  -1.767  0.00  0.00    +0.000 HD
ENDBRANCH  22  23
ENDBRANCH   4  22
TORSDOF 7
