REMARK  Name = 445621
REMARK  6 active torsions:
REMARK  status: ('A' for Active; 'I' for Inactive)
REMARK    1  A    between atoms: N_1  and  C_2
REMARK    2  A    between atoms: C_3  and  O_4
REMARK    3  A    between atoms: C_6  and  C_7
REMARK    4  A    between atoms: C_7  and  O_8
REMARK    5  A    between atoms: C_9  and  O_10
REMARK    6  A    between atoms: C_11  and  O_12
REMARK                            x       y       z     vdW  Elec       q    Type
REMARK                         _______ _______ _______ _____ _____    ______ ____
ROOT
ATOM      1  C   UNL     1       0.704  -0.468  -1.155  0.00  0.00    +0.000 C 
ATOM      2  C   UNL     1      -0.809  -0.531  -0.808  0.00  0.00    +0.000 C 
ATOM      3  O   UNL     1      -1.067   0.176   0.392  0.00  0.00    +0.000 OA
ATOM      4  C   UNL     1      -0.912   1.585   0.228  0.00  0.00    +0.000 C 
ATOM      5  C   UNL     1       0.220   1.992  -0.764  0.00  0.00    +0.000 C 
ATOM      6  C   UNL     1       1.309   0.905  -0.772  0.00  0.00    +0.000 C 
ENDROOT
BRANCH   1   7
ATOM      7  N   UNL     1       1.470  -1.533  -0.498  0.00  0.00    +0.000 NA
ATOM      8  H   UNL     1       1.220  -2.451  -0.932  0.00  0.00    +0.000 HD
ATOM      9  H   UNL     1       1.209  -1.576   0.515  0.00  0.00    +0.000 HD
ENDBRANCH   1   7
BRANCH   2  10
ATOM     10  O   UNL     1      -1.226  -1.863  -0.661  0.00  0.00    +0.000 OA
ATOM     11  H   UNL     1      -2.210  -1.837  -0.532  0.00  0.00    +0.000 HD
ENDBRANCH   2  10
BRANCH   5  12
ATOM     12  O   UNL     1       0.766   3.225  -0.368  0.00  0.00    +0.000 OA
ATOM     13  H   UNL     1       1.153   3.646  -1.180  0.00  0.00    +0.000 HD
ENDBRANCH   5  12
BRANCH   6  14
ATOM     14  O   UNL     1       2.323   1.236  -1.687  0.00  0.00    +0.000 OA
ATOM     15  H   UNL     1       2.948   1.850  -1.220  0.00  0.00    +0.000 HD
ENDBRANCH   6  14
BRANCH   4  16
ATOM     16  C   UNL     1      -2.263   2.225  -0.137  0.00  0.00    +0.000 C 
BRANCH  16  17
ATOM     17  O   UNL     1      -2.173   3.625  -0.124  0.00  0.00    +0.000 OA
ATOM     18  H   UNL     1      -2.161   3.900   0.830  0.00  0.00    +0.000 HD
ENDBRANCH  16  17
ENDBRANCH   4  16
TORSDOF 6
