REMARK  Name = 446101
REMARK  8 active torsions:
REMARK  status: ('A' for Active; 'I' for Inactive)
REMARK    1  A    between atoms: C_1  and  C_2
REMARK    2  A    between atoms: N_4  and  C_5
REMARK    3  A    between atoms: C_6  and  O_7
REMARK    4  A    between atoms: C_9  and  C_10
REMARK    5  A    between atoms: C_10  and  O_11
REMARK    6  A    between atoms: C_12  and  O_13
REMARK    7  A    between atoms: O_13  and  S_14
REMARK    8  A    between atoms: C_18  and  O_19
REMARK                            x       y       z     vdW  Elec       q    Type
REMARK                         _______ _______ _______ _____ _____    ______ ____
ROOT
ATOM      1  C   UNL     1       0.948  -0.248  -0.353  0.00  0.00    +0.000 C 
ATOM      2  C   UNL     1       0.366  -1.654  -0.603  0.00  0.00    +0.000 C 
ATOM      3  O   UNL     1      -1.033  -1.582  -0.829  0.00  0.00    +0.000 OA
ATOM      4  C   UNL     1      -1.698  -1.113   0.333  0.00  0.00    +0.000 C 
ATOM      5  C   UNL     1      -1.304   0.354   0.632  0.00  0.00    +0.000 C 
ATOM      6  C   UNL     1       0.222   0.419   0.833  0.00  0.00    +0.000 C 
ENDROOT
BRANCH   1  10
ATOM      7  C   UNL     1       4.784   0.453  -0.219  0.00  0.00    +0.000 C 
ATOM      8  C   UNL     1       3.350   0.561  -0.621  0.00  0.00    +0.000 C 
ATOM      9  O   UNL     1       2.995   1.472  -1.416  0.00  0.00    +0.000 OA
ATOM     10  N   UNL     1       2.384  -0.346  -0.071  0.00  0.00    +0.000 N 
ATOM     11  H   UNL     1       2.704  -1.029   0.653  0.00  0.00    +0.000 HD
ENDBRANCH   1  10
BRANCH   2  12
ATOM     12  O   UNL     1       0.980  -2.203  -1.737  0.00  0.00    +0.000 OA
ATOM     13  H   UNL     1       0.662  -3.142  -1.802  0.00  0.00    +0.000 HD
ENDBRANCH   2  12
BRANCH   6  14
ATOM     14  O   UNL     1       0.624   1.759   0.956  0.00  0.00    +0.000 OA
ATOM     15  H   UNL     1       1.485   1.760   1.451  0.00  0.00    +0.000 HD
ENDBRANCH   6  14
BRANCH   4  16
ATOM     16  C   UNL     1      -3.213  -1.278   0.149  0.00  0.00    +0.000 C 
BRANCH  16  17
ATOM     17  O   UNL     1      -3.635  -0.680  -1.046  0.00  0.00    +0.000 OA
ATOM     18  H   UNL     1      -4.619  -0.801  -1.082  0.00  0.00    +0.000 HD
ENDBRANCH  16  17
ENDBRANCH   4  16
BRANCH   5  19
ATOM     19  O   UNL     1      -1.669   1.178  -0.462  0.00  0.00    +0.000 OA
BRANCH  19  20
ATOM     20  S   UNL     1      -2.607   2.488   0.071  0.00  0.00    +0.000 S 
ATOM     21  O   UNL     1      -2.849   3.414  -1.086  0.00  0.00    +0.000 OA
ATOM     22  O   UNL     1      -3.929   1.996   0.590  0.00  0.00    +0.000 OA
ATOM     23  O   UNL     1      -1.805   3.332   1.284  0.00  0.00    +0.000 OA
ENDBRANCH  19  20
ENDBRANCH   5  19
TORSDOF 7
