REMARK  Name = 91820057
REMARK  9 active torsions:
REMARK  status: ('A' for Active; 'I' for Inactive)
REMARK    1  A    between atoms: O_2  and  C_3
REMARK    2  A    between atoms: C_3  and  C_30
REMARK    3  A    between atoms: N_4  and  C_5
REMARK    4  A    between atoms: C_7  and  O_9
REMARK    5  A    between atoms: C_12  and  C_14
REMARK    6  A    between atoms: C_14  and  O_17
REMARK    7  A    between atoms: O_17  and  S_18
REMARK    8  A    between atoms: C_22  and  O_24
REMARK    9  A    between atoms: C_26  and  O_28
REMARK                            x       y       z     vdW  Elec       q    Type
REMARK                         _______ _______ _______ _____ _____    ______ ____
ROOT
ATOM      1  C   UNL     1       0.099  -1.554   0.606  0.00  0.00    +0.000 C 
ATOM      2  C   UNL     1      -0.288  -0.414   1.570  0.00  0.00    +0.000 C 
ATOM      3  O   UNL     1      -0.562   0.792   0.870  0.00  0.00    +0.000 OA
ATOM      4  C   UNL     1       0.583   1.263   0.177  0.00  0.00    +0.000 C 
ATOM      5  C   UNL     1       1.025   0.257  -0.915  0.00  0.00    +0.000 C 
ATOM      6  C   UNL     1       1.284  -1.127  -0.285  0.00  0.00    +0.000 C 
ENDROOT
BRANCH   1   8
ATOM      7  C   UNL     1       0.366  -3.966   0.947  0.00  0.00    +0.000 C 
ATOM      8  N   UNL     1       0.446  -2.745   1.385  0.00  0.00    +0.000 NA
ATOM      9  C   UNL     1       0.753  -5.096   1.847  0.00  0.00    +0.000 C 
BRANCH   7  11
ATOM     10  H   UNL     1      -0.197  -5.185  -0.675  0.00  0.00    +0.000 HD
ATOM     11  O   UNL     1      -0.114  -4.234  -0.334  0.00  0.00    +0.000 OA
ENDBRANCH   7  11
ENDBRANCH   1   8
BRANCH   2  12
ATOM     12  O   UNL     1       0.705  -0.222   2.548  0.00  0.00    +0.000 OA
ATOM     13  H   UNL     1       0.339   0.438   3.193  0.00  0.00    +0.000 HD
ENDBRANCH   2  12
BRANCH   5  14
ATOM     14  O   UNL     1       0.090   0.172  -1.967  0.00  0.00    +0.000 OA
ATOM     15  H   UNL     1      -0.798  -0.030  -1.577  0.00  0.00    +0.000 HD
ENDBRANCH   5  14
BRANCH   6  16
ATOM     16  O   UNL     1       1.497  -2.082  -1.291  0.00  0.00    +0.000 OA
ATOM     17  H   UNL     1       2.403  -1.913  -1.660  0.00  0.00    +0.000 HD
ENDBRANCH   6  16
BRANCH   4  18
ATOM     18  C   UNL     1       0.271   2.636  -0.428  0.00  0.00    +0.000 C 
BRANCH  18  19
ATOM     19  O   UNL     1      -0.009   3.546   0.610  0.00  0.00    +0.000 OA
BRANCH  19  20
ATOM     20  S   UNL     1      -0.360   5.056  -0.075  0.00  0.00    +0.000 S 
ATOM     21  O   UNL     1      -1.568   4.958  -0.966  0.00  0.00    +0.000 OA
ATOM     22  O   UNL     1       0.815   5.557  -0.868  0.00  0.00    +0.000 OA
ATOM     23  O   UNL     1      -0.685   6.145   1.161  0.00  0.00    +0.000 OA
ENDBRANCH  19  20
ENDBRANCH  18  19
ENDBRANCH   4  18
TORSDOF 8
