REMARK  Name = 449462
REMARK  6 active torsions:
REMARK  status: ('A' for Active; 'I' for Inactive)
REMARK    1  A    between atoms: N_1  and  C_2
REMARK    2  A    between atoms: C_3  and  O_4
REMARK    3  A    between atoms: C_6  and  C_7
REMARK    4  A    between atoms: C_7  and  O_8
REMARK    5  A    between atoms: C_9  and  O_10
REMARK    6  A    between atoms: C_11  and  O_12
REMARK                            x       y       z     vdW  Elec       q    Type
REMARK                         _______ _______ _______ _____ _____    ______ ____
ROOT
ATOM      1  C   UNL     1       0.786   1.064   0.047  0.00  0.00    +0.000 C 
ATOM      2  C   UNL     1       1.703   0.252   0.991  0.00  0.00    +0.000 C 
ATOM      3  O   UNL     1       1.215  -1.070   1.139  0.00  0.00    +0.000 OA
ATOM      4  C   UNL     1      -0.048  -1.069   1.783  0.00  0.00    +0.000 C 
ATOM      5  C   UNL     1      -1.107  -0.395   0.879  0.00  0.00    +0.000 C 
ATOM      6  C   UNL     1      -0.666   1.048   0.575  0.00  0.00    +0.000 C 
ENDROOT
BRANCH   1   7
ATOM      7  N   UNL     1       1.287   2.435  -0.085  0.00  0.00    +0.000 NA
ATOM      8  H   UNL     1       0.709   2.940  -0.796  0.00  0.00    +0.000 HD
ATOM      9  H   UNL     1       1.175   2.938   0.826  0.00  0.00    +0.000 HD
ENDBRANCH   1   7
BRANCH   2  10
ATOM     10  O   UNL     1       2.993   0.179   0.442  0.00  0.00    +0.000 OA
ATOM     11  H   UNL     1       3.457   1.027   0.671  0.00  0.00    +0.000 HD
ENDBRANCH   2  10
BRANCH   5  12
ATOM     12  O   UNL     1      -1.247  -1.105  -0.328  0.00  0.00    +0.000 OA
ATOM     13  H   UNL     1      -1.992  -1.749  -0.204  0.00  0.00    +0.000 HD
ENDBRANCH   5  12
BRANCH   6  14
ATOM     14  O   UNL     1      -1.522   1.627  -0.376  0.00  0.00    +0.000 OA
ATOM     15  H   UNL     1      -2.374   1.829   0.092  0.00  0.00    +0.000 HD
ENDBRANCH   6  14
BRANCH   4  16
ATOM     16  C   UNL     1      -0.425  -2.515   2.128  0.00  0.00    +0.000 C 
BRANCH  16  17
ATOM     17  O   UNL     1      -1.645  -2.548   2.816  0.00  0.00    +0.000 OA
ATOM     18  H   UNL     1      -1.832  -3.505   2.999  0.00  0.00    +0.000 HD
ENDBRANCH  16  17
ENDBRANCH   4  16
TORSDOF 6
