REMARK  Name = 448882
REMARK  9 active torsions:
REMARK  status: ('A' for Active; 'I' for Inactive)
REMARK    1  A    between atoms: O_2  and  C_3
REMARK    2  A    between atoms: C_3  and  C_30
REMARK    3  A    between atoms: N_4  and  C_5
REMARK    4  A    between atoms: C_7  and  O_9
REMARK    5  A    between atoms: O_9  and  C_10
REMARK    6  A    between atoms: C_15  and  C_17
REMARK    7  A    between atoms: C_17  and  O_20
REMARK    8  A    between atoms: C_22  and  O_24
REMARK    9  A    between atoms: C_26  and  O_28
REMARK                            x       y       z     vdW  Elec       q    Type
REMARK                         _______ _______ _______ _____ _____    ______ ____
ROOT
ATOM      1  C   UNL     1       0.434   0.298   0.544  0.00  0.00    +0.000 C 
ATOM      2  C   UNL     1      -0.405   1.274  -0.302  0.00  0.00    +0.000 C 
ATOM      3  O   UNL     1      -0.686   0.711  -1.572  0.00  0.00    +0.000 OA
ATOM      4  C   UNL     1      -1.477  -0.469  -1.500  0.00  0.00    +0.000 C 
ATOM      5  C   UNL     1      -0.881  -1.560  -0.565  0.00  0.00    +0.000 C 
ATOM      6  C   UNL     1      -0.358  -1.002   0.775  0.00  0.00    +0.000 C 
ENDROOT
BRANCH   1   8
ATOM      7  C   UNL     1       2.746  -0.496   0.427  0.00  0.00    +0.000 C 
ATOM      8  N   UNL     1       1.698   0.018  -0.144  0.00  0.00    +0.000 NA
ATOM      9  C   UNL     1       3.982  -0.732  -0.380  0.00  0.00    +0.000 C 
BRANCH   7  11
ATOM     10  H   UNL     1       3.558  -1.178   2.246  0.00  0.00    +0.000 HD
ATOM     11  O   UNL     1       2.740  -0.793   1.790  0.00  0.00    +0.000 OA
ENDBRANCH   7  11
ENDBRANCH   1   8
BRANCH   2  12
ATOM     12  O   UNL     1       0.344   2.460  -0.518  0.00  0.00    +0.000 OA
ATOM     13  C   UNL     1      -0.008   3.461   0.413  0.00  0.00    +0.000 C 
ENDBRANCH   2  12
BRANCH   5  14
ATOM     14  O   UNL     1      -1.818  -2.585  -0.347  0.00  0.00    +0.000 OA
ATOM     15  H   UNL     1      -1.316  -3.363   0.011  0.00  0.00    +0.000 HD
ENDBRANCH   5  14
BRANCH   6  16
ATOM     16  O   UNL     1      -1.423  -0.773   1.661  0.00  0.00    +0.000 OA
ATOM     17  H   UNL     1      -1.030  -0.686   2.569  0.00  0.00    +0.000 HD
ENDBRANCH   6  16
BRANCH   4  18
ATOM     18  C   UNL     1      -2.986  -0.166  -1.338  0.00  0.00    +0.000 C 
BRANCH  18  19
ATOM     19  O   UNL     1      -3.339   0.126  -0.013  0.00  0.00    +0.000 OA
ATOM     20  H   UNL     1      -3.755  -0.692   0.367  0.00  0.00    +0.000 HD
ENDBRANCH  18  19
ENDBRANCH   4  18
TORSDOF 7
