REMARK  Name = 12917651
REMARK  11 active torsions:
REMARK  status: ('A' for Active; 'I' for Inactive)
REMARK    1  A    between atoms: C_1  and  C_2
REMARK    2  A    between atoms: C_2  and  O_3
REMARK    3  A    between atoms: N_4  and  C_5
REMARK    4  A    between atoms: C_6  and  O_7
REMARK    5  A    between atoms: C_9  and  C_10
REMARK    6  A    between atoms: C_10  and  O_11
REMARK    7  A    between atoms: C_12  and  O_13
REMARK    8  A    between atoms: C_14  and  O_15
REMARK    9  A    between atoms: O_15  and  C_16
REMARK   10  A    between atoms: C_16  and  C_17
REMARK   11  A    between atoms: C_16  and  C_18
REMARK                            x       y       z     vdW  Elec       q    Type
REMARK                         _______ _______ _______ _____ _____    ______ ____
ROOT
ATOM      1  C   UNL     1      -0.743   0.542   0.822  0.00  0.00    +0.000 C 
ATOM      2  C   UNL     1      -0.260   0.695   2.281  0.00  0.00    +0.000 C 
ATOM      3  O   UNL     1       1.133   0.946   2.305  0.00  0.00    +0.000 OA
ATOM      4  C   UNL     1       1.858  -0.174   1.826  0.00  0.00    +0.000 C 
ATOM      5  C   UNL     1       1.538  -0.417   0.331  0.00  0.00    +0.000 C 
ATOM      6  C   UNL     1       0.019  -0.609   0.144  0.00  0.00    +0.000 C 
ENDROOT
BRANCH   1   9
ATOM      7  C   UNL     1      -4.547   0.702   0.712  0.00  0.00    +0.000 C 
ATOM      8  C   UNL     1      -3.119   1.140   0.761  0.00  0.00    +0.000 C 
ATOM      9  N   UNL     1      -2.177   0.245   0.783  0.00  0.00    +0.000 NA
BRANCH   8  10
ATOM     10  O   UNL     1      -2.811   2.500   0.747  0.00  0.00    +0.000 OA
ATOM     11  H   UNL     1      -3.540   3.202   0.715  0.00  0.00    +0.000 HD
ENDBRANCH   8  10
ENDBRANCH   1   9
BRANCH   2  12
ATOM     12  O   UNL     1      -0.905   1.787   2.882  0.00  0.00    +0.000 OA
ATOM     13  H   UNL     1      -1.746   1.447   3.287  0.00  0.00    +0.000 HD
ENDBRANCH   2  12
BRANCH   5  14
ATOM     14  O   UNL     1       2.213  -1.563  -0.121  0.00  0.00    +0.000 OA
ATOM     15  H   UNL     1       2.345  -1.455  -1.099  0.00  0.00    +0.000 HD
ENDBRANCH   5  14
BRANCH   4  16
ATOM     16  C   UNL     1       3.352   0.107   2.044  0.00  0.00    +0.000 C 
BRANCH  16  17
ATOM     17  O   UNL     1       4.115  -1.052   1.834  0.00  0.00    +0.000 OA
ATOM     18  H   UNL     1       4.580  -0.943   0.964  0.00  0.00    +0.000 HD
ENDBRANCH  16  17
ENDBRANCH   4  16
BRANCH   6  19
ATOM     19  O   UNL     1      -0.290  -0.602  -1.243  0.00  0.00    +0.000 OA
BRANCH  19  20
ATOM     20  C   UNL     1      -0.601  -1.897  -1.725  0.00  0.00    +0.000 C 
ATOM     21  C   UNL     1      -0.336  -1.935  -3.228  0.00  0.00    +0.000 C 
BRANCH  20  22
ATOM     22  C   UNL     1      -2.047  -2.212  -1.461  0.00  0.00    +0.000 C 
ATOM     23  O   UNL     1      -2.365  -3.280  -0.873  0.00  0.00    +0.000 OA
ATOM     24  O   UNL     1      -3.041  -1.333  -1.871  0.00  0.00    +0.000 OA
ENDBRANCH  20  22
ENDBRANCH  19  20
ENDBRANCH   6  19
TORSDOF 9
