REMARK  Name = 12302999
REMARK  6 active torsions:
REMARK  status: ('A' for Active; 'I' for Inactive)
REMARK    1  A    between atoms: N_1  and  C_2
REMARK    2  A    between atoms: C_3  and  O_4
REMARK    3  A    between atoms: C_6  and  C_7
REMARK    4  A    between atoms: C_7  and  O_8
REMARK    5  A    between atoms: C_9  and  O_10
REMARK    6  A    between atoms: C_11  and  O_12
REMARK                            x       y       z     vdW  Elec       q    Type
REMARK                         _______ _______ _______ _____ _____    ______ ____
ROOT
ATOM      1  C   UNL     1       0.842   0.681  -0.494  0.00  0.00    +0.000 C 
ATOM      2  C   UNL     1       1.319  -0.685  -1.075  0.00  0.00    +0.000 C 
ATOM      3  O   UNL     1       1.728  -1.613  -0.075  0.00  0.00    +0.000 OA
ATOM      4  C   UNL     1       2.481  -0.978   0.943  0.00  0.00    +0.000 C 
ATOM      5  C   UNL     1       1.557  -0.086   1.814  0.00  0.00    +0.000 C 
ATOM      6  C   UNL     1       0.397   0.510   0.972  0.00  0.00    +0.000 C 
ENDROOT
BRANCH   1   7
ATOM      7  N   UNL     1      -0.226   1.266  -1.315  0.00  0.00    +0.000 N 
ATOM      8  H   UNL     1      -1.069   0.647  -1.330  0.00  0.00    +0.000 HD
ATOM      9  H   UNL     1      -0.495   2.201  -0.931  0.00  0.00    +0.000 HD
ATOM     10  H   UNL     1       0.117   1.400  -2.294  0.00  0.00    +0.000 HD
ENDBRANCH   1   7
BRANCH   2  11
ATOM     11  O   UNL     1       2.362  -0.474  -1.991  0.00  0.00    +0.000 OA
ATOM     12  H   UNL     1       2.546  -1.353  -2.414  0.00  0.00    +0.000 HD
ENDBRANCH   2  11
BRANCH   5  13
ATOM     13  O   UNL     1       2.323   0.949   2.376  0.00  0.00    +0.000 OA
ATOM     14  H   UNL     1       1.806   1.307   3.144  0.00  0.00    +0.000 HD
ENDBRANCH   5  13
BRANCH   6  15
ATOM     15  O   UNL     1      -0.721  -0.343   1.027  0.00  0.00    +0.000 OA
ATOM     16  H   UNL     1      -1.159  -0.186   1.904  0.00  0.00    +0.000 HD
ENDBRANCH   6  15
BRANCH   4  17
ATOM     17  C   UNL     1       3.175  -2.047   1.797  0.00  0.00    +0.000 C 
BRANCH  17  18
ATOM     18  O   UNL     1       4.044  -2.815   1.008  0.00  0.00    +0.000 OA
ATOM     19  H   UNL     1       4.851  -2.259   0.849  0.00  0.00    +0.000 HD
ENDBRANCH  17  18
ENDBRANCH   4  17
TORSDOF 6
