REMARK  Name = 12302999
REMARK  6 active torsions:
REMARK  status: ('A' for Active; 'I' for Inactive)
REMARK    1  A    between atoms: N_1  and  C_2
REMARK    2  A    between atoms: C_3  and  O_4
REMARK    3  A    between atoms: C_6  and  C_7
REMARK    4  A    between atoms: C_7  and  O_8
REMARK    5  A    between atoms: C_9  and  O_10
REMARK    6  A    between atoms: C_11  and  O_12
REMARK                            x       y       z     vdW  Elec       q    Type
REMARK                         _______ _______ _______ _____ _____    ______ ____
ROOT
ATOM      1  C   UNL     1       1.413   1.273   0.668  0.00  0.00    +0.000 C 
ATOM      2  C   UNL     1       0.383   0.971   1.781  0.00  0.00    +0.000 C 
ATOM      3  O   UNL     1      -0.060  -0.376   1.713  0.00  0.00    +0.000 OA
ATOM      4  C   UNL     1      -0.740  -0.651   0.495  0.00  0.00    +0.000 C 
ATOM      5  C   UNL     1       0.203  -0.461  -0.719  0.00  0.00    +0.000 C 
ATOM      6  C   UNL     1       0.785   0.962  -0.707  0.00  0.00    +0.000 C 
ENDROOT
BRANCH   1   7
ATOM      7  N   UNL     1       2.624   0.472   0.879  0.00  0.00    +0.000 NA
ATOM      8  H   UNL     1       3.022   0.713   1.817  0.00  0.00    +0.000 HD
ATOM      9  H   UNL     1       3.348   0.772   0.186  0.00  0.00    +0.000 HD
ENDBRANCH   1   7
BRANCH   2  10
ATOM     10  O   UNL     1      -0.708   1.858   1.724  0.00  0.00    +0.000 OA
ATOM     11  H   UNL     1      -0.374   2.744   2.021  0.00  0.00    +0.000 HD
ENDBRANCH   2  10
BRANCH   5  12
ATOM     12  O   UNL     1      -0.512  -0.661  -1.912  0.00  0.00    +0.000 OA
ATOM     13  H   UNL     1       0.153  -0.887  -2.614  0.00  0.00    +0.000 HD
ENDBRANCH   5  12
BRANCH   6  14
ATOM     14  O   UNL     1       1.736   1.095  -1.732  0.00  0.00    +0.000 OA
ATOM     15  H   UNL     1       1.904   2.068  -1.841  0.00  0.00    +0.000 HD
ENDBRANCH   6  14
BRANCH   4  16
ATOM     16  C   UNL     1      -1.266  -2.095   0.572  0.00  0.00    +0.000 C 
BRANCH  16  17
ATOM     17  O   UNL     1      -2.114  -2.388  -0.507  0.00  0.00    +0.000 OA
ATOM     18  H   UNL     1      -2.975  -1.930  -0.325  0.00  0.00    +0.000 HD
ENDBRANCH  16  17
ENDBRANCH   4  16
TORSDOF 6
