REMARK  Name = 5462244
REMARK  10 active torsions:
REMARK  status: ('A' for Active; 'I' for Inactive)
REMARK    1  A    between atoms: C_1  and  C_2
REMARK    2  A    between atoms: N_4  and  C_5
REMARK    3  A    between atoms: C_6  and  O_7
REMARK    4  A    between atoms: C_9  and  C_10
REMARK    5  A    between atoms: C_10  and  O_11
REMARK    6  A    between atoms: C_12  and  O_13
REMARK    7  A    between atoms: C_14  and  O_15
REMARK    8  A    between atoms: O_15  and  C_16
REMARK    9  A    between atoms: C_16  and  C_17
REMARK   10  A    between atoms: C_16  and  C_18
REMARK                            x       y       z     vdW  Elec       q    Type
REMARK                         _______ _______ _______ _____ _____    ______ ____
ROOT
ATOM      1  C   UNL     1       0.487   1.135   1.803  0.00  0.00    +0.000 C 
ATOM      2  C   UNL     1       0.780   2.156   2.920  0.00  0.00    +0.000 C 
ATOM      3  O   UNL     1       1.857   2.998   2.546  0.00  0.00    +0.000 OA
ATOM      4  C   UNL     1       3.057   2.251   2.430  0.00  0.00    +0.000 C 
ATOM      5  C   UNL     1       2.944   1.228   1.272  0.00  0.00    +0.000 C 
ATOM      6  C   UNL     1       1.747   0.294   1.519  0.00  0.00    +0.000 C 
ENDROOT
BRANCH   1  10
ATOM      7  C   UNL     1      -2.679  -1.140   1.737  0.00  0.00    +0.000 C 
ATOM      8  C   UNL     1      -1.656  -0.145   1.296  0.00  0.00    +0.000 C 
ATOM      9  O   UNL     1      -1.714   0.333   0.131  0.00  0.00    +0.000 OA
ATOM     10  N   UNL     1      -0.622   0.263   2.203  0.00  0.00    +0.000 N 
ATOM     11  H   UNL     1      -0.584  -0.189   3.145  0.00  0.00    +0.000 HD
ENDBRANCH   1  10
BRANCH   2  12
ATOM     12  O   UNL     1      -0.361   2.945   3.123  0.00  0.00    +0.000 OA
ATOM     13  H   UNL     1      -0.172   3.513   3.915  0.00  0.00    +0.000 HD
ENDBRANCH   2  12
BRANCH   5  14
ATOM     14  O   UNL     1       4.115   0.454   1.192  0.00  0.00    +0.000 OA
ATOM     15  H   UNL     1       4.704   0.882   0.518  0.00  0.00    +0.000 HD
ENDBRANCH   5  14
BRANCH   4  16
ATOM     16  C   UNL     1       4.221   3.230   2.219  0.00  0.00    +0.000 C 
BRANCH  16  17
ATOM     17  O   UNL     1       4.015   4.020   1.077  0.00  0.00    +0.000 OA
ATOM     18  H   UNL     1       4.460   3.556   0.321  0.00  0.00    +0.000 HD
ENDBRANCH  16  17
ENDBRANCH   4  16
BRANCH   6  19
ATOM     19  O   UNL     1       1.541  -0.491   0.353  0.00  0.00    +0.000 OA
BRANCH  19  20
ATOM     20  C   UNL     1       1.327  -1.860   0.655  0.00  0.00    +0.000 C 
ATOM     21  C   UNL     1       2.665  -2.600   0.740  0.00  0.00    +0.000 C 
BRANCH  20  22
ATOM     22  C   UNL     1       0.490  -2.466  -0.432  0.00  0.00    +0.000 C 
ATOM     23  O   UNL     1       0.723  -2.198  -1.641  0.00  0.00    +0.000 OA
ATOM     24  O   UNL     1      -0.522  -3.362  -0.112  0.00  0.00    +0.000 OA
ENDBRANCH  20  22
ENDBRANCH  19  20
ENDBRANCH   6  19
TORSDOF 8
