REMARK  Name = 6420074
REMARK  9 active torsions:
REMARK  status: ('A' for Active; 'I' for Inactive)
REMARK    1  A    between atoms: O_2  and  C_3
REMARK    2  A    between atoms: N_4  and  C_5
REMARK    3  A    between atoms: C_7  and  O_9
REMARK    4  A    between atoms: C_11  and  O_13
REMARK    5  A    between atoms: C_15  and  C_17
REMARK    6  A    between atoms: C_17  and  O_20
REMARK    7  A    between atoms: C_23  and  O_25
REMARK    8  A    between atoms: N_27  and  N_28
REMARK    9  A    between atoms: N_27  and  C_30
REMARK                            x       y       z     vdW  Elec       q    Type
REMARK                         _______ _______ _______ _____ _____    ______ ____
ROOT
ATOM      1  C   UNL     1       0.586   1.538  -0.880  0.00  0.00    +0.000 C 
ATOM      2  C   UNL     1       0.471   1.817   0.635  0.00  0.00    +0.000 C 
ATOM      3  C   UNL     1       0.910   0.578   1.441  0.00  0.00    +0.000 C 
ATOM      4  C   UNL     1       2.279   0.066   0.932  0.00  0.00    +0.000 C 
ATOM      5  O   UNL     1       2.216  -0.214  -0.457  0.00  0.00    +0.000 OA
ATOM      6  C   UNL     1       1.984   0.974  -1.196  0.00  0.00    +0.000 C 
ENDROOT
BRANCH   1   8
ATOM      7  C   UNL     1      -1.691   0.859  -1.478  0.00  0.00    +0.000 C 
ATOM      8  N   UNL     1      -0.434   0.575  -1.304  0.00  0.00    +0.000 NA
ATOM      9  N   UNL     1      -2.613  -0.178  -1.879  0.00  0.00    +0.000 N 
ATOM     10  C   UNL     1      -4.046  -0.015  -1.657  0.00  0.00    +0.000 C 
BRANCH   7  12
ATOM     11  H   UNL     1      -3.099   2.443  -1.429  0.00  0.00    +0.000 HD
ATOM     12  O   UNL     1      -2.140   2.165  -1.267  0.00  0.00    +0.000 OA
ENDBRANCH   7  12
BRANCH   9  13
ATOM     13  N   UNL     1      -2.181  -1.347  -2.537  0.00  0.00    +0.000 NA
ATOM     14  O   UNL     1      -0.993  -1.514  -2.883  0.00  0.00    +0.000 OA
ENDBRANCH   9  13
ENDBRANCH   1   8
BRANCH   2  15
ATOM     15  O   UNL     1       1.276   2.916   0.983  0.00  0.00    +0.000 OA
ATOM     16  H   UNL     1       0.802   3.729   0.669  0.00  0.00    +0.000 HD
ENDBRANCH   2  15
BRANCH   3  17
ATOM     17  O   UNL     1       0.997   0.900   2.806  0.00  0.00    +0.000 OA
ATOM     18  H   UNL     1       0.065   0.968   3.143  0.00  0.00    +0.000 HD
ENDBRANCH   3  17
BRANCH   6  19
ATOM     19  O   UNL     1       2.064   0.686  -2.565  0.00  0.00    +0.000 OA
ATOM     20  H   UNL     1       3.003   0.416  -2.741  0.00  0.00    +0.000 HD
ENDBRANCH   6  19
BRANCH   4  21
ATOM     21  C   UNL     1       2.685  -1.219   1.668  0.00  0.00    +0.000 C 
BRANCH  21  22
ATOM     22  O   UNL     1       3.918  -1.687   1.192  0.00  0.00    +0.000 OA
ATOM     23  H   UNL     1       4.615  -1.098   1.582  0.00  0.00    +0.000 HD
ENDBRANCH  21  22
ENDBRANCH   4  21
TORSDOF 8
