REMARK  Name = 99461
REMARK  16 active torsions:
REMARK  status: ('A' for Active; 'I' for Inactive)
REMARK    1  A    between atoms: O_2  and  C_3
REMARK    2  A    between atoms: C_3  and  C_47
REMARK    3  A    between atoms: N_4  and  C_5
REMARK    4  A    between atoms: C_7  and  O_9
REMARK    5  A    between atoms: O_9  and  C_10
REMARK    6  A    between atoms: C_10  and  C_12
REMARK    7  A    between atoms: C_17  and  C_19
REMARK    8  A    between atoms: C_19  and  O_22
REMARK    9  A    between atoms: O_22  and  C_23
REMARK   10  A    between atoms: C_23  and  C_25
REMARK   11  A    between atoms: C_29  and  O_31
REMARK   12  A    between atoms: O_31  and  C_32
REMARK   13  A    between atoms: C_32  and  C_34
REMARK   14  A    between atoms: C_38  and  O_40
REMARK   15  A    between atoms: O_40  and  C_41
REMARK   16  A    between atoms: C_41  and  C_43
REMARK                            x       y       z     vdW  Elec       q    Type
REMARK                         _______ _______ _______ _____ _____    ______ ____
ROOT
ATOM      1  C   UNL     1      -1.931  -0.770  -0.863  0.00  0.00    +0.000 C 
ATOM      2  C   UNL     1      -2.934  -0.186   0.156  0.00  0.00    +0.000 C 
ATOM      3  O   UNL     1      -3.083   1.204  -0.067  0.00  0.00    +0.000 OA
ATOM      4  C   UNL     1      -1.879   1.895   0.224  0.00  0.00    +0.000 C 
ATOM      5  C   UNL     1      -0.764   1.469  -0.761  0.00  0.00    +0.000 C 
ATOM      6  C   UNL     1      -0.575  -0.058  -0.711  0.00  0.00    +0.000 C 
ENDROOT
BRANCH   1   8
ATOM      7  C   UNL     1      -2.419  -3.139  -1.254  0.00  0.00    +0.000 C 
ATOM      8  N   UNL     1      -1.751  -2.207  -0.643  0.00  0.00    +0.000 NA
ATOM      9  C   UNL     1      -2.156  -4.571  -0.918  0.00  0.00    +0.000 C 
BRANCH   7  11
ATOM     10  H   UNL     1      -3.942  -3.536  -2.654  0.00  0.00    +0.000 HD
ATOM     11  O   UNL     1      -3.400  -2.816  -2.192  0.00  0.00    +0.000 OA
ENDBRANCH   7  11
ENDBRANCH   1   8
BRANCH   2  12
ATOM     12  O   UNL     1      -4.215  -0.794  -0.014  0.00  0.00    +0.000 OA
BRANCH  12  13
ATOM     13  C   UNL     1      -4.658  -1.905   0.715  0.00  0.00    +0.000 C 
ATOM     14  O   UNL     1      -3.938  -2.422   1.612  0.00  0.00    +0.000 OA
ATOM     15  C   UNL     1      -5.977  -2.517   0.387  0.00  0.00    +0.000 C 
ENDBRANCH  12  13
ENDBRANCH   2  12
BRANCH   4  16
ATOM     16  C   UNL     1      -2.171   3.403   0.124  0.00  0.00    +0.000 C 
BRANCH  16  17
ATOM     17  O   UNL     1      -1.028   4.189   0.459  0.00  0.00    +0.000 OA
BRANCH  17  18
ATOM     18  C   UNL     1      -0.556   4.353   1.765  0.00  0.00    +0.000 C 
ATOM     19  O   UNL     1      -1.185   3.869   2.746  0.00  0.00    +0.000 OA
ATOM     20  C   UNL     1       0.728   5.073   1.996  0.00  0.00    +0.000 C 
ENDBRANCH  17  18
ENDBRANCH  16  17
ENDBRANCH   4  16
BRANCH   5  21
ATOM     21  O   UNL     1       0.461   2.111  -0.398  0.00  0.00    +0.000 OA
BRANCH  21  22
ATOM     22  C   UNL     1       1.502   2.376  -1.294  0.00  0.00    +0.000 C 
ATOM     23  O   UNL     1       1.382   2.117  -2.522  0.00  0.00    +0.000 OA
ATOM     24  C   UNL     1       2.741   3.037  -0.795  0.00  0.00    +0.000 C 
ENDBRANCH  21  22
ENDBRANCH   5  21
BRANCH   6  25
ATOM     25  O   UNL     1       0.305  -0.453  -1.765  0.00  0.00    +0.000 OA
BRANCH  25  26
ATOM     26  C   UNL     1       1.139  -1.576  -1.709  0.00  0.00    +0.000 C 
ATOM     27  O   UNL     1       1.189  -2.296  -0.675  0.00  0.00    +0.000 OA
ATOM     28  C   UNL     1       1.950  -1.944  -2.904  0.00  0.00    +0.000 C 
ENDBRANCH  25  26
ENDBRANCH   6  25
TORSDOF 11
