REMARK  Name = 24139
REMARK  7 active torsions:
REMARK  status: ('A' for Active; 'I' for Inactive)
REMARK    1  A    between atoms: C_1  and  C_2
REMARK    2  A    between atoms: N_4  and  C_5
REMARK    3  A    between atoms: C_6  and  O_7
REMARK    4  A    between atoms: C_9  and  C_10
REMARK    5  A    between atoms: C_10  and  O_11
REMARK    6  A    between atoms: C_12  and  O_13
REMARK    7  A    between atoms: C_14  and  O_15
REMARK                            x       y       z     vdW  Elec       q    Type
REMARK                         _______ _______ _______ _____ _____    ______ ____
ROOT
ATOM      1  C   UNL     1       0.628   0.696  -0.288  0.00  0.00    +0.000 C 
ATOM      2  C   UNL     1       0.227   2.017  -0.978  0.00  0.00    +0.000 C 
ATOM      3  O   UNL     1      -0.420   2.884  -0.061  0.00  0.00    +0.000 OA
ATOM      4  C   UNL     1      -1.647   2.324   0.376  0.00  0.00    +0.000 C 
ATOM      5  C   UNL     1      -1.399   1.023   1.176  0.00  0.00    +0.000 C 
ATOM      6  C   UNL     1      -0.620   0.020   0.304  0.00  0.00    +0.000 C 
ENDROOT
BRANCH   1  10
ATOM      7  C   UNL     1       3.283  -1.240  -2.393  0.00  0.00    +0.000 C 
ATOM      8  C   UNL     1       2.694  -0.376  -1.326  0.00  0.00    +0.000 C 
ATOM      9  O   UNL     1       3.456   0.216  -0.514  0.00  0.00    +0.000 OA
ATOM     10  N   UNL     1       1.272  -0.200  -1.254  0.00  0.00    +0.000 N 
ATOM     11  H   UNL     1       0.682  -0.636  -2.000  0.00  0.00    +0.000 HD
ENDBRANCH   1  10
BRANCH   2  12
ATOM     12  O   UNL     1       1.366   2.655  -1.495  0.00  0.00    +0.000 OA
ATOM     13  H   UNL     1       1.909   2.957  -0.720  0.00  0.00    +0.000 HD
ENDBRANCH   2  12
BRANCH   5  14
ATOM     14  O   UNL     1      -2.631   0.463   1.556  0.00  0.00    +0.000 OA
ATOM     15  H   UNL     1      -2.462  -0.087   2.365  0.00  0.00    +0.000 HD
ENDBRANCH   5  14
BRANCH   6  16
ATOM     16  O   UNL     1      -0.222  -1.084   1.077  0.00  0.00    +0.000 OA
ATOM     17  H   UNL     1      -0.993  -1.708   1.108  0.00  0.00    +0.000 HD
ENDBRANCH   6  16
BRANCH   4  18
ATOM     18  C   UNL     1      -2.392   3.371   1.221  0.00  0.00    +0.000 C 
BRANCH  18  19
ATOM     19  O   UNL     1      -1.660   3.715   2.367  0.00  0.00    +0.000 OA
ATOM     20  H   UNL     1      -0.960   4.356   2.078  0.00  0.00    +0.000 HD
ENDBRANCH  18  19
ENDBRANCH   4  18
TORSDOF 6
