REMARK  Name = 29327
REMARK  8 active torsions:
REMARK  status: ('A' for Active; 'I' for Inactive)
REMARK    1  A    between atoms: C_1  and  N_2
REMARK    2  A    between atoms: N_2  and  N_3
REMARK    3  A    between atoms: N_7  and  C_8
REMARK    4  A    between atoms: C_9  and  O_10
REMARK    5  A    between atoms: C_12  and  C_13
REMARK    6  A    between atoms: C_13  and  O_14
REMARK    7  A    between atoms: C_15  and  O_16
REMARK    8  A    between atoms: C_17  and  O_18
REMARK                            x       y       z     vdW  Elec       q    Type
REMARK                         _______ _______ _______ _____ _____    ______ ____
ROOT
ATOM      1  C   UNL     1      -0.186   0.146   0.139  0.00  0.00    +0.000 C 
ATOM      2  C   UNL     1       0.118   1.142  -1.007  0.00  0.00    +0.000 C 
ATOM      3  O   UNL     1       1.120   0.614  -1.856  0.00  0.00    +0.000 OA
ATOM      4  C   UNL     1       0.648  -0.497  -2.617  0.00  0.00    +0.000 C 
ATOM      5  C   UNL     1      -0.432  -1.361  -1.899  0.00  0.00    +0.000 C 
ATOM      6  C   UNL     1      -0.198  -1.317  -0.378  0.00  0.00    +0.000 C 
ENDROOT
BRANCH   1  11
ATOM      7  C   UNL     1       2.960  -0.086   3.206  0.00  0.00    +0.000 C 
ATOM      8  N   UNL     1       1.545  -0.218   3.567  0.00  0.00    +0.000 N 
ATOM      9  C   UNL     1       0.514  -0.168   2.565  0.00  0.00    +0.000 C 
ATOM     10  O   UNL     1      -0.662  -0.501   2.876  0.00  0.00    +0.000 OA
ATOM     11  N   UNL     1       0.797   0.270   1.224  0.00  0.00    +0.000 N 
ATOM     12  H   UNL     1       1.742   0.652   0.999  0.00  0.00    +0.000 HD
BRANCH   8  13
ATOM     13  N   UNL     1       1.157  -0.333   4.914  0.00  0.00    +0.000 NA
ATOM     14  O   UNL     1       1.991  -0.309   5.843  0.00  0.00    +0.000 OA
ENDBRANCH   8  13
ENDBRANCH   1  11
BRANCH   2  15
ATOM     15  O   UNL     1       0.547   2.369  -0.481  0.00  0.00    +0.000 OA
ATOM     16  H   UNL     1       0.647   2.986  -1.253  0.00  0.00    +0.000 HD
ENDBRANCH   2  15
BRANCH   5  17
ATOM     17  O   UNL     1      -0.354  -2.684  -2.366  0.00  0.00    +0.000 OA
ATOM     18  H   UNL     1      -1.246  -3.096  -2.223  0.00  0.00    +0.000 HD
ENDBRANCH   5  17
BRANCH   6  19
ATOM     19  O   UNL     1      -1.206  -2.036   0.287  0.00  0.00    +0.000 OA
ATOM     20  H   UNL     1      -0.930  -2.990   0.290  0.00  0.00    +0.000 HD
ENDBRANCH   6  19
BRANCH   4  21
ATOM     21  C   UNL     1       0.165  -0.029  -3.999  0.00  0.00    +0.000 C 
BRANCH  21  22
ATOM     22  O   UNL     1       1.176   0.685  -4.657  0.00  0.00    +0.000 OA
ATOM     23  H   UNL     1       1.831   0.014  -4.985  0.00  0.00    +0.000 HD
ENDBRANCH  21  22
ENDBRANCH   4  21
TORSDOF 7
