REMARK  Name = 54758653
REMARK  8 active torsions:
REMARK  status: ('A' for Active; 'I' for Inactive)
REMARK    1  A    between atoms: C_1  and  C_2
REMARK    2  A    between atoms: N_4  and  C_5
REMARK    3  A    between atoms: C_6  and  O_7
REMARK    4  A    between atoms: C_9  and  C_10
REMARK    5  A    between atoms: C_10  and  O_11
REMARK    6  A    between atoms: O_11  and  P_12
REMARK    7  A    between atoms: C_16  and  O_17
REMARK    8  A    between atoms: C_18  and  O_19
REMARK                            x       y       z     vdW  Elec       q    Type
REMARK                         _______ _______ _______ _____ _____    ______ ____
ROOT
ATOM      1  C   UNL     1      -0.043   1.009  -0.326  0.00  0.00    +0.000 C 
ATOM      2  C   UNL     1      -1.164  -0.067  -0.200  0.00  0.00    +0.000 C 
ATOM      3  O   UNL     1      -1.057  -0.860   0.979  0.00  0.00    +0.000 OA
ATOM      4  C   UNL     1       0.288  -1.206   1.255  0.00  0.00    +0.000 C 
ATOM      5  C   UNL     1       1.085   0.047   1.719  0.00  0.00    +0.000 C 
ATOM      6  C   UNL     1       0.527   1.335   1.069  0.00  0.00    +0.000 C 
ENDROOT
BRANCH   1  10
ATOM      7  C   UNL     1      -0.199   4.449  -2.158  0.00  0.00    +0.000 C 
ATOM      8  C   UNL     1       0.356   3.208  -1.539  0.00  0.00    +0.000 C 
ATOM      9  O   UNL     1       1.604   3.024  -1.523  0.00  0.00    +0.000 OA
ATOM     10  N   UNL     1      -0.533   2.225  -0.990  0.00  0.00    +0.000 N 
ATOM     11  H   UNL     1      -1.560   2.383  -1.101  0.00  0.00    +0.000 HD
ENDBRANCH   1  10
BRANCH   2  12
ATOM     12  O   UNL     1      -1.163  -0.890  -1.336  0.00  0.00    +0.000 OA
ATOM     13  H   UNL     1      -1.958  -1.480  -1.258  0.00  0.00    +0.000 HD
ENDBRANCH   2  12
BRANCH   5  14
ATOM     14  O   UNL     1       2.438  -0.097   1.363  0.00  0.00    +0.000 OA
ATOM     15  H   UNL     1       2.855  -0.687   2.043  0.00  0.00    +0.000 HD
ENDBRANCH   5  14
BRANCH   6  16
ATOM     16  O   UNL     1      -0.481   1.872   1.890  0.00  0.00    +0.000 OA
ATOM     17  H   UNL     1      -0.571   2.831   1.651  0.00  0.00    +0.000 HD
ENDBRANCH   6  16
BRANCH   4  18
ATOM     18  C   UNL     1       0.308  -2.302   2.326  0.00  0.00    +0.000 C 
BRANCH  18  19
ATOM     19  O   UNL     1      -0.363  -3.439   1.835  0.00  0.00    +0.000 OA
BRANCH  19  20
ATOM     20  P   UNL     1      -0.348  -4.636   3.048  0.00  0.00    +0.000 P 
ATOM     21  O   UNL     1      -1.043  -5.872   2.528  0.00  0.00    +0.000 OA
ATOM     22  O   UNL     1       1.246  -5.030   3.459  0.00  0.00    +0.000 OA
ATOM     23  O   UNL     1      -1.164  -4.080   4.423  0.00  0.00    +0.000 OA
ENDBRANCH  19  20
ENDBRANCH  18  19
ENDBRANCH   4  18
TORSDOF 7
