REMARK  Name = 5300
REMARK  9 active torsions:
REMARK  status: ('A' for Active; 'I' for Inactive)
REMARK    1  A    between atoms: O_2  and  C_3
REMARK    2  A    between atoms: N_4  and  C_5
REMARK    3  A    between atoms: C_7  and  O_9
REMARK    4  A    between atoms: C_12  and  C_14
REMARK    5  A    between atoms: C_14  and  O_17
REMARK    6  A    between atoms: C_19  and  O_21
REMARK    7  A    between atoms: C_23  and  O_25
REMARK    8  A    between atoms: N_27  and  N_28
REMARK    9  A    between atoms: N_27  and  C_30
REMARK                            x       y       z     vdW  Elec       q    Type
REMARK                         _______ _______ _______ _____ _____    ______ ____
ROOT
ATOM      1  C   UNL     1       0.449  -0.096   0.484  0.00  0.00    +0.000 C 
ATOM      2  C   UNL     1       0.535  -1.537   1.015  0.00  0.00    +0.000 C 
ATOM      3  O   UNL     1       1.274  -1.569   2.223  0.00  0.00    +0.000 OA
ATOM      4  C   UNL     1       0.581  -0.883   3.252  0.00  0.00    +0.000 C 
ATOM      5  C   UNL     1       0.477   0.624   2.909  0.00  0.00    +0.000 C 
ATOM      6  C   UNL     1      -0.215   0.804   1.544  0.00  0.00    +0.000 C 
ENDROOT
BRANCH   1   8
ATOM      7  C   UNL     1      -0.236   0.805  -1.694  0.00  0.00    +0.000 C 
ATOM      8  N   UNL     1      -0.337  -0.088  -0.753  0.00  0.00    +0.000 NA
ATOM      9  N   UNL     1      -1.075   0.717  -2.861  0.00  0.00    +0.000 N 
ATOM     10  C   UNL     1      -2.098  -0.330  -2.968  0.00  0.00    +0.000 C 
BRANCH   7  12
ATOM     11  H   UNL     1       0.789   2.563  -2.277  0.00  0.00    +0.000 HD
ATOM     12  O   UNL     1       0.693   1.841  -1.574  0.00  0.00    +0.000 OA
ENDBRANCH   7  12
BRANCH   9  13
ATOM     13  N   UNL     1      -0.803   1.556  -3.956  0.00  0.00    +0.000 NA
ATOM     14  O   UNL     1      -1.434   1.460  -5.029  0.00  0.00    +0.000 OA
ENDBRANCH   9  13
ENDBRANCH   1   8
BRANCH   2  15
ATOM     15  O   UNL     1       1.189  -2.332   0.064  0.00  0.00    +0.000 OA
ATOM     16  H   UNL     1       1.130  -3.267   0.392  0.00  0.00    +0.000 HD
ENDBRANCH   2  15
BRANCH   5  17
ATOM     17  O   UNL     1      -0.265   1.287   3.901  0.00  0.00    +0.000 OA
ATOM     18  H   UNL     1       0.029   2.235   3.899  0.00  0.00    +0.000 HD
ENDBRANCH   5  17
BRANCH   6  19
ATOM     19  O   UNL     1      -0.128   2.147   1.142  0.00  0.00    +0.000 OA
ATOM     20  H   UNL     1      -0.881   2.629   1.575  0.00  0.00    +0.000 HD
ENDBRANCH   6  19
BRANCH   4  21
ATOM     21  C   UNL     1       1.342  -1.108   4.566  0.00  0.00    +0.000 C 
BRANCH  21  22
ATOM     22  O   UNL     1       0.590  -0.648   5.654  0.00  0.00    +0.000 OA
ATOM     23  H   UNL     1       1.144  -0.811   6.461  0.00  0.00    +0.000 HD
ENDBRANCH  21  22
ENDBRANCH   4  21
TORSDOF 8
