REMARK  Name = 82313
REMARK  7 active torsions:
REMARK  status: ('A' for Active; 'I' for Inactive)
REMARK    1  A    between atoms: C_1  and  C_2
REMARK    2  A    between atoms: N_4  and  C_5
REMARK    3  A    between atoms: C_6  and  O_7
REMARK    4  A    between atoms: C_9  and  C_10
REMARK    5  A    between atoms: C_10  and  O_11
REMARK    6  A    between atoms: C_12  and  O_13
REMARK    7  A    between atoms: C_14  and  O_15
REMARK                            x       y       z     vdW  Elec       q    Type
REMARK                         _______ _______ _______ _____ _____    ______ ____
ROOT
ATOM      1  C   UNL     1       0.147  -0.827  -1.058  0.00  0.00    +0.000 C 
ATOM      2  C   UNL     1      -0.205   0.250  -2.104  0.00  0.00    +0.000 C 
ATOM      3  O   UNL     1      -0.437   1.505  -1.482  0.00  0.00    +0.000 OA
ATOM      4  C   UNL     1      -1.548   1.459  -0.597  0.00  0.00    +0.000 C 
ATOM      5  C   UNL     1      -1.281   0.474   0.567  0.00  0.00    +0.000 C 
ATOM      6  C   UNL     1      -0.967  -0.921  -0.001  0.00  0.00    +0.000 C 
ENDROOT
BRANCH   1  10
ATOM      7  C   UNL     1       1.512  -4.360  -1.998  0.00  0.00    +0.000 C 
ATOM      8  C   UNL     1       1.427  -3.010  -1.365  0.00  0.00    +0.000 C 
ATOM      9  O   UNL     1       2.291  -2.667  -0.513  0.00  0.00    +0.000 OA
ATOM     10  N   UNL     1       0.346  -2.128  -1.705  0.00  0.00    +0.000 N 
ATOM     11  H   UNL     1      -0.398  -2.490  -2.344  0.00  0.00    +0.000 HD
ENDBRANCH   1  10
BRANCH   2  12
ATOM     12  O   UNL     1      -1.307  -0.140  -2.887  0.00  0.00    +0.000 OA
ATOM     13  H   UNL     1      -1.397   0.544  -3.601  0.00  0.00    +0.000 HD
ENDBRANCH   2  12
BRANCH   5  14
ATOM     14  O   UNL     1      -2.413   0.380   1.396  0.00  0.00    +0.000 OA
ATOM     15  H   UNL     1      -2.272   1.001   2.157  0.00  0.00    +0.000 HD
ENDBRANCH   5  14
BRANCH   6  16
ATOM     16  O   UNL     1      -0.612  -1.812   1.028  0.00  0.00    +0.000 OA
ATOM     17  H   UNL     1       0.213  -1.464   1.459  0.00  0.00    +0.000 HD
ENDBRANCH   6  16
BRANCH   4  18
ATOM     18  C   UNL     1      -1.803   2.877  -0.064  0.00  0.00    +0.000 C 
BRANCH  18  19
ATOM     19  O   UNL     1      -2.082   3.753  -1.123  0.00  0.00    +0.000 OA
ATOM     20  H   UNL     1      -1.209   4.038  -1.499  0.00  0.00    +0.000 HD
ENDBRANCH  18  19
ENDBRANCH   4  18
TORSDOF 6
