REMARK  Name = 202260
REMARK  14 active torsions:
REMARK  status: ('A' for Active; 'I' for Inactive)
REMARK    1  A    between atoms: C_1  and  C_2
REMARK    2  A    between atoms: C_2  and  O_4
REMARK    3  A    between atoms: O_4  and  C_5
REMARK    4  A    between atoms: C_5  and  C_6
REMARK    5  A    between atoms: C_8  and  O_9
REMARK    6  A    between atoms: O_9  and  C_10
REMARK    7  A    between atoms: C_10  and  C_11
REMARK    8  A    between atoms: C_13  and  N_14
REMARK    9  A    between atoms: C_15  and  O_16
REMARK   10  A    between atoms: O_16  and  C_17
REMARK   11  A    between atoms: C_17  and  C_18
REMARK   12  A    between atoms: C_20  and  O_21
REMARK   13  A    between atoms: O_21  and  C_22
REMARK   14  A    between atoms: C_22  and  C_23
REMARK                            x       y       z     vdW  Elec       q    Type
REMARK                         _______ _______ _______ _____ _____    ______ ____
ROOT
ATOM      1  C   UNL     1       0.912  -0.149   0.555  0.00  0.00    +0.000 C 
ATOM      2  O   UNL     1       0.081  -1.280   0.360  0.00  0.00    +0.000 OA
ATOM      3  C   UNL     1      -1.041  -0.948  -0.437  0.00  0.00    +0.000 C 
ATOM      4  C   UNL     1      -1.952   0.046   0.315  0.00  0.00    +0.000 C 
ATOM      5  C   UNL     1      -1.146   1.311   0.678  0.00  0.00    +0.000 C 
ATOM      6  C   UNL     1       0.166   0.922   1.387  0.00  0.00    +0.000 C 
ENDROOT
BRANCH   4   7
ATOM      7  N   UNL     1      -3.126   0.397  -0.498  0.00  0.00    +0.000 N 
ATOM      8  H   UNL     1      -3.693  -0.459  -0.697  0.00  0.00    +0.000 HD
ATOM      9  H   UNL     1      -2.831   0.832  -1.403  0.00  0.00    +0.000 HD
ATOM     10  H   UNL     1      -3.735   1.069   0.023  0.00  0.00    +0.000 HD
ENDBRANCH   4   7
BRANCH   1  11
ATOM     11  C   UNL     1       2.189  -0.627   1.270  0.00  0.00    +0.000 C 
BRANCH  11  12
ATOM     12  O   UNL     1       3.128   0.433   1.445  0.00  0.00    +0.000 OA
BRANCH  12  14
ATOM     13  C   UNL     1       4.742   2.168   0.661  0.00  0.00    +0.000 C 
ATOM     14  C   UNL     1       3.894   0.969   0.405  0.00  0.00    +0.000 C 
ATOM     15  O   UNL     1       3.849   0.473  -0.754  0.00  0.00    +0.000 OA
ENDBRANCH  12  14
ENDBRANCH  11  12
ENDBRANCH   1  11
BRANCH   3  16
ATOM     16  O   UNL     1      -1.775  -2.139  -0.712  0.00  0.00    +0.000 OA
BRANCH  16  17
ATOM     17  C   UNL     1      -1.262  -3.188  -1.480  0.00  0.00    +0.000 C 
ATOM     18  C   UNL     1      -2.101  -4.395  -1.729  0.00  0.00    +0.000 C 
ATOM     19  O   UNL     1      -0.116  -3.106  -2.002  0.00  0.00    +0.000 OA
ENDBRANCH  16  17
ENDBRANCH   3  16
BRANCH   5  20
ATOM     20  O   UNL     1      -1.938   2.142   1.530  0.00  0.00    +0.000 OA
BRANCH  20  21
ATOM     21  C   UNL     1      -1.900   3.542   1.508  0.00  0.00    +0.000 C 
ATOM     22  C   UNL     1      -2.703   4.311   2.499  0.00  0.00    +0.000 C 
ATOM     23  O   UNL     1      -1.164   4.158   0.689  0.00  0.00    +0.000 OA
ENDBRANCH  20  21
ENDBRANCH   5  20
BRANCH   6  24
ATOM     24  O   UNL     1       0.995   2.078   1.528  0.00  0.00    +0.000 OA
BRANCH  24  25
ATOM     25  C   UNL     1       1.056   2.862   2.686  0.00  0.00    +0.000 C 
ATOM     26  C   UNL     1       1.966   4.040   2.723  0.00  0.00    +0.000 C 
ATOM     27  O   UNL     1       0.384   2.560   3.710  0.00  0.00    +0.000 OA
ENDBRANCH  24  25
ENDBRANCH   6  24
TORSDOF 10
