REMARK  Name = 127132
REMARK  15 active torsions:
REMARK  status: ('A' for Active; 'I' for Inactive)
REMARK    1  A    between atoms: C_1  and  C_2
REMARK    2  A    between atoms: N_4  and  C_5
REMARK    3  A    between atoms: C_6  and  O_7
REMARK    4  A    between atoms: O_7  and  C_8
REMARK    5  A    between atoms: C_8  and  C_9
REMARK    6  A    between atoms: C_12  and  C_13
REMARK    7  A    between atoms: C_13  and  O_14
REMARK    8  A    between atoms: O_14  and  C_15
REMARK    9  A    between atoms: C_15  and  C_16
REMARK   10  A    between atoms: C_18  and  O_19
REMARK   11  A    between atoms: O_19  and  C_20
REMARK   12  A    between atoms: C_20  and  C_21
REMARK   13  A    between atoms: C_23  and  O_24
REMARK   14  A    between atoms: O_24  and  C_25
REMARK   15  A    between atoms: C_25  and  C_26
REMARK                            x       y       z     vdW  Elec       q    Type
REMARK                         _______ _______ _______ _____ _____    ______ ____
ROOT
ATOM      1  C   UNL     1      -1.482  -1.250  -0.690  0.00  0.00    +0.000 C 
ATOM      2  C   UNL     1      -1.612  -0.573   0.686  0.00  0.00    +0.000 C 
ATOM      3  O   UNL     1      -1.631   0.836   0.544  0.00  0.00    +0.000 OA
ATOM      4  C   UNL     1      -0.381   1.302   0.065  0.00  0.00    +0.000 C 
ATOM      5  C   UNL     1      -0.130   0.792  -1.372  0.00  0.00    +0.000 C 
ATOM      6  C   UNL     1      -0.204  -0.748  -1.397  0.00  0.00    +0.000 C 
ENDROOT
BRANCH   1  10
ATOM      7  C   UNL     1      -4.448  -1.587  -3.204  0.00  0.00    +0.000 C 
ATOM      8  C   UNL     1      -3.328  -1.974  -2.294  0.00  0.00    +0.000 C 
ATOM      9  O   UNL     1      -2.959  -3.179  -2.241  0.00  0.00    +0.000 OA
ATOM     10  N   UNL     1      -2.670  -0.972  -1.508  0.00  0.00    +0.000 N 
ATOM     11  H   UNL     1      -2.993   0.018  -1.605  0.00  0.00    +0.000 HD
ENDBRANCH   1  10
BRANCH   2  12
ATOM     12  O   UNL     1      -2.825  -0.998   1.304  0.00  0.00    +0.000 OA
BRANCH  12  13
ATOM     13  C   UNL     1      -3.187  -0.626   2.602  0.00  0.00    +0.000 C 
ATOM     14  C   UNL     1      -4.471  -1.120   3.176  0.00  0.00    +0.000 C 
ATOM     15  O   UNL     1      -2.421   0.086   3.307  0.00  0.00    +0.000 OA
ENDBRANCH  12  13
ENDBRANCH   2  12
BRANCH   4  16
ATOM     16  C   UNL     1      -0.390   2.838   0.103  0.00  0.00    +0.000 C 
BRANCH  16  17
ATOM     17  O   UNL     1      -0.708   3.307   1.412  0.00  0.00    +0.000 OA
BRANCH  17  18
ATOM     18  C   UNL     1       0.191   3.271   2.484  0.00  0.00    +0.000 C 
ATOM     19  C   UNL     1      -0.273   3.675   3.842  0.00  0.00    +0.000 C 
ATOM     20  O   UNL     1       1.374   2.865   2.324  0.00  0.00    +0.000 OA
ENDBRANCH  17  18
ENDBRANCH  16  17
ENDBRANCH   4  16
BRANCH   5  21
ATOM     21  O   UNL     1       1.164   1.222  -1.804  0.00  0.00    +0.000 OA
BRANCH  21  22
ATOM     22  C   UNL     1       1.533   1.352  -3.147  0.00  0.00    +0.000 C 
ATOM     23  C   UNL     1       2.929   1.748  -3.487  0.00  0.00    +0.000 C 
ATOM     24  O   UNL     1       0.688   1.192  -4.070  0.00  0.00    +0.000 OA
ENDBRANCH  21  22
ENDBRANCH   5  21
BRANCH   6  25
ATOM     25  O   UNL     1      -0.168  -1.208  -2.749  0.00  0.00    +0.000 OA
BRANCH  25  26
ATOM     26  C   UNL     1       0.131  -2.526  -3.110  0.00  0.00    +0.000 C 
ATOM     27  C   UNL     1       0.096  -2.915  -4.548  0.00  0.00    +0.000 C 
ATOM     28  O   UNL     1       0.471  -3.374  -2.240  0.00  0.00    +0.000 OA
ENDBRANCH  25  26
ENDBRANCH   6  25
TORSDOF 10
