REMARK  Name = 82398
REMARK  9 active torsions:
REMARK  status: ('A' for Active; 'I' for Inactive)
REMARK    1  A    between atoms: C_1  and  C_2
REMARK    2  A    between atoms: N_4  and  C_5
REMARK    3  A    between atoms: C_6  and  O_7
REMARK    4  A    between atoms: O_7  and  C_8
REMARK    5  A    between atoms: C_11  and  N_12
REMARK    6  A    between atoms: C_18  and  C_19
REMARK    7  A    between atoms: C_19  and  O_20
REMARK    8  A    between atoms: C_21  and  O_22
REMARK    9  A    between atoms: C_23  and  O_24
REMARK                            x       y       z     vdW  Elec       q    Type
REMARK                         _______ _______ _______ _____ _____    ______ ____
ROOT
ATOM      1  C   UNL     1      -1.756  -0.424   1.172  0.00  0.00    +0.000 C 
ATOM      2  C   UNL     1      -0.933   0.224   0.041  0.00  0.00    +0.000 C 
ATOM      3  O   UNL     1      -0.855  -0.634  -1.088  0.00  0.00    +0.000 OA
ATOM      4  C   UNL     1      -0.187  -1.847  -0.779  0.00  0.00    +0.000 C 
ATOM      5  C   UNL     1      -0.984  -2.650   0.275  0.00  0.00    +0.000 C 
ATOM      6  C   UNL     1      -1.165  -1.800   1.540  0.00  0.00    +0.000 C 
ENDROOT
BRANCH   1  10
ATOM      7  C   UNL     1      -2.568   2.517   3.600  0.00  0.00    +0.000 C 
ATOM      8  C   UNL     1      -2.624   1.623   2.405  0.00  0.00    +0.000 C 
ATOM      9  O   UNL     1      -3.421   1.889   1.464  0.00  0.00    +0.000 OA
ATOM     10  N   UNL     1      -1.786   0.461   2.343  0.00  0.00    +0.000 N 
ATOM     11  H   UNL     1      -1.166   0.257   3.159  0.00  0.00    +0.000 HD
ENDBRANCH   1  10
BRANCH   5  12
ATOM     12  O   UNL     1      -0.295  -3.827   0.615  0.00  0.00    +0.000 OA
ATOM     13  H   UNL     1      -0.655  -4.554   0.043  0.00  0.00    +0.000 HD
ENDBRANCH   5  12
BRANCH   6  14
ATOM     14  O   UNL     1      -2.027  -2.473   2.423  0.00  0.00    +0.000 OA
ATOM     15  H   UNL     1      -1.831  -2.133   3.335  0.00  0.00    +0.000 HD
ENDBRANCH   6  14
BRANCH   2  16
ATOM     16  O   UNL     1       0.370   0.589   0.511  0.00  0.00    +0.000 OA
BRANCH  16  17
ATOM     17  C   UNL     1       1.324   1.300  -0.234  0.00  0.00    +0.000 A 
ATOM     18  C   UNL     1       1.071   1.777  -1.533  0.00  0.00    +0.000 A 
ATOM     19  C   UNL     1       2.061   2.472  -2.235  0.00  0.00    +0.000 A 
ATOM     20  C   UNL     1       3.318   2.707  -1.653  0.00  0.00    +0.000 A 
ATOM     21  C   UNL     1       3.564   2.231  -0.352  0.00  0.00    +0.000 A 
ATOM     22  C   UNL     1       2.574   1.535   0.347  0.00  0.00    +0.000 A 
BRANCH  20  23
ATOM     23  N   UNL     1       4.334   3.423  -2.378  0.00  0.00    +0.000 N 
ATOM     24  O   UNL     1       5.454   3.633  -1.867  0.00  0.00    +0.000 OA
ATOM     25  O   UNL     1       4.088   3.890  -3.649  0.00  0.00    +0.000 OA
ENDBRANCH  20  23
ENDBRANCH  16  17
ENDBRANCH   2  16
BRANCH   4  26
ATOM     26  C   UNL     1      -0.025  -2.651  -2.078  0.00  0.00    +0.000 C 
BRANCH  26  27
ATOM     27  O   UNL     1       0.645  -1.887  -3.045  0.00  0.00    +0.000 OA
ATOM     28  H   UNL     1       1.599  -1.856  -2.773  0.00  0.00    +0.000 HD
ENDBRANCH  26  27
ENDBRANCH   4  26
TORSDOF 8
