REMARK  Name = 899
REMARK  8 active torsions:
REMARK  status: ('A' for Active; 'I' for Inactive)
REMARK    1  A    between atoms: O_2  and  C_3
REMARK    2  A    between atoms: C_3  and  C_27
REMARK    3  A    between atoms: N_4  and  C_5
REMARK    4  A    between atoms: C_7  and  O_9
REMARK    5  A    between atoms: C_12  and  C_14
REMARK    6  A    between atoms: C_14  and  O_17
REMARK    7  A    between atoms: C_19  and  O_21
REMARK    8  A    between atoms: C_23  and  O_25
REMARK                            x       y       z     vdW  Elec       q    Type
REMARK                         _______ _______ _______ _____ _____    ______ ____
ROOT
ATOM      1  C   UNL     1       0.740  -0.966  -0.494  0.00  0.00    +0.000 C 
ATOM      2  C   UNL     1      -0.379  -1.688   0.282  0.00  0.00    +0.000 C 
ATOM      3  O   UNL     1      -1.155  -0.755   1.013  0.00  0.00    +0.000 OA
ATOM      4  C   UNL     1      -1.887   0.081   0.132  0.00  0.00    +0.000 C 
ATOM      5  C   UNL     1      -0.923   0.970  -0.691  0.00  0.00    +0.000 C 
ATOM      6  C   UNL     1       0.137   0.113  -1.426  0.00  0.00    +0.000 C 
ENDROOT
BRANCH   1   8
ATOM      7  C   UNL     1       2.874   0.063   0.213  0.00  0.00    +0.000 C 
ATOM      8  N   UNL     1       1.665  -0.351   0.463  0.00  0.00    +0.000 NA
ATOM      9  C   UNL     1       3.669   0.673   1.318  0.00  0.00    +0.000 C 
BRANCH   7  11
ATOM     10  H   UNL     1       2.993  -0.473  -1.845  0.00  0.00    +0.000 HD
ATOM     11  O   UNL     1       3.462  -0.061  -1.049  0.00  0.00    +0.000 OA
ENDBRANCH   7  11
ENDBRANCH   1   8
BRANCH   2  12
ATOM     12  O   UNL     1       0.201  -2.600   1.176  0.00  0.00    +0.000 OA
ATOM     13  H   UNL     1      -0.548  -3.103   1.591  0.00  0.00    +0.000 HD
ENDBRANCH   2  12
BRANCH   5  14
ATOM     14  O   UNL     1      -1.650   1.737  -1.616  0.00  0.00    +0.000 OA
ATOM     15  H   UNL     1      -1.046   2.462  -1.923  0.00  0.00    +0.000 HD
ENDBRANCH   5  14
BRANCH   6  16
ATOM     16  O   UNL     1      -0.378  -0.463  -2.603  0.00  0.00    +0.000 OA
ATOM     17  H   UNL     1      -1.153  -1.031  -2.362  0.00  0.00    +0.000 HD
ENDBRANCH   6  16
BRANCH   4  18
ATOM     18  C   UNL     1      -2.839   0.946   0.966  0.00  0.00    +0.000 C 
BRANCH  18  19
ATOM     19  O   UNL     1      -3.716   0.124   1.684  0.00  0.00    +0.000 OA
ATOM     20  H   UNL     1      -4.298   0.733   2.208  0.00  0.00    +0.000 HD
ENDBRANCH  18  19
ENDBRANCH   4  18
TORSDOF 7
