REMARK  Name = 24139
REMARK  7 active torsions:
REMARK  status: ('A' for Active; 'I' for Inactive)
REMARK    1  A    between atoms: C_1  and  C_2
REMARK    2  A    between atoms: N_4  and  C_5
REMARK    3  A    between atoms: C_6  and  O_7
REMARK    4  A    between atoms: C_9  and  C_10
REMARK    5  A    between atoms: C_10  and  O_11
REMARK    6  A    between atoms: C_12  and  O_13
REMARK    7  A    between atoms: C_14  and  O_15
REMARK                            x       y       z     vdW  Elec       q    Type
REMARK                         _______ _______ _______ _____ _____    ______ ____
ROOT
ATOM      1  C   UNL     1       0.791   0.925  -0.419  0.00  0.00    +0.000 C 
ATOM      2  C   UNL     1       0.266   2.242  -1.028  0.00  0.00    +0.000 C 
ATOM      3  O   UNL     1      -0.285   3.072  -0.019  0.00  0.00    +0.000 OA
ATOM      4  C   UNL     1      -1.439   2.473   0.547  0.00  0.00    +0.000 C 
ATOM      5  C   UNL     1      -1.058   1.165   1.284  0.00  0.00    +0.000 C 
ATOM      6  C   UNL     1      -0.354   0.201   0.311  0.00  0.00    +0.000 C 
ENDROOT
BRANCH   1  10
ATOM      7  C   UNL     1       3.010  -1.578  -2.429  0.00  0.00    +0.000 C 
ATOM      8  C   UNL     1       2.563  -0.658  -1.339  0.00  0.00    +0.000 C 
ATOM      9  O   UNL     1       3.256  -0.553  -0.292  0.00  0.00    +0.000 OA
ATOM     10  N   UNL     1       1.333   0.067  -1.478  0.00  0.00    +0.000 N 
ATOM     11  H   UNL     1       0.745  -0.112  -2.324  0.00  0.00    +0.000 HD
ENDBRANCH   1  10
BRANCH   2  12
ATOM     12  O   UNL     1       1.310   2.925  -1.671  0.00  0.00    +0.000 OA
ATOM     13  H   UNL     1       1.937   3.235  -0.966  0.00  0.00    +0.000 HD
ENDBRANCH   2  12
BRANCH   5  14
ATOM     14  O   UNL     1      -2.213   0.550   1.795  0.00  0.00    +0.000 OA
ATOM     15  H   UNL     1      -1.920  -0.052   2.528  0.00  0.00    +0.000 HD
ENDBRANCH   5  14
BRANCH   6  16
ATOM     16  O   UNL     1       0.153  -0.893   1.031  0.00  0.00    +0.000 OA
ATOM     17  H   UNL     1       0.246  -1.644   0.389  0.00  0.00    +0.000 HD
ENDBRANCH   6  16
BRANCH   4  18
ATOM     18  C   UNL     1      -2.075   3.493   1.507  0.00  0.00    +0.000 C 
BRANCH  18  19
ATOM     19  O   UNL     1      -3.325   3.053   1.966  0.00  0.00    +0.000 OA
ATOM     20  H   UNL     1      -3.962   3.172   1.214  0.00  0.00    +0.000 HD
ENDBRANCH  18  19
ENDBRANCH   4  18
TORSDOF 6
