REMARK  Name = ZINC000003956714
REMARK  10 active torsions:
REMARK  status: ('A' for Active; 'I' for Inactive)
REMARK    1  A    between atoms: O_2  and  C_3
REMARK    2  A    between atoms: C_3  and  C_40
REMARK    3  A    between atoms: N_4  and  C_5
REMARK    4  A    between atoms: C_7  and  O_9
REMARK    5  A    between atoms: O_9  and  C_10
REMARK    6  A    between atoms: C_10  and  C_13
REMARK    7  A    between atoms: C_25  and  C_27
REMARK    8  A    between atoms: C_27  and  O_30
REMARK    9  A    between atoms: C_32  and  O_34
REMARK   10  A    between atoms: C_36  and  O_38
REMARK                            x       y       z     vdW  Elec       q    Type
REMARK                         _______ _______ _______ _____ _____    ______ ____
ROOT
ATOM      1  C   UNL     1       0.984   1.783   0.727  0.00  0.00    +0.000 C 
ATOM      2  C   UNL     1       0.711   0.541  -0.147  0.00  0.00    +0.000 C 
ATOM      3  O   UNL     1      -0.686   0.348  -0.327  0.00  0.00    +0.000 OA
ATOM      4  C   UNL     1      -1.354   0.103   0.903  0.00  0.00    +0.000 C 
ATOM      5  C   UNL     1      -1.228   1.335   1.838  0.00  0.00    +0.000 C 
ATOM      6  C   UNL     1       0.255   1.677   2.080  0.00  0.00    +0.000 C 
ENDROOT
BRANCH   1   8
ATOM      7  C   UNL     1       3.002   3.030   1.328  0.00  0.00    +0.000 C 
ATOM      8  N   UNL     1       2.428   1.937   0.922  0.00  0.00    +0.000 NA
ATOM      9  C   UNL     1       4.488   3.066   1.485  0.00  0.00    +0.000 C 
BRANCH   7  11
ATOM     10  H   UNL     1       2.691   5.038   1.881  0.00  0.00    +0.000 HD
ATOM     11  O   UNL     1       2.250   4.177   1.581  0.00  0.00    +0.000 OA
ENDBRANCH   7  11
ENDBRANCH   1   8
BRANCH   5  12
ATOM     12  O   UNL     1      -1.899   1.147   3.061  0.00  0.00    +0.000 OA
ATOM     13  H   UNL     1      -1.588   0.289   3.452  0.00  0.00    +0.000 HD
ENDBRANCH   5  12
BRANCH   6  14
ATOM     14  O   UNL     1       0.870   0.693   2.876  0.00  0.00    +0.000 OA
ATOM     15  H   UNL     1       0.749   0.965   3.823  0.00  0.00    +0.000 HD
ENDBRANCH   6  14
BRANCH   2  16
ATOM     16  O   UNL     1       1.330  -0.611   0.414  0.00  0.00    +0.000 OA
BRANCH  16  17
ATOM     17  C   UNL     1       1.536  -1.620  -0.558  0.00  0.00    +0.000 C 
BRANCH  17  18
ATOM     18  C   UNL     1       0.293  -2.448  -0.752  0.00  0.00    +0.000 A 
ATOM     19  C   UNL     1      -0.149  -3.303   0.271  0.00  0.00    +0.000 A 
ATOM     20  C   UNL     1      -1.325  -4.042   0.111  0.00  0.00    +0.000 A 
ATOM     21  C   UNL     1      -2.066  -3.933  -1.069  0.00  0.00    +0.000 A 
ATOM     22  C   UNL     1      -1.632  -3.084  -2.091  0.00  0.00    +0.000 A 
ATOM     23  C   UNL     1      -0.458  -2.341  -1.934  0.00  0.00    +0.000 A 
ENDBRANCH  17  18
ENDBRANCH  16  17
ENDBRANCH   2  16
BRANCH   4  24
ATOM     24  C   UNL     1      -2.821  -0.216   0.580  0.00  0.00    +0.000 C 
BRANCH  24  25
ATOM     25  O   UNL     1      -3.475  -0.749   1.703  0.00  0.00    +0.000 OA
ATOM     26  H   UNL     1      -4.086  -0.046   2.047  0.00  0.00    +0.000 HD
ENDBRANCH  24  25
ENDBRANCH   4  24
TORSDOF 9
