REMARK  Name = 899
REMARK  8 active torsions:
REMARK  status: ('A' for Active; 'I' for Inactive)
REMARK    1  A    between atoms: O_2  and  C_3
REMARK    2  A    between atoms: C_3  and  C_27
REMARK    3  A    between atoms: N_4  and  C_5
REMARK    4  A    between atoms: C_7  and  O_9
REMARK    5  A    between atoms: C_12  and  C_14
REMARK    6  A    between atoms: C_14  and  O_17
REMARK    7  A    between atoms: C_19  and  O_21
REMARK    8  A    between atoms: C_23  and  O_25
REMARK                            x       y       z     vdW  Elec       q    Type
REMARK                         _______ _______ _______ _____ _____    ______ ____
ROOT
ATOM      1  C   UNL     1       0.482   1.099   0.359  0.00  0.00    +0.000 C 
ATOM      2  C   UNL     1       1.645   0.289  -0.253  0.00  0.00    +0.000 C 
ATOM      3  O   UNL     1       1.275  -1.070  -0.396  0.00  0.00    +0.000 OA
ATOM      4  C   UNL     1       0.258  -1.213  -1.374  0.00  0.00    +0.000 C 
ATOM      5  C   UNL     1      -1.046  -0.526  -0.895  0.00  0.00    +0.000 C 
ATOM      6  C   UNL     1      -0.791   0.951  -0.508  0.00  0.00    +0.000 C 
ENDROOT
BRANCH   1   8
ATOM      7  C   UNL     1      -0.437   1.238   2.651  0.00  0.00    +0.000 C 
ATOM      8  N   UNL     1       0.230   0.617   1.721  0.00  0.00    +0.000 NA
ATOM      9  C   UNL     1      -0.598   0.583   3.982  0.00  0.00    +0.000 C 
BRANCH   7  11
ATOM     10  H   UNL     1      -0.915   3.020   1.586  0.00  0.00    +0.000 HD
ATOM     11  O   UNL     1      -0.991   2.506   2.454  0.00  0.00    +0.000 OA
ENDBRANCH   7  11
ENDBRANCH   1   8
BRANCH   2  12
ATOM     12  O   UNL     1       2.764   0.354   0.592  0.00  0.00    +0.000 OA
ATOM     13  H   UNL     1       3.138   1.270   0.507  0.00  0.00    +0.000 HD
ENDBRANCH   2  12
BRANCH   5  14
ATOM     14  O   UNL     1      -2.026  -0.594  -1.900  0.00  0.00    +0.000 OA
ATOM     15  H   UNL     1      -2.896  -0.397  -1.464  0.00  0.00    +0.000 HD
ENDBRANCH   5  14
BRANCH   6  16
ATOM     16  O   UNL     1      -0.734   1.788  -1.639  0.00  0.00    +0.000 OA
ATOM     17  H   UNL     1      -0.003   1.470  -2.228  0.00  0.00    +0.000 HD
ENDBRANCH   6  16
BRANCH   4  18
ATOM     18  C   UNL     1       0.042  -2.718  -1.608  0.00  0.00    +0.000 C 
BRANCH  18  19
ATOM     19  O   UNL     1      -0.831  -2.947  -2.682  0.00  0.00    +0.000 OA
ATOM     20  H   UNL     1      -0.317  -2.763  -3.511  0.00  0.00    +0.000 HD
ENDBRANCH  18  19
ENDBRANCH   4  18
TORSDOF 7
