REMARK  Name = 35717
REMARK  7 active torsions:
REMARK  status: ('A' for Active; 'I' for Inactive)
REMARK    1  A    between atoms: C_1  and  C_2
REMARK    2  A    between atoms: N_4  and  C_5
REMARK    3  A    between atoms: C_6  and  O_7
REMARK    4  A    between atoms: C_9  and  C_10
REMARK    5  A    between atoms: C_10  and  O_11
REMARK    6  A    between atoms: C_12  and  O_13
REMARK    7  A    between atoms: C_14  and  O_15
REMARK                            x       y       z     vdW  Elec       q    Type
REMARK                         _______ _______ _______ _____ _____    ______ ____
ROOT
ATOM      1  C   UNL     1      -0.155  -1.419  -0.115  0.00  0.00    +0.000 C 
ATOM      2  C   UNL     1      -0.676   0.022  -0.307  0.00  0.00    +0.000 C 
ATOM      3  O   UNL     1      -0.500   0.465  -1.647  0.00  0.00    +0.000 OA
ATOM      4  C   UNL     1       0.872   0.494  -2.017  0.00  0.00    +0.000 C 
ATOM      5  C   UNL     1       1.473  -0.929  -1.996  0.00  0.00    +0.000 C 
ATOM      6  C   UNL     1       1.316  -1.514  -0.579  0.00  0.00    +0.000 C 
ENDROOT
BRANCH   1  10
ATOM      7  C   UNL     1      -1.615  -2.570   3.314  0.00  0.00    +0.000 C 
ATOM      8  C   UNL     1      -1.544  -2.183   1.873  0.00  0.00    +0.000 C 
ATOM      9  O   UNL     1      -2.592  -2.204   1.171  0.00  0.00    +0.000 OA
ATOM     10  N   UNL     1      -0.283  -1.830   1.288  0.00  0.00    +0.000 N 
ATOM     11  H   UNL     1       0.573  -1.898   1.885  0.00  0.00    +0.000 HD
ENDBRANCH   1  10
BRANCH   2  12
ATOM     12  O   UNL     1      -0.064   0.902   0.604  0.00  0.00    +0.000 OA
ATOM     13  H   UNL     1      -0.524   1.775   0.501  0.00  0.00    +0.000 HD
ENDBRANCH   2  12
BRANCH   5  14
ATOM     14  O   UNL     1       0.812  -1.738  -2.938  0.00  0.00    +0.000 OA
ATOM     15  H   UNL     1       1.468  -2.413  -3.254  0.00  0.00    +0.000 HD
ENDBRANCH   5  14
BRANCH   6  16
ATOM     16  O   UNL     1       1.796  -2.836  -0.518  0.00  0.00    +0.000 OA
ATOM     17  H   UNL     1       1.167  -3.416  -1.020  0.00  0.00    +0.000 HD
ENDBRANCH   6  16
BRANCH   4  18
ATOM     18  C   UNL     1       0.986   1.139  -3.406  0.00  0.00    +0.000 C 
BRANCH  18  19
ATOM     19  O   UNL     1       2.330   1.318  -3.765  0.00  0.00    +0.000 OA
ATOM     20  H   UNL     1       2.603   0.510  -4.274  0.00  0.00    +0.000 HD
ENDBRANCH  18  19
ENDBRANCH   4  18
TORSDOF 6
