REMARK  Name = 129618
REMARK  15 active torsions:
REMARK  status: ('A' for Active; 'I' for Inactive)
REMARK    1  A    between atoms: C_1  and  C_2
REMARK    2  A    between atoms: C_2  and  O_4
REMARK    3  A    between atoms: O_4  and  C_5
REMARK    4  A    between atoms: C_5  and  C_6
REMARK    5  A    between atoms: C_8  and  O_9
REMARK    6  A    between atoms: O_9  and  C_10
REMARK    7  A    between atoms: C_10  and  C_11
REMARK    8  A    between atoms: C_13  and  N_14
REMARK    9  A    between atoms: C_15  and  C_17
REMARK   10  A    between atoms: C_19  and  O_20
REMARK   11  A    between atoms: O_20  and  C_21
REMARK   12  A    between atoms: C_21  and  C_22
REMARK   13  A    between atoms: C_24  and  O_25
REMARK   14  A    between atoms: O_25  and  C_26
REMARK   15  A    between atoms: C_26  and  C_27
REMARK                            x       y       z     vdW  Elec       q    Type
REMARK                         _______ _______ _______ _____ _____    ______ ____
ROOT
ATOM      1  C   UNL     1       0.306  -1.615  -0.190  0.00  0.00    +0.000 C 
ATOM      2  O   UNL     1      -0.999  -1.204  -0.563  0.00  0.00    +0.000 OA
ATOM      3  C   UNL     1      -0.978   0.100  -1.114  0.00  0.00    +0.000 C 
ATOM      4  C   UNL     1      -0.553   1.121  -0.036  0.00  0.00    +0.000 C 
ATOM      5  C   UNL     1       0.824   0.737   0.541  0.00  0.00    +0.000 C 
ATOM      6  C   UNL     1       0.824  -0.736   0.973  0.00  0.00    +0.000 C 
ENDROOT
BRANCH   4   7
ATOM      7  N   UNL     1      -0.495   2.469  -0.610  0.00  0.00    +0.000 N 
ATOM      8  C   UNL     1      -1.242   3.578  -0.088  0.00  0.00    +0.000 C 
ATOM      9  O   UNL     1      -2.061   3.413   0.856  0.00  0.00    +0.000 OA
ATOM     10  H   UNL     1       0.154   2.638  -1.412  0.00  0.00    +0.000 HD
BRANCH   8  11
ATOM     11  C   UNL     1      -1.083   4.935  -0.693  0.00  0.00    +0.000 C 
ATOM     12 CL   UNL     1      -2.119   5.072  -2.133  0.00  0.00    +0.000 Cl
ENDBRANCH   8  11
ENDBRANCH   4   7
BRANCH   1  13
ATOM     13  C   UNL     1       0.248  -3.092   0.209  0.00  0.00    +0.000 C 
BRANCH  13  14
ATOM     14  O   UNL     1      -0.296  -3.857  -0.863  0.00  0.00    +0.000 OA
BRANCH  14  16
ATOM     15  C   UNL     1      -1.036  -5.974  -1.957  0.00  0.00    +0.000 C 
ATOM     16  C   UNL     1      -0.477  -5.240  -0.786  0.00  0.00    +0.000 C 
ATOM     17  O   UNL     1      -0.135  -5.879   0.247  0.00  0.00    +0.000 OA
ENDBRANCH  14  16
ENDBRANCH  13  14
ENDBRANCH   1  13
BRANCH   3  18
ATOM     18  O   UNL     1      -2.299   0.405  -1.565  0.00  0.00    +0.000 OA
BRANCH  18  19
ATOM     19  C   UNL     1      -2.586   1.280  -2.619  0.00  0.00    +0.000 C 
ATOM     20  C   UNL     1      -4.003   1.645  -2.900  0.00  0.00    +0.000 C 
ATOM     21  O   UNL     1      -1.663   1.790  -3.310  0.00  0.00    +0.000 OA
ENDBRANCH  18  19
ENDBRANCH   3  18
BRANCH   5  22
ATOM     22  O   UNL     1       1.126   1.549   1.678  0.00  0.00    +0.000 OA
BRANCH  22  23
ATOM     23  C   UNL     1       1.748   2.800   1.602  0.00  0.00    +0.000 C 
ATOM     24  C   UNL     1       1.884   3.627   2.834  0.00  0.00    +0.000 C 
ATOM     25  O   UNL     1       2.168   3.250   0.501  0.00  0.00    +0.000 OA
ENDBRANCH  22  23
ENDBRANCH   5  22
BRANCH   6  26
ATOM     26  O   UNL     1       2.160  -1.103   1.328  0.00  0.00    +0.000 OA
BRANCH  26  27
ATOM     27  C   UNL     1       2.484  -1.935   2.406  0.00  0.00    +0.000 C 
ATOM     28  C   UNL     1       3.910  -2.291   2.653  0.00  0.00    +0.000 C 
ATOM     29  O   UNL     1       1.584  -2.420   3.145  0.00  0.00    +0.000 OA
ENDBRANCH  26  27
ENDBRANCH   6  26
TORSDOF 11
