REMARK  Name = ZINC000001471333
REMARK  10 active torsions:
REMARK  status: ('A' for Active; 'I' for Inactive)
REMARK    1  A    between atoms: O_2  and  C_3
REMARK    2  A    between atoms: C_3  and  C_40
REMARK    3  A    between atoms: N_4  and  C_5
REMARK    4  A    between atoms: C_7  and  O_9
REMARK    5  A    between atoms: O_9  and  C_10
REMARK    6  A    between atoms: C_15  and  C_16
REMARK    7  A    between atoms: C_25  and  C_27
REMARK    8  A    between atoms: C_27  and  O_30
REMARK    9  A    between atoms: C_32  and  O_34
REMARK   10  A    between atoms: C_36  and  O_38
REMARK                            x       y       z     vdW  Elec       q    Type
REMARK                         _______ _______ _______ _____ _____    ______ ____
ROOT
ATOM      1  C   UNL     1      -1.215   0.381  -0.492  0.00  0.00    +0.000 C 
ATOM      2  C   UNL     1      -0.225  -0.690  -1.007  0.00  0.00    +0.000 C 
ATOM      3  O   UNL     1      -0.652  -1.159  -2.274  0.00  0.00    +0.000 OA
ATOM      4  C   UNL     1      -1.883  -1.855  -2.170  0.00  0.00    +0.000 C 
ATOM      5  C   UNL     1      -3.008  -0.886  -1.730  0.00  0.00    +0.000 C 
ATOM      6  C   UNL     1      -2.633  -0.220  -0.396  0.00  0.00    +0.000 C 
ENDROOT
BRANCH   1   8
ATOM      7  C   UNL     1      -1.198   1.994   1.348  0.00  0.00    +0.000 C 
ATOM      8  N   UNL     1      -0.781   0.888   0.810  0.00  0.00    +0.000 NA
ATOM      9  C   UNL     1      -0.662   2.409   2.680  0.00  0.00    +0.000 C 
BRANCH   7  11
ATOM     10  H   UNL     1      -2.425   3.684   1.083  0.00  0.00    +0.000 HD
ATOM     11  O   UNL     1      -2.108   2.811   0.678  0.00  0.00    +0.000 OA
ENDBRANCH   7  11
ENDBRANCH   1   8
BRANCH   5  12
ATOM     12  O   UNL     1      -4.223  -1.577  -1.575  0.00  0.00    +0.000 OA
ATOM     13  H   UNL     1      -4.718  -1.497  -2.432  0.00  0.00    +0.000 HD
ENDBRANCH   5  12
BRANCH   6  14
ATOM     14  O   UNL     1      -2.694  -1.172   0.639  0.00  0.00    +0.000 OA
ATOM     15  H   UNL     1      -2.866  -0.675   1.481  0.00  0.00    +0.000 HD
ENDBRANCH   6  14
BRANCH   2  16
ATOM     16  O   UNL     1       1.072  -0.110  -1.177  0.00  0.00    +0.000 OA
BRANCH  16  17
ATOM     17  C   UNL     1       2.036   0.100  -0.174  0.00  0.00    +0.000 A 
ATOM     18  C   UNL     1       3.163   0.862  -0.502  0.00  0.00    +0.000 A 
ATOM     19  C   UNL     1       4.155   1.115   0.449  0.00  0.00    +0.000 A 
ATOM     20  C   UNL     1       4.042   0.590   1.744  0.00  0.00    +0.000 A 
ATOM     21  C   UNL     1       5.084   0.897   2.778  0.00  0.00    +0.000 C 
ATOM     22  C   UNL     1       2.913  -0.168   2.082  0.00  0.00    +0.000 A 
ATOM     23  C   UNL     1       1.921  -0.423   1.130  0.00  0.00    +0.000 A 
ENDBRANCH  16  17
ENDBRANCH   2  16
BRANCH   4  24
ATOM     24  C   UNL     1      -2.202  -2.481  -3.536  0.00  0.00    +0.000 C 
BRANCH  24  25
ATOM     25  O   UNL     1      -1.151  -3.311  -3.952  0.00  0.00    +0.000 OA
ATOM     26  H   UNL     1      -1.214  -4.142  -3.413  0.00  0.00    +0.000 HD
ENDBRANCH  24  25
ENDBRANCH   4  24
TORSDOF 8
