REMARK  Name = 29327
REMARK  8 active torsions:
REMARK  status: ('A' for Active; 'I' for Inactive)
REMARK    1  A    between atoms: C_1  and  N_2
REMARK    2  A    between atoms: N_2  and  N_3
REMARK    3  A    between atoms: N_7  and  C_8
REMARK    4  A    between atoms: C_9  and  O_10
REMARK    5  A    between atoms: C_12  and  C_13
REMARK    6  A    between atoms: C_13  and  O_14
REMARK    7  A    between atoms: C_15  and  O_16
REMARK    8  A    between atoms: C_17  and  O_18
REMARK                            x       y       z     vdW  Elec       q    Type
REMARK                         _______ _______ _______ _____ _____    ______ ____
ROOT
ATOM      1  C   UNL     1      -0.542   0.438   0.219  0.00  0.00    +0.000 C 
ATOM      2  C   UNL     1      -0.087   1.507  -0.829  0.00  0.00    +0.000 C 
ATOM      3  O   UNL     1       0.194   0.962  -2.111  0.00  0.00    +0.000 OA
ATOM      4  C   UNL     1       0.995  -0.202  -2.016  0.00  0.00    +0.000 C 
ATOM      5  C   UNL     1       0.188  -1.382  -1.398  0.00  0.00    +0.000 C 
ATOM      6  C   UNL     1      -0.954  -0.867  -0.493  0.00  0.00    +0.000 C 
ENDROOT
BRANCH   1  11
ATOM      7  C   UNL     1       0.932  -1.167   4.790  0.00  0.00    +0.000 C 
ATOM      8  N   UNL     1       1.248  -0.610   3.472  0.00  0.00    +0.000 N 
ATOM      9  C   UNL     1       0.194  -0.317   2.536  0.00  0.00    +0.000 C 
ATOM     10  O   UNL     1      -1.010  -0.475   2.877  0.00  0.00    +0.000 OA
ATOM     11  N   UNL     1       0.504   0.156   1.214  0.00  0.00    +0.000 N 
ATOM     12  H   UNL     1       1.504   0.175   0.917  0.00  0.00    +0.000 HD
BRANCH   8  13
ATOM     13  N   UNL     1       2.563  -0.213   3.167  0.00  0.00    +0.000 NA
ATOM     14  O   UNL     1       3.496  -0.357   3.984  0.00  0.00    +0.000 OA
ENDBRANCH   8  13
ENDBRANCH   1  11
BRANCH   2  15
ATOM     15  O   UNL     1       1.012   2.261  -0.382  0.00  0.00    +0.000 OA
ATOM     16  H   UNL     1       0.684   2.829   0.363  0.00  0.00    +0.000 HD
ENDBRANCH   2  15
BRANCH   5  17
ATOM     17  O   UNL     1       1.046  -2.198  -0.641  0.00  0.00    +0.000 OA
ATOM     18  H   UNL     1       1.579  -2.732  -1.285  0.00  0.00    +0.000 HD
ENDBRANCH   5  17
BRANCH   6  19
ATOM     19  O   UNL     1      -2.097  -0.637  -1.278  0.00  0.00    +0.000 OA
ATOM     20  H   UNL     1      -2.869  -0.583  -0.655  0.00  0.00    +0.000 HD
ENDBRANCH   6  19
BRANCH   4  21
ATOM     21  C   UNL     1       1.533  -0.551  -3.411  0.00  0.00    +0.000 C 
BRANCH  21  22
ATOM     22  O   UNL     1       0.483  -0.660  -4.338  0.00  0.00    +0.000 OA
ATOM     23  H   UNL     1       0.326  -1.628  -4.491  0.00  0.00    +0.000 HD
ENDBRANCH  21  22
ENDBRANCH   4  21
TORSDOF 7
