REMARK  Name = ZINC000105341667
REMARK  7 active torsions:
REMARK  status: ('A' for Active; 'I' for Inactive)
REMARK    1  A    between atoms: C_1  and  O_2
REMARK    2  A    between atoms: O_2  and  C_3
REMARK    3  A    between atoms: C_4  and  O_5
REMARK    4  A    between atoms: C_6  and  C_7
REMARK    5  A    between atoms: C_7  and  O_8
REMARK    6  A    between atoms: C_10  and  O_11
REMARK    7  A    between atoms: C_12  and  N_13
REMARK                            x       y       z     vdW  Elec       q    Type
REMARK                         _______ _______ _______ _____ _____    ______ ____
ROOT
ATOM      1  C   UNL     1      -0.790  -0.487  -0.535  0.00  0.00    +0.000 C 
ATOM      2  C   UNL     1       0.660  -1.006  -0.562  0.00  0.00    +0.000 C 
ATOM      3  C   UNL     1       1.548  -0.155   0.377  0.00  0.00    +0.000 C 
ATOM      4  O   UNL     1       1.514   1.213  -0.004  0.00  0.00    +0.000 OA
ATOM      5  C   UNL     1       0.210   1.761   0.119  0.00  0.00    +0.000 C 
ATOM      6  C   UNL     1      -0.789   1.032  -0.810  0.00  0.00    +0.000 C 
ENDROOT
BRANCH   6   7
ATOM      7  N   UNL     1      -2.139   1.601  -0.699  0.00  0.00    +0.000 N 
ATOM      8  H   UNL     1      -2.511   1.504   0.274  0.00  0.00    +0.000 HD
ATOM      9  H   UNL     1      -2.116   2.614  -0.955  0.00  0.00    +0.000 HD
ATOM     10  H   UNL     1      -2.783   1.111  -1.361  0.00  0.00    +0.000 HD
ENDBRANCH   6   7
BRANCH   1  12
ATOM     11  C   UNL     1      -2.455  -1.634   0.630  0.00  0.00    +0.000 C 
ATOM     12  O   UNL     1      -1.363  -0.749   0.739  0.00  0.00    +0.000 OA
ENDBRANCH   1  12
BRANCH   2  13
ATOM     13  O   UNL     1       0.693  -2.353  -0.164  0.00  0.00    +0.000 OA
ATOM     14  H   UNL     1       0.344  -2.885  -0.926  0.00  0.00    +0.000 HD
ENDBRANCH   2  13
BRANCH   5  15
ATOM     15  O   UNL     1      -0.225   1.744   1.456  0.00  0.00    +0.000 OA
ATOM     16  H   UNL     1       0.407   2.319   1.962  0.00  0.00    +0.000 HD
ENDBRANCH   5  15
BRANCH   3  17
ATOM     17  C   UNL     1       3.007  -0.636   0.324  0.00  0.00    +0.000 C 
BRANCH  17  18
ATOM     18  O   UNL     1       3.795   0.095   1.225  0.00  0.00    +0.000 OA
ATOM     19  H   UNL     1       4.035   0.945   0.773  0.00  0.00    +0.000 HD
ENDBRANCH  17  18
ENDBRANCH   3  17
TORSDOF 6
