REMARK  Name = ZINC000015205956
REMARK  8 active torsions:
REMARK  status: ('A' for Active; 'I' for Inactive)
REMARK    1  A    between atoms: C_1  and  C_2
REMARK    2  A    between atoms: N_4  and  C_5
REMARK    3  A    between atoms: C_6  and  O_7
REMARK    4  A    between atoms: C_8  and  O_9
REMARK    5  A    between atoms: C_10  and  C_11
REMARK    6  A    between atoms: C_11  and  O_12
REMARK    7  A    between atoms: C_14  and  O_15
REMARK    8  A    between atoms: O_15  and  C_16
REMARK                            x       y       z     vdW  Elec       q    Type
REMARK                         _______ _______ _______ _____ _____    ______ ____
ROOT
ATOM      1  C   UNL     1      -0.573   1.597   1.675  0.00  0.00    +0.000 C 
ATOM      2  C   UNL     1       0.872   1.723   2.195  0.00  0.00    +0.000 C 
ATOM      3  C   UNL     1       1.882   1.293   1.115  0.00  0.00    +0.000 C 
ATOM      4  C   UNL     1       1.489  -0.073   0.502  0.00  0.00    +0.000 C 
ATOM      5  O   UNL     1       0.134  -0.107   0.065  0.00  0.00    +0.000 OA
ATOM      6  C   UNL     1      -0.792   0.184   1.104  0.00  0.00    +0.000 C 
ENDROOT
BRANCH   1  10
ATOM      7  C   UNL     1      -1.571   4.931  -0.095  0.00  0.00    +0.000 C 
ATOM      8  C   UNL     1      -1.356   3.923   0.987  0.00  0.00    +0.000 C 
ATOM      9  O   UNL     1      -1.635   4.222   2.179  0.00  0.00    +0.000 OA
ATOM     10  N   UNL     1      -0.864   2.617   0.658  0.00  0.00    +0.000 N 
ATOM     11  H   UNL     1      -0.685   2.399  -0.349  0.00  0.00    +0.000 HD
ENDBRANCH   1  10
BRANCH   2  12
ATOM     12  O   UNL     1       1.146   3.036   2.612  0.00  0.00    +0.000 OA
ATOM     13  H   UNL     1       0.670   3.168   3.474  0.00  0.00    +0.000 HD
ENDBRANCH   2  12
BRANCH   3  14
ATOM     14  O   UNL     1       1.943   2.252   0.089  0.00  0.00    +0.000 OA
ATOM     15  H   UNL     1       2.542   2.979   0.403  0.00  0.00    +0.000 HD
ENDBRANCH   3  14
BRANCH   4  16
ATOM     16  C   UNL     1       1.862  -1.270   1.399  0.00  0.00    +0.000 C 
BRANCH  16  17
ATOM     17  O   UNL     1       1.503  -2.466   0.765  0.00  0.00    +0.000 OA
ATOM     18  H   UNL     1       1.754  -3.196   1.389  0.00  0.00    +0.000 HD
ENDBRANCH  16  17
ENDBRANCH   4  16
BRANCH   6  19
ATOM     19  O   UNL     1      -2.118   0.113   0.579  0.00  0.00    +0.000 OA
BRANCH  19  20
ATOM     20  C   UNL     1      -2.735  -1.050   0.094  0.00  0.00    +0.000 A 
ATOM     21  C   UNL     1      -2.121  -2.317   0.154  0.00  0.00    +0.000 A 
ATOM     22  C   UNL     1      -2.783  -3.444  -0.346  0.00  0.00    +0.000 A 
ATOM     23  C   UNL     1      -4.057  -3.318  -0.905  0.00  0.00    +0.000 A 
ATOM     24  C   UNL     1      -4.673  -2.066  -0.964  0.00  0.00    +0.000 A 
ATOM     25  C   UNL     1      -4.014  -0.938  -0.466  0.00  0.00    +0.000 A 
ENDBRANCH  19  20
ENDBRANCH   6  19
TORSDOF 7
