REMARK  Name = ZINC000102974493
REMARK  9 active torsions:
REMARK  status: ('A' for Active; 'I' for Inactive)
REMARK    1  A    between atoms: O_2  and  C_3
REMARK    2  A    between atoms: C_3  and  C_37
REMARK    3  A    between atoms: N_4  and  C_5
REMARK    4  A    between atoms: C_7  and  O_9
REMARK    5  A    between atoms: O_9  and  C_10
REMARK    6  A    between atoms: C_22  and  C_24
REMARK    7  A    between atoms: C_24  and  O_27
REMARK    8  A    between atoms: C_29  and  O_31
REMARK    9  A    between atoms: C_33  and  O_35
REMARK                            x       y       z     vdW  Elec       q    Type
REMARK                         _______ _______ _______ _____ _____    ______ ____
ROOT
ATOM      1  C   UNL     1      -0.712   0.836  -0.955  0.00  0.00    +0.000 C 
ATOM      2  C   UNL     1       0.557   0.332  -0.235  0.00  0.00    +0.000 C 
ATOM      3  O   UNL     1       1.561   1.331  -0.291  0.00  0.00    +0.000 OA
ATOM      4  C   UNL     1       1.985   1.538  -1.630  0.00  0.00    +0.000 C 
ATOM      5  C   UNL     1       0.819   2.118  -2.478  0.00  0.00    +0.000 C 
ATOM      6  C   UNL     1      -0.408   1.180  -2.427  0.00  0.00    +0.000 C 
ENDROOT
BRANCH   1   8
ATOM      7  C   UNL     1      -1.932  -1.340  -1.085  0.00  0.00    +0.000 C 
ATOM      8  N   UNL     1      -1.863  -0.069  -0.813  0.00  0.00    +0.000 NA
ATOM      9  C   UNL     1      -3.217  -2.066  -0.850  0.00  0.00    +0.000 C 
BRANCH   7  11
ATOM     10  H   UNL     1      -0.877  -3.037  -1.748  0.00  0.00    +0.000 HD
ATOM     11  O   UNL     1      -0.825  -2.044  -1.555  0.00  0.00    +0.000 OA
ENDBRANCH   7  11
ENDBRANCH   1   8
BRANCH   5  12
ATOM     12  O   UNL     1       1.205   2.366  -3.809  0.00  0.00    +0.000 OA
ATOM     13  H   UNL     1       1.632   1.543  -4.162  0.00  0.00    +0.000 HD
ENDBRANCH   5  12
BRANCH   6  14
ATOM     14  O   UNL     1      -0.156   0.009  -3.163  0.00  0.00    +0.000 OA
ATOM     15  H   UNL     1      -0.444   0.184  -4.097  0.00  0.00    +0.000 HD
ENDBRANCH   6  14
BRANCH   2  16
ATOM     16  O   UNL     1       0.238   0.070   1.131  0.00  0.00    +0.000 OA
BRANCH  16  17
ATOM     17  C   UNL     1       1.121  -0.491   2.067  0.00  0.00    +0.000 A 
ATOM     18  C   UNL     1       2.436  -0.875   1.735  0.00  0.00    +0.000 A 
ATOM     19  C   UNL     1       3.274  -1.429   2.708  0.00  0.00    +0.000 A 
ATOM     20  C   UNL     1       2.811  -1.607   4.016  0.00  0.00    +0.000 A 
ATOM     21 CL   UNL     1       3.864  -2.302   5.234  0.00  0.00    +0.000 Cl
ATOM     22  C   UNL     1       1.506  -1.230   4.350  0.00  0.00    +0.000 A 
ATOM     23  C   UNL     1       0.667  -0.675   3.379  0.00  0.00    +0.000 A 
ENDBRANCH  16  17
ENDBRANCH   2  16
BRANCH   4  24
ATOM     24  C   UNL     1       3.180   2.502  -1.617  0.00  0.00    +0.000 C 
BRANCH  24  25
ATOM     25  O   UNL     1       4.251   1.942  -0.904  0.00  0.00    +0.000 OA
ATOM     26  H   UNL     1       4.066   2.096   0.059  0.00  0.00    +0.000 HD
ENDBRANCH  24  25
ENDBRANCH   4  24
TORSDOF 8
