REMARK  Name = ZINC000100342293
REMARK  9 active torsions:
REMARK  status: ('A' for Active; 'I' for Inactive)
REMARK    1  A    between atoms: C_1  and  O_2
REMARK    2  A    between atoms: O_2  and  C_3
REMARK    3  A    between atoms: C_6  and  C_7
REMARK    4  A    between atoms: N_8  and  C_9
REMARK    5  A    between atoms: C_10  and  O_11
REMARK    6  A    between atoms: C_13  and  C_14
REMARK    7  A    between atoms: C_14  and  O_15
REMARK    8  A    between atoms: C_16  and  O_17
REMARK    9  A    between atoms: C_18  and  O_19
REMARK                            x       y       z     vdW  Elec       q    Type
REMARK                         _______ _______ _______ _____ _____    ______ ____
ROOT
ATOM      1  C   UNL     1       1.692   1.218  -0.717  0.00  0.00    +0.000 C 
ATOM      2  C   UNL     1       1.099   2.502  -1.362  0.00  0.00    +0.000 C 
ATOM      3  O   UNL     1       1.914   3.631  -1.087  0.00  0.00    +0.000 OA
ATOM      4  C   UNL     1       1.871   3.992   0.289  0.00  0.00    +0.000 C 
ATOM      5  C   UNL     1       2.086   2.775   1.249  0.00  0.00    +0.000 C 
ATOM      6  C   UNL     1       2.623   1.569   0.467  0.00  0.00    +0.000 C 
ENDROOT
BRANCH   1   8
ATOM      7  C   UNL     1      -0.113  -0.361  -1.107  0.00  0.00    +0.000 C 
ATOM      8  N   UNL     1       0.633   0.305  -0.280  0.00  0.00    +0.000 NA
BRANCH   7  12
ATOM      9  C   UNL     1      -3.215  -2.995   0.271  0.00  0.00    +0.000 A 
ATOM     10  C   UNL     1      -2.971  -2.826  -1.097  0.00  0.00    +0.000 A 
ATOM     11  C   UNL     1      -1.961  -1.968  -1.539  0.00  0.00    +0.000 A 
ATOM     12  C   UNL     1      -1.174  -1.263  -0.617  0.00  0.00    +0.000 A 
ATOM     13  C   UNL     1      -1.416  -1.430   0.759  0.00  0.00    +0.000 A 
ATOM     14  C   UNL     1      -2.428  -2.288   1.200  0.00  0.00    +0.000 A 
BRANCH   9  16
ATOM     15  C   UNL     1      -4.596  -4.133   2.016  0.00  0.00    +0.000 C 
ATOM     16  O   UNL     1      -4.241  -3.868   0.663  0.00  0.00    +0.000 OA
ENDBRANCH   9  16
ENDBRANCH   7  12
ENDBRANCH   1   8
BRANCH   2  17
ATOM     17  O   UNL     1      -0.228   2.727  -0.948  0.00  0.00    +0.000 OA
ATOM     18  H   UNL     1      -0.574   3.472  -1.506  0.00  0.00    +0.000 HD
ENDBRANCH   2  17
BRANCH   5  19
ATOM     19  O   UNL     1       0.874   2.427   1.869  0.00  0.00    +0.000 OA
ATOM     20  H   UNL     1       0.700   3.117   2.562  0.00  0.00    +0.000 HD
ENDBRANCH   5  19
BRANCH   6  21
ATOM     21  O   UNL     1       2.787   0.473   1.330  0.00  0.00    +0.000 OA
ATOM     22  H   UNL     1       3.340  -0.193   0.843  0.00  0.00    +0.000 HD
ENDBRANCH   6  21
BRANCH   4  23
ATOM     23  C   UNL     1       2.937   5.073   0.524  0.00  0.00    +0.000 C 
BRANCH  23  24
ATOM     24  O   UNL     1       2.842   5.600   1.821  0.00  0.00    +0.000 OA
ATOM     25  H   UNL     1       2.055   6.204   1.826  0.00  0.00    +0.000 HD
ENDBRANCH  23  24
ENDBRANCH   4  23
TORSDOF 8
