REMARK  Name = ZINC000015205946
REMARK  9 active torsions:
REMARK  status: ('A' for Active; 'I' for Inactive)
REMARK    1  A    between atoms: C_1  and  C_2
REMARK    2  A    between atoms: N_4  and  C_5
REMARK    3  A    between atoms: C_6  and  O_7
REMARK    4  A    between atoms: C_8  and  O_9
REMARK    5  A    between atoms: C_10  and  C_11
REMARK    6  A    between atoms: C_11  and  O_12
REMARK    7  A    between atoms: C_14  and  O_15
REMARK    8  A    between atoms: O_15  and  C_16
REMARK    9  A    between atoms: C_21  and  N_22
REMARK                            x       y       z     vdW  Elec       q    Type
REMARK                         _______ _______ _______ _____ _____    ______ ____
ROOT
ATOM      1  C   UNL     1      -0.955   0.413  -1.870  0.00  0.00    +0.000 C 
ATOM      2  C   UNL     1      -1.302  -1.086  -1.844  0.00  0.00    +0.000 C 
ATOM      3  C   UNL     1      -0.167  -1.886  -2.505  0.00  0.00    +0.000 C 
ATOM      4  C   UNL     1       1.192  -1.502  -1.865  0.00  0.00    +0.000 C 
ATOM      5  O   UNL     1       1.424  -0.105  -1.987  0.00  0.00    +0.000 OA
ATOM      6  C   UNL     1       0.457   0.663  -1.286  0.00  0.00    +0.000 C 
ENDROOT
BRANCH   1  10
ATOM      7  C   UNL     1      -3.422   3.253  -0.835  0.00  0.00    +0.000 C 
ATOM      8  C   UNL     1      -2.414   2.485  -1.626  0.00  0.00    +0.000 C 
ATOM      9  O   UNL     1      -1.921   2.998  -2.666  0.00  0.00    +0.000 OA
ATOM     10  N   UNL     1      -1.976   1.198  -1.168  0.00  0.00    +0.000 N 
ATOM     11  H   UNL     1      -2.337   0.857  -0.248  0.00  0.00    +0.000 HD
ENDBRANCH   1  10
BRANCH   2  12
ATOM     12  O   UNL     1      -1.497  -1.517  -0.519  0.00  0.00    +0.000 OA
ATOM     13  H   UNL     1      -2.091  -2.311  -0.555  0.00  0.00    +0.000 HD
ENDBRANCH   2  12
BRANCH   3  14
ATOM     14  O   UNL     1      -0.419  -3.260  -2.350  0.00  0.00    +0.000 OA
ATOM     15  H   UNL     1      -0.169  -3.705  -3.202  0.00  0.00    +0.000 HD
ENDBRANCH   3  14
BRANCH   4  16
ATOM     16  C   UNL     1       2.361  -2.231  -2.548  0.00  0.00    +0.000 C 
BRANCH  16  17
ATOM     17  O   UNL     1       2.344  -3.604  -2.260  0.00  0.00    +0.000 OA
ATOM     18  H   UNL     1       2.665  -3.703  -1.326  0.00  0.00    +0.000 HD
ENDBRANCH  16  17
ENDBRANCH   4  16
BRANCH   6  19
ATOM     19  O   UNL     1       0.527   0.381   0.121  0.00  0.00    +0.000 OA
BRANCH  19  20
ATOM     20  C   UNL     1       0.160   1.233   1.181  0.00  0.00    +0.000 A 
ATOM     21  C   UNL     1      -0.147   2.595   0.971  0.00  0.00    +0.000 A 
ATOM     22  C   UNL     1      -0.497   3.420   2.039  0.00  0.00    +0.000 A 
ATOM     23  C   UNL     1      -0.537   2.910   3.333  0.00  0.00    +0.000 A 
ATOM     24  C   UNL     1      -0.227   1.571   3.565  0.00  0.00    +0.000 A 
ATOM     25  C   UNL     1       0.122   0.715   2.501  0.00  0.00    +0.000 A 
BRANCH  25  26
ATOM     26  N   UNL     1       0.436  -0.667   2.779  0.00  0.00    +0.000 N 
ATOM     27  O   UNL     1       0.631  -1.045   3.953  0.00  0.00    +0.000 OA
ATOM     28  O   UNL     1       0.475  -1.607   1.776  0.00  0.00    +0.000 OA
ENDBRANCH  25  26
ENDBRANCH  19  20
ENDBRANCH   6  19
TORSDOF 8
