REMARK  Name = ZINC000044021353
REMARK  9 active torsions:
REMARK  status: ('A' for Active; 'I' for Inactive)
REMARK    1  A    between atoms: C_1  and  O_2
REMARK    2  A    between atoms: O_2  and  C_3
REMARK    3  A    between atoms: C_6  and  C_7
REMARK    4  A    between atoms: N_8  and  C_9
REMARK    5  A    between atoms: C_10  and  O_11
REMARK    6  A    between atoms: C_12  and  O_13
REMARK    7  A    between atoms: C_14  and  C_15
REMARK    8  A    between atoms: C_15  and  O_16
REMARK    9  A    between atoms: C_18  and  O_19
REMARK                            x       y       z     vdW  Elec       q    Type
REMARK                         _______ _______ _______ _____ _____    ______ ____
ROOT
ATOM      1  C   UNL     1      -0.847   0.613  -1.334  0.00  0.00    +0.000 C 
ATOM      2  C   UNL     1       0.484   1.389  -1.394  0.00  0.00    +0.000 C 
ATOM      3  C   UNL     1       0.314   2.617  -2.310  0.00  0.00    +0.000 C 
ATOM      4  C   UNL     1      -0.938   3.426  -1.882  0.00  0.00    +0.000 C 
ATOM      5  O   UNL     1      -2.096   2.604  -1.929  0.00  0.00    +0.000 OA
ATOM      6  C   UNL     1      -2.011   1.561  -0.973  0.00  0.00    +0.000 C 
ENDROOT
BRANCH   1   8
ATOM      7  C   UNL     1      -0.703  -0.501   0.859  0.00  0.00    +0.000 C 
ATOM      8  N   UNL     1      -0.767  -0.548  -0.439  0.00  0.00    +0.000 NA
BRANCH   7  12
ATOM      9  C   UNL     1      -0.467  -4.072   3.236  0.00  0.00    +0.000 A 
ATOM     10  C   UNL     1      -0.531  -4.164   1.833  0.00  0.00    +0.000 A 
ATOM     11  C   UNL     1      -0.608  -3.007   1.053  0.00  0.00    +0.000 A 
ATOM     12  C   UNL     1      -0.623  -1.738   1.660  0.00  0.00    +0.000 A 
ATOM     13  C   UNL     1      -0.559  -1.651   3.059  0.00  0.00    +0.000 A 
ATOM     14  C   UNL     1      -0.481  -2.809   3.838  0.00  0.00    +0.000 A 
BRANCH   9  16
ATOM     15  C   UNL     1      -0.365  -6.545   3.587  0.00  0.00    +0.000 C 
ATOM     16  O   UNL     1      -0.388  -5.203   4.062  0.00  0.00    +0.000 OA
ENDBRANCH   9  16
ENDBRANCH   7  12
ENDBRANCH   1   8
BRANCH   2  17
ATOM     17  O   UNL     1       0.871   1.800  -0.105  0.00  0.00    +0.000 OA
ATOM     18  H   UNL     1       1.859   1.896  -0.115  0.00  0.00    +0.000 HD
ENDBRANCH   2  17
BRANCH   3  19
ATOM     19  O   UNL     1       1.469   3.416  -2.235  0.00  0.00    +0.000 OA
ATOM     20  H   UNL     1       1.619   3.802  -3.137  0.00  0.00    +0.000 HD
ENDBRANCH   3  19
BRANCH   6  21
ATOM     21  O   UNL     1      -3.209   0.834  -0.987  0.00  0.00    +0.000 OA
ATOM     22  H   UNL     1      -3.914   1.449  -0.656  0.00  0.00    +0.000 HD
ENDBRANCH   6  21
BRANCH   4  23
ATOM     23  C   UNL     1      -1.160   4.624  -2.812  0.00  0.00    +0.000 C 
BRANCH  23  24
ATOM     24  O   UNL     1      -2.311   5.320  -2.418  0.00  0.00    +0.000 OA
ATOM     25  H   UNL     1      -2.411   6.072  -3.058  0.00  0.00    +0.000 HD
ENDBRANCH  23  24
ENDBRANCH   4  23
TORSDOF 8
