REMARK  Name = ZINC000044021353
REMARK  9 active torsions:
REMARK  status: ('A' for Active; 'I' for Inactive)
REMARK    1  A    between atoms: C_1  and  O_2
REMARK    2  A    between atoms: O_2  and  C_3
REMARK    3  A    between atoms: C_6  and  C_7
REMARK    4  A    between atoms: N_8  and  C_9
REMARK    5  A    between atoms: C_10  and  O_11
REMARK    6  A    between atoms: C_12  and  O_13
REMARK    7  A    between atoms: C_14  and  C_15
REMARK    8  A    between atoms: C_15  and  O_16
REMARK    9  A    between atoms: C_18  and  O_19
REMARK                            x       y       z     vdW  Elec       q    Type
REMARK                         _______ _______ _______ _____ _____    ______ ____
ROOT
ATOM      1  C   UNL     1      -1.301   0.483  -1.858  0.00  0.00    +0.000 C 
ATOM      2  C   UNL     1      -0.148   1.329  -2.424  0.00  0.00    +0.000 C 
ATOM      3  C   UNL     1       0.257   2.453  -1.437  0.00  0.00    +0.000 C 
ATOM      4  C   UNL     1      -0.990   2.996  -0.688  0.00  0.00    +0.000 C 
ATOM      5  O   UNL     1      -2.161   2.779  -1.455  0.00  0.00    +0.000 OA
ATOM      6  C   UNL     1      -2.505   1.401  -1.462  0.00  0.00    +0.000 C 
ENDROOT
BRANCH   1   8
ATOM      7  C   UNL     1      -1.489  -1.262  -0.178  0.00  0.00    +0.000 C 
ATOM      8  N   UNL     1      -0.827  -0.274  -0.699  0.00  0.00    +0.000 NA
BRANCH   7  12
ATOM      9  C   UNL     1      -0.017  -3.394   3.249  0.00  0.00    +0.000 A 
ATOM     10  C   UNL     1       0.718  -2.329   2.715  0.00  0.00    +0.000 A 
ATOM     11  C   UNL     1       0.249  -1.629   1.600  0.00  0.00    +0.000 A 
ATOM     12  C   UNL     1      -0.970  -1.986   0.999  0.00  0.00    +0.000 A 
ATOM     13  C   UNL     1      -1.708  -3.053   1.533  0.00  0.00    +0.000 A 
ATOM     14  C   UNL     1      -1.238  -3.753   2.648  0.00  0.00    +0.000 A 
BRANCH   9  16
ATOM     15  C   UNL     1      -0.142  -5.161   5.012  0.00  0.00    +0.000 C 
ATOM     16  O   UNL     1       0.498  -4.064   4.369  0.00  0.00    +0.000 OA
ENDBRANCH   9  16
ENDBRANCH   7  12
ENDBRANCH   1   8
BRANCH   2  17
ATOM     17  O   UNL     1       0.946   0.503  -2.734  0.00  0.00    +0.000 OA
ATOM     18  H   UNL     1       1.551   1.037  -3.313  0.00  0.00    +0.000 HD
ENDBRANCH   2  17
BRANCH   3  19
ATOM     19  O   UNL     1       1.183   1.975  -0.493  0.00  0.00    +0.000 OA
ATOM     20  H   UNL     1       2.084   2.039  -0.906  0.00  0.00    +0.000 HD
ENDBRANCH   3  19
BRANCH   6  21
ATOM     21  O   UNL     1      -3.550   1.222  -2.381  0.00  0.00    +0.000 OA
ATOM     22  H   UNL     1      -3.968   0.345  -2.175  0.00  0.00    +0.000 HD
ENDBRANCH   6  21
BRANCH   4  23
ATOM     23  C   UNL     1      -0.857   4.492  -0.380  0.00  0.00    +0.000 C 
BRANCH  23  24
ATOM     24  O   UNL     1      -0.872   5.239  -1.566  0.00  0.00    +0.000 OA
ATOM     25  H   UNL     1      -0.775   6.188  -1.294  0.00  0.00    +0.000 HD
ENDBRANCH  23  24
ENDBRANCH   4  23
TORSDOF 8
