REMARK  Name = ZINC000106381125
REMARK  13 active torsions:
REMARK  status: ('A' for Active; 'I' for Inactive)
REMARK    1  A    between atoms: O_2  and  C_3
REMARK    2  A    between atoms: C_3  and  C_42
REMARK    3  A    between atoms: N_4  and  C_5
REMARK    4  A    between atoms: C_7  and  O_9
REMARK    5  A    between atoms: O_9  and  C_10
REMARK    6  A    between atoms: C_10  and  C_11
REMARK    7  A    between atoms: C_10  and  C_15
REMARK    8  A    between atoms: C_10  and  C_19
REMARK    9  A    between atoms: C_19  and  C_22
REMARK   10  A    between atoms: C_27  and  C_29
REMARK   11  A    between atoms: C_29  and  O_32
REMARK   12  A    between atoms: C_34  and  O_36
REMARK   13  A    between atoms: C_38  and  O_40
REMARK                            x       y       z     vdW  Elec       q    Type
REMARK                         _______ _______ _______ _____ _____    ______ ____
ROOT
ATOM      1  C   UNL     1      -1.591   0.091   0.865  0.00  0.00    +0.000 C 
ATOM      2  C   UNL     1      -0.374  -0.713   0.352  0.00  0.00    +0.000 C 
ATOM      3  O   UNL     1      -0.723  -2.083   0.246  0.00  0.00    +0.000 OA
ATOM      4  C   UNL     1      -0.976  -2.641   1.525  0.00  0.00    +0.000 C 
ATOM      5  C   UNL     1      -2.227  -1.985   2.152  0.00  0.00    +0.000 C 
ATOM      6  C   UNL     1      -2.031  -0.456   2.235  0.00  0.00    +0.000 C 
ENDROOT
BRANCH   1   8
ATOM      7  C   UNL     1      -1.277   2.421   0.070  0.00  0.00    +0.000 C 
ATOM      8  N   UNL     1      -1.253   1.511   1.002  0.00  0.00    +0.000 NA
ATOM      9  C   UNL     1      -0.867   3.813   0.416  0.00  0.00    +0.000 C 
BRANCH   7  11
ATOM     10  H   UNL     1      -2.012   1.246  -1.552  0.00  0.00    +0.000 HD
ATOM     11  O   UNL     1      -1.691   2.151  -1.238  0.00  0.00    +0.000 OA
ENDBRANCH   7  11
ENDBRANCH   1   8
BRANCH   5  12
ATOM     12  O   UNL     1      -2.458  -2.516   3.432  0.00  0.00    +0.000 OA
ATOM     13  H   UNL     1      -3.383  -2.260   3.684  0.00  0.00    +0.000 HD
ENDBRANCH   5  12
BRANCH   6  14
ATOM     14  O   UNL     1      -1.065  -0.140   3.208  0.00  0.00    +0.000 OA
ATOM     15  H   UNL     1      -1.528  -0.133   4.086  0.00  0.00    +0.000 HD
ENDBRANCH   6  14
BRANCH   2  16
ATOM     16  O   UNL     1      -0.027  -0.242  -0.941  0.00  0.00    +0.000 OA
BRANCH  16  17
ATOM     17  C   UNL     1       1.365  -0.292  -1.258  0.00  0.00    +0.000 C 
ATOM     18  C   UNL     1       2.143   0.778  -0.452  0.00  0.00    +0.000 C 
ATOM     19  C   UNL     1       1.449   0.088  -2.750  0.00  0.00    +0.000 C 
BRANCH  17  20
ATOM     20  C   UNL     1       1.960  -1.725  -1.046  0.00  0.00    +0.000 C 
ATOM     21  C   UNL     1       3.397  -1.915  -1.546  0.00  0.00    +0.000 C 
ENDBRANCH  17  20
ENDBRANCH  16  17
ENDBRANCH   2  16
BRANCH   4  22
ATOM     22  C   UNL     1      -1.177  -4.155   1.362  0.00  0.00    +0.000 C 
BRANCH  22  23
ATOM     23  O   UNL     1      -0.051  -4.735   0.759  0.00  0.00    +0.000 OA
ATOM     24  H   UNL     1       0.658  -4.767   1.453  0.00  0.00    +0.000 HD
ENDBRANCH  22  23
ENDBRANCH   4  22
TORSDOF 9
