REMARK  Name = ZINC000015205814
REMARK  10 active torsions:
REMARK  status: ('A' for Active; 'I' for Inactive)
REMARK    1  A    between atoms: O_2  and  C_3
REMARK    2  A    between atoms: C_3  and  C_39
REMARK    3  A    between atoms: N_4  and  C_5
REMARK    4  A    between atoms: C_7  and  O_9
REMARK    5  A    between atoms: O_9  and  C_10
REMARK    6  A    between atoms: C_15  and  N_16
REMARK    7  A    between atoms: C_24  and  C_26
REMARK    8  A    between atoms: C_26  and  O_29
REMARK    9  A    between atoms: C_31  and  O_33
REMARK   10  A    between atoms: C_35  and  O_37
REMARK                            x       y       z     vdW  Elec       q    Type
REMARK                         _______ _______ _______ _____ _____    ______ ____
ROOT
ATOM      1  C   UNL     1       1.236  -0.736   1.323  0.00  0.00    +0.000 C 
ATOM      2  C   UNL     1       0.181   0.376   1.117  0.00  0.00    +0.000 C 
ATOM      3  O   UNL     1      -0.237   0.874   2.376  0.00  0.00    +0.000 OA
ATOM      4  C   UNL     1      -0.929  -0.122   3.112  0.00  0.00    +0.000 C 
ATOM      5  C   UNL     1       0.031  -1.282   3.469  0.00  0.00    +0.000 C 
ATOM      6  C   UNL     1       0.644  -1.868   2.184  0.00  0.00    +0.000 C 
ENDROOT
BRANCH   1   8
ATOM      7  C   UNL     1       2.772  -1.936  -0.157  0.00  0.00    +0.000 C 
ATOM      8  N   UNL     1       1.680  -1.259   0.030  0.00  0.00    +0.000 NA
ATOM      9  C   UNL     1       3.103  -2.429  -1.528  0.00  0.00    +0.000 C 
BRANCH   7  11
ATOM     10  H   UNL     1       4.466  -2.768   0.776  0.00  0.00    +0.000 HD
ATOM     11  O   UNL     1       3.620  -2.227   0.911  0.00  0.00    +0.000 OA
ENDBRANCH   7  11
ENDBRANCH   1   8
BRANCH   5  12
ATOM     12  O   UNL     1      -0.654  -2.296   4.163  0.00  0.00    +0.000 OA
ATOM     13  H   UNL     1      -0.536  -2.120   5.133  0.00  0.00    +0.000 HD
ENDBRANCH   5  12
BRANCH   6  14
ATOM     14  O   UNL     1      -0.335  -2.560   1.446  0.00  0.00    +0.000 OA
ATOM     15  H   UNL     1      -0.389  -3.477   1.822  0.00  0.00    +0.000 HD
ENDBRANCH   6  14
BRANCH   2  16
ATOM     16  O   UNL     1       0.761   1.466   0.395  0.00  0.00    +0.000 OA
BRANCH  16  17
ATOM     17  C   UNL     1       0.927   1.557  -0.999  0.00  0.00    +0.000 A 
ATOM     18  C   UNL     1       0.352   0.646  -1.907  0.00  0.00    +0.000 A 
ATOM     19  C   UNL     1       0.564   0.788  -3.281  0.00  0.00    +0.000 A 
ATOM     20  C   UNL     1       1.345   1.846  -3.779  0.00  0.00    +0.000 A 
ATOM     21  C   UNL     1       1.906   2.760  -2.871  0.00  0.00    +0.000 A 
ATOM     22  C   UNL     1       1.695   2.615  -1.497  0.00  0.00    +0.000 A 
BRANCH  20  23
ATOM     23  N   UNL     1       1.566   1.995  -5.193  0.00  0.00    +0.000 N 
ATOM     24  O   UNL     1       1.071   1.185  -6.004  0.00  0.00    +0.000 OA
ATOM     25  O   UNL     1       2.330   3.033  -5.676  0.00  0.00    +0.000 OA
ENDBRANCH  20  23
ENDBRANCH  16  17
ENDBRANCH   2  16
BRANCH   4  26
ATOM     26  C   UNL     1      -1.503   0.526   4.381  0.00  0.00    +0.000 C 
BRANCH  26  27
ATOM     27  O   UNL     1      -2.323   1.613   4.047  0.00  0.00    +0.000 OA
ATOM     28  H   UNL     1      -3.173   1.233   3.701  0.00  0.00    +0.000 HD
ENDBRANCH  26  27
ENDBRANCH   4  26
TORSDOF 9
