REMARK  Name = ZINC000164373873
REMARK  7 active torsions:
REMARK  status: ('A' for Active; 'I' for Inactive)
REMARK    1  A    between atoms: C_1  and  O_2
REMARK    2  A    between atoms: O_2  and  C_3
REMARK    3  A    between atoms: C_5  and  C_6
REMARK    4  A    between atoms: C_6  and  O_7
REMARK    5  A    between atoms: C_8  and  O_9
REMARK    6  A    between atoms: C_10  and  O_11
REMARK    7  A    between atoms: C_12  and  N_13
REMARK                            x       y       z     vdW  Elec       q    Type
REMARK                         _______ _______ _______ _____ _____    ______ ____
ROOT
ATOM      1  C   UNL     1       1.025   0.570   0.129  0.00  0.00    +0.000 C 
ATOM      2  O   UNL     1      -0.272   1.147   0.171  0.00  0.00    +0.000 OA
ATOM      3  C   UNL     1      -1.191   0.383  -0.591  0.00  0.00    +0.000 C 
ATOM      4  C   UNL     1      -1.384  -1.016   0.047  0.00  0.00    +0.000 C 
ATOM      5  C   UNL     1      -0.026  -1.735   0.143  0.00  0.00    +0.000 C 
ATOM      6  C   UNL     1       1.007  -0.811   0.826  0.00  0.00    +0.000 C 
ENDROOT
BRANCH   6   7
ATOM      7  N   UNL     1       2.342  -1.425   0.829  0.00  0.00    +0.000 N 
ATOM      8  H   UNL     1       2.725  -1.490  -0.143  0.00  0.00    +0.000 HD
ATOM      9  H   UNL     1       2.995  -0.853   1.413  0.00  0.00    +0.000 HD
ATOM     10  H   UNL     1       2.293  -2.383   1.244  0.00  0.00    +0.000 HD
ENDBRANCH   6   7
BRANCH   1  12
ATOM     11  C   UNL     1       2.245   2.538   0.035  0.00  0.00    +0.000 C 
ATOM     12  O   UNL     1       1.923   1.414   0.825  0.00  0.00    +0.000 OA
ENDBRANCH   1  12
BRANCH   4  13
ATOM     13  O   UNL     1      -2.269  -1.793  -0.721  0.00  0.00    +0.000 OA
ATOM     14  H   UNL     1      -3.178  -1.661  -0.344  0.00  0.00    +0.000 HD
ENDBRANCH   4  13
BRANCH   5  15
ATOM     15  O   UNL     1       0.428  -2.094  -1.140  0.00  0.00    +0.000 OA
ATOM     16  H   UNL     1       0.001  -2.962  -1.367  0.00  0.00    +0.000 HD
ENDBRANCH   5  15
BRANCH   3  17
ATOM     17  C   UNL     1      -2.513   1.157  -0.673  0.00  0.00    +0.000 C 
BRANCH  17  18
ATOM     18  O   UNL     1      -3.043   1.359   0.609  0.00  0.00    +0.000 OA
ATOM     19  H   UNL     1      -3.891   1.858   0.481  0.00  0.00    +0.000 HD
ENDBRANCH  17  18
ENDBRANCH   3  17
TORSDOF 6
