REMARK  Name = ZINC000106382931
REMARK  9 active torsions:
REMARK  status: ('A' for Active; 'I' for Inactive)
REMARK    1  A    between atoms: O_2  and  C_3
REMARK    2  A    between atoms: C_3  and  C_37
REMARK    3  A    between atoms: N_4  and  C_5
REMARK    4  A    between atoms: C_7  and  O_9
REMARK    5  A    between atoms: O_9  and  C_10
REMARK    6  A    between atoms: C_22  and  C_24
REMARK    7  A    between atoms: C_24  and  O_27
REMARK    8  A    between atoms: C_29  and  O_31
REMARK    9  A    between atoms: C_33  and  O_35
REMARK                            x       y       z     vdW  Elec       q    Type
REMARK                         _______ _______ _______ _____ _____    ______ ____
ROOT
ATOM      1  C   UNL     1      -1.199   1.237   0.214  0.00  0.00    +0.000 C 
ATOM      2  C   UNL     1      -0.075   0.203   0.032  0.00  0.00    +0.000 C 
ATOM      3  O   UNL     1       0.686   0.510  -1.123  0.00  0.00    +0.000 OA
ATOM      4  C   UNL     1      -0.097   0.354  -2.295  0.00  0.00    +0.000 C 
ATOM      5  C   UNL     1      -1.248   1.392  -2.304  0.00  0.00    +0.000 C 
ATOM      6  C   UNL     1      -2.106   1.237  -1.036  0.00  0.00    +0.000 C 
ENDROOT
BRANCH   1   8
ATOM      7  C   UNL     1      -2.639   1.738   2.166  0.00  0.00    +0.000 C 
ATOM      8  N   UNL     1      -1.972   0.908   1.416  0.00  0.00    +0.000 NA
ATOM      9  C   UNL     1      -2.664   3.220   1.901  0.00  0.00    +0.000 C 
BRANCH   7  11
ATOM     10  H   UNL     1      -3.857   1.829   3.885  0.00  0.00    +0.000 HD
ATOM     11  O   UNL     1      -3.330   1.229   3.262  0.00  0.00    +0.000 OA
ENDBRANCH   7  11
ENDBRANCH   1   8
BRANCH   5  12
ATOM     12  O   UNL     1      -2.066   1.219  -3.435  0.00  0.00    +0.000 OA
ATOM     13  H   UNL     1      -1.765   1.873  -4.119  0.00  0.00    +0.000 HD
ENDBRANCH   5  12
BRANCH   6  14
ATOM     14  O   UNL     1      -2.842   0.040  -1.110  0.00  0.00    +0.000 OA
ATOM     15  H   UNL     1      -3.650   0.160  -0.545  0.00  0.00    +0.000 HD
ENDBRANCH   6  14
BRANCH   2  16
ATOM     16  O   UNL     1       0.780   0.250   1.174  0.00  0.00    +0.000 OA
BRANCH  16  17
ATOM     17  C   UNL     1       1.853  -0.624   1.409  0.00  0.00    +0.000 A 
ATOM     18  C   UNL     1       2.621  -0.435   2.566  0.00  0.00    +0.000 A 
ATOM     19  C   UNL     1       3.701  -1.278   2.846  0.00  0.00    +0.000 A 
ATOM     20  C   UNL     1       4.021  -2.320   1.972  0.00  0.00    +0.000 A 
ATOM     21  F   UNL     1       5.069  -3.137   2.244  0.00  0.00    +0.000 F 
ATOM     22  C   UNL     1       3.262  -2.519   0.816  0.00  0.00    +0.000 A 
ATOM     23  C   UNL     1       2.181  -1.678   0.532  0.00  0.00    +0.000 A 
ENDBRANCH  16  17
ENDBRANCH   2  16
BRANCH   4  24
ATOM     24  C   UNL     1       0.829   0.525  -3.507  0.00  0.00    +0.000 C 
BRANCH  24  25
ATOM     25  O   UNL     1       0.183   0.111  -4.679  0.00  0.00    +0.000 OA
ATOM     26  H   UNL     1       0.827   0.267  -5.418  0.00  0.00    +0.000 HD
ENDBRANCH  24  25
ENDBRANCH   4  24
TORSDOF 8
