REMARK  Name = ZINC000077269504
REMARK  6 active torsions:
REMARK  status: ('A' for Active; 'I' for Inactive)
REMARK    1  A    between atoms: O_2  and  C_3
REMARK    2  A    between atoms: C_3  and  C_38
REMARK    3  A    between atoms: N_4  and  C_5
REMARK    4  A    between atoms: C_7  and  O_9
REMARK    5  A    between atoms: C_18  and  C_20
REMARK    6  A    between atoms: C_34  and  O_36
REMARK                            x       y       z     vdW  Elec       q    Type
REMARK                         _______ _______ _______ _____ _____    ______ ____
ROOT
ATOM      1  C   UNL     1      -1.731  -0.219   2.952  0.00  0.00    +0.000 C 
ATOM      2  C   UNL     1      -0.421  -0.793   3.555  0.00  0.00    +0.000 C 
ATOM      3  O   UNL     1       0.703   0.018   3.237  0.00  0.00    +0.000 OA
ATOM      4  C   UNL     1       0.880   0.106   1.833  0.00  0.00    +0.000 C 
ATOM      5  C   UNL     1       2.133   0.913   1.504  0.00  0.00    +0.000 C 
ATOM      6  O   UNL     1       2.248   1.079   0.103  0.00  0.00    +0.000 OA
ATOM      7  C   UNL     1       1.106   1.755  -0.403  0.00  0.00    +0.000 C 
ATOM      8  O   UNL     1      -0.073   0.987  -0.204  0.00  0.00    +0.000 OA
ATOM      9  C   UNL     1      -0.305   0.829   1.182  0.00  0.00    +0.000 C 
ATOM     10  C   UNL     1      -1.587   0.024   1.433  0.00  0.00    +0.000 C 
ENDROOT
BRANCH   7  11
ATOM     11  C   UNL     1       1.294   1.958  -1.884  0.00  0.00    +0.000 A 
ATOM     12  C   UNL     1       1.343   3.252  -2.433  0.00  0.00    +0.000 A 
ATOM     13  C   UNL     1       1.520   3.426  -3.810  0.00  0.00    +0.000 A 
ATOM     14  C   UNL     1       1.649   2.315  -4.647  0.00  0.00    +0.000 A 
ATOM     15  C   UNL     1       1.602   1.026  -4.110  0.00  0.00    +0.000 A 
ATOM     16  C   UNL     1       1.426   0.846  -2.735  0.00  0.00    +0.000 A 
ENDBRANCH   7  11
BRANCH   1  18
ATOM     17  C   UNL     1      -4.102  -0.787   3.154  0.00  0.00    +0.000 C 
ATOM     18  N   UNL     1      -2.849  -1.122   3.235  0.00  0.00    +0.000 NA
ATOM     19  C   UNL     1      -5.155  -1.799   3.472  0.00  0.00    +0.000 C 
BRANCH  17  21
ATOM     20  H   UNL     1      -5.445   0.787   2.764  0.00  0.00    +0.000 HD
ATOM     21  O   UNL     1      -4.471   0.513   2.812  0.00  0.00    +0.000 OA
ENDBRANCH  17  21
ENDBRANCH   1  18
BRANCH   2  22
ATOM     22  O   UNL     1      -0.199  -2.122   3.145  0.00  0.00    +0.000 OA
ATOM     23  H   UNL     1      -0.765  -2.704   3.717  0.00  0.00    +0.000 HD
ENDBRANCH   2  22
BRANCH  10  24
ATOM     24  O   UNL     1      -1.546  -1.205   0.750  0.00  0.00    +0.000 OA
ATOM     25  H   UNL     1      -1.797  -1.020  -0.193  0.00  0.00    +0.000 HD
ENDBRANCH  10  24
TORSDOF 5
