REMARK  Name = ZINC000101136391
REMARK  8 active torsions:
REMARK  status: ('A' for Active; 'I' for Inactive)
REMARK    1  A    between atoms: N_1  and  C_2
REMARK    2  A    between atoms: C_3  and  O_4
REMARK    3  A    between atoms: C_5  and  O_6
REMARK    4  A    between atoms: C_7  and  C_8
REMARK    5  A    between atoms: C_8  and  O_9
REMARK    6  A    between atoms: C_11  and  O_12
REMARK    7  A    between atoms: O_12  and  C_13
REMARK    8  A    between atoms: C_13  and  C_14
REMARK                            x       y       z     vdW  Elec       q    Type
REMARK                         _______ _______ _______ _____ _____    ______ ____
ROOT
ATOM      1  C   UNL     1      -0.555   0.653   0.285  0.00  0.00    +0.000 C 
ATOM      2  C   UNL     1      -2.002   1.095  -0.032  0.00  0.00    +0.000 C 
ATOM      3  C   UNL     1      -2.929  -0.130  -0.212  0.00  0.00    +0.000 C 
ATOM      4  C   UNL     1      -2.157  -1.306  -0.865  0.00  0.00    +0.000 C 
ATOM      5  O   UNL     1      -1.090  -0.808  -1.653  0.00  0.00    +0.000 OA
ATOM      6  C   UNL     1      -0.040  -0.317  -0.830  0.00  0.00    +0.000 C 
ENDROOT
BRANCH   1   7
ATOM      7  N   UNL     1      -0.490   0.004   1.599  0.00  0.00    +0.000 NA
ATOM      8  H   UNL     1      -0.769   0.698   2.330  0.00  0.00    +0.000 HD
ATOM      9  H   UNL     1       0.510  -0.225   1.803  0.00  0.00    +0.000 HD
ENDBRANCH   1   7
BRANCH   2  10
ATOM     10  O   UNL     1      -2.502   1.953   0.962  0.00  0.00    +0.000 OA
ATOM     11  H   UNL     1      -2.022   2.816   0.865  0.00  0.00    +0.000 HD
ENDBRANCH   2  10
BRANCH   3  12
ATOM     12  O   UNL     1      -3.441  -0.553   1.028  0.00  0.00    +0.000 OA
ATOM     13  H   UNL     1      -4.242   0.002   1.218  0.00  0.00    +0.000 HD
ENDBRANCH   3  12
BRANCH   4  14
ATOM     14  C   UNL     1      -3.085  -2.150  -1.748  0.00  0.00    +0.000 C 
BRANCH  14  15
ATOM     15  O   UNL     1      -2.412  -3.285  -2.222  0.00  0.00    +0.000 OA
ATOM     16  H   UNL     1      -1.859  -2.989  -2.992  0.00  0.00    +0.000 HD
ENDBRANCH  14  15
ENDBRANCH   4  14
BRANCH   6  17
ATOM     17  O   UNL     1       0.856   0.403  -1.666  0.00  0.00    +0.000 OA
BRANCH  17  18
ATOM     18  C   UNL     1       2.171  -0.116  -1.611  0.00  0.00    +0.000 C 
BRANCH  18  19
ATOM     19  C   UNL     1       2.854   0.277  -0.326  0.00  0.00    +0.000 A 
ATOM     20  C   UNL     1       3.103   1.631  -0.049  0.00  0.00    +0.000 A 
ATOM     21  C   UNL     1       3.706   2.004   1.156  0.00  0.00    +0.000 A 
ATOM     22  C   UNL     1       4.064   1.029   2.091  0.00  0.00    +0.000 A 
ATOM     23  C   UNL     1       3.820  -0.321   1.822  0.00  0.00    +0.000 A 
ATOM     24  C   UNL     1       3.217  -0.698   0.618  0.00  0.00    +0.000 A 
ENDBRANCH  18  19
ENDBRANCH  17  18
ENDBRANCH   6  17
TORSDOF 8
