REMARK  Name = 54758613
REMARK  9 active torsions:
REMARK  status: ('A' for Active; 'I' for Inactive)
REMARK    1  A    between atoms: O_2  and  C_3
REMARK    2  A    between atoms: C_3  and  C_30
REMARK    3  A    between atoms: N_4  and  C_5
REMARK    4  A    between atoms: C_7  and  O_9
REMARK    5  A    between atoms: C_12  and  C_14
REMARK    6  A    between atoms: C_14  and  O_17
REMARK    7  A    between atoms: O_17  and  S_18
REMARK    8  A    between atoms: C_22  and  O_24
REMARK    9  A    between atoms: C_26  and  O_28
REMARK                            x       y       z     vdW  Elec       q    Type
REMARK                         _______ _______ _______ _____ _____    ______ ____
ROOT
ATOM      1  C   UNL     1      -1.279   0.111   0.121  0.00  0.00    +0.000 C 
ATOM      2  C   UNL     1      -0.683  -0.861  -0.922  0.00  0.00    +0.000 C 
ATOM      3  O   UNL     1       0.602  -1.304  -0.514  0.00  0.00    +0.000 OA
ATOM      4  C   UNL     1       1.515  -0.221  -0.479  0.00  0.00    +0.000 C 
ATOM      5  C   UNL     1       1.108   0.780   0.625  0.00  0.00    +0.000 C 
ATOM      6  C   UNL     1      -0.314   1.294   0.337  0.00  0.00    +0.000 C 
ENDROOT
BRANCH   1   8
ATOM      7  C   UNL     1      -3.711   0.029  -0.174  0.00  0.00    +0.000 C 
ATOM      8  N   UNL     1      -2.570   0.627  -0.344  0.00  0.00    +0.000 NA
ATOM      9  C   UNL     1      -4.959   0.665  -0.696  0.00  0.00    +0.000 C 
BRANCH   7  11
ATOM     10  H   UNL     1      -4.676  -1.637   0.679  0.00  0.00    +0.000 HD
ATOM     11  O   UNL     1      -3.788  -1.175   0.526  0.00  0.00    +0.000 OA
ENDBRANCH   7  11
ENDBRANCH   1   8
BRANCH   2  12
ATOM     12  O   UNL     1      -1.522  -1.976  -1.049  0.00  0.00    +0.000 OA
ATOM     13  H   UNL     1      -1.166  -2.512  -1.806  0.00  0.00    +0.000 HD
ENDBRANCH   2  12
BRANCH   5  14
ATOM     14  O   UNL     1       1.151   0.147   1.881  0.00  0.00    +0.000 OA
ATOM     15  H   UNL     1       1.287   0.859   2.560  0.00  0.00    +0.000 HD
ENDBRANCH   5  14
BRANCH   6  16
ATOM     16  O   UNL     1      -0.752   2.092   1.407  0.00  0.00    +0.000 OA
ATOM     17  H   UNL     1      -1.479   2.671   1.058  0.00  0.00    +0.000 HD
ENDBRANCH   6  16
BRANCH   4  18
ATOM     18  C   UNL     1       2.927  -0.775  -0.249  0.00  0.00    +0.000 C 
BRANCH  18  19
ATOM     19  O   UNL     1       3.863   0.276  -0.288  0.00  0.00    +0.000 OA
BRANCH  19  20
ATOM     20  S   UNL     1       5.403  -0.360   0.023  0.00  0.00    +0.000 S 
ATOM     21  O   UNL     1       5.452  -0.955   1.403  0.00  0.00    +0.000 OA
ATOM     22  O   UNL     1       5.751  -1.411  -0.995  0.00  0.00    +0.000 OA
ATOM     23  O   UNL     1       6.528   0.882  -0.074  0.00  0.00    +0.000 OA
ENDBRANCH  19  20
ENDBRANCH  18  19
ENDBRANCH   4  18
TORSDOF 8
