REMARK  Name = ZINC000082114392
REMARK  7 active torsions:
REMARK  status: ('A' for Active; 'I' for Inactive)
REMARK    1  A    between atoms: C_1  and  O_2
REMARK    2  A    between atoms: O_2  and  C_3
REMARK    3  A    between atoms: C_5  and  C_6
REMARK    4  A    between atoms: C_6  and  O_7
REMARK    5  A    between atoms: C_8  and  O_9
REMARK    6  A    between atoms: C_10  and  O_11
REMARK    7  A    between atoms: C_12  and  N_13
REMARK                            x       y       z     vdW  Elec       q    Type
REMARK                         _______ _______ _______ _____ _____    ______ ____
ROOT
ATOM      1  C   UNL     1      -1.362   0.521  -0.734  0.00  0.00    +0.000 C 
ATOM      2  O   UNL     1      -1.115   1.000   0.581  0.00  0.00    +0.000 OA
ATOM      3  C   UNL     1      -0.507   0.010   1.399  0.00  0.00    +0.000 C 
ATOM      4  C   UNL     1       0.888  -0.367   0.846  0.00  0.00    +0.000 C 
ATOM      5  C   UNL     1       0.757  -0.875  -0.601  0.00  0.00    +0.000 C 
ATOM      6  C   UNL     1      -0.039   0.143  -1.439  0.00  0.00    +0.000 C 
ENDROOT
BRANCH   6   7
ATOM      7  N   UNL     1      -0.304  -0.390  -2.777  0.00  0.00    +0.000 NA
ATOM      8  H   UNL     1       0.614  -0.567  -3.248  0.00  0.00    +0.000 HD
ATOM      9  H   UNL     1      -0.777   0.354  -3.340  0.00  0.00    +0.000 HD
ENDBRANCH   6   7
BRANCH   1  11
ATOM     10  C   UNL     1      -3.561  -0.147  -0.418  0.00  0.00    +0.000 C 
ATOM     11  O   UNL     1      -2.256  -0.582  -0.730  0.00  0.00    +0.000 OA
ENDBRANCH   1  11
BRANCH   4  12
ATOM     12  O   UNL     1       1.480  -1.367   1.637  0.00  0.00    +0.000 OA
ATOM     13  H   UNL     1       2.060  -0.912   2.302  0.00  0.00    +0.000 HD
ENDBRANCH   4  12
BRANCH   5  14
ATOM     14  O   UNL     1       0.113  -2.126  -0.628  0.00  0.00    +0.000 OA
ATOM     15  H   UNL     1       0.807  -2.814  -0.453  0.00  0.00    +0.000 HD
ENDBRANCH   5  14
BRANCH   3  16
ATOM     16  C   UNL     1      -0.401   0.565   2.824  0.00  0.00    +0.000 C 
BRANCH  16  17
ATOM     17  O   UNL     1      -1.675   0.919   3.288  0.00  0.00    +0.000 OA
ATOM     18  H   UNL     1      -1.544   1.281   4.203  0.00  0.00    +0.000 HD
ENDBRANCH  16  17
ENDBRANCH   3  16
TORSDOF 6
