REMARK  Name = ZINC000004027859
REMARK  6 active torsions:
REMARK  status: ('A' for Active; 'I' for Inactive)
REMARK    1  A    between atoms: O_2  and  C_3
REMARK    2  A    between atoms: C_3  and  C_38
REMARK    3  A    between atoms: N_4  and  C_5
REMARK    4  A    between atoms: C_7  and  O_9
REMARK    5  A    between atoms: C_14  and  C_16
REMARK    6  A    between atoms: C_34  and  O_36
REMARK                            x       y       z     vdW  Elec       q    Type
REMARK                         _______ _______ _______ _____ _____    ______ ____
ROOT
ATOM      1  C   UNL     1       1.988   0.159  -1.500  0.00  0.00    +0.000 C 
ATOM      2  C   UNL     1       1.373  -0.756  -0.416  0.00  0.00    +0.000 C 
ATOM      3  C   UNL     1       0.875   0.115   0.742  0.00  0.00    +0.000 C 
ATOM      4  O   UNL     1       0.192  -0.655   1.704  0.00  0.00    +0.000 OA
ATOM      5  C   UNL     1      -0.196   0.145   2.823  0.00  0.00    +0.000 C 
ATOM      6  O   UNL     1      -0.093   1.557   2.622  0.00  0.00    +0.000 OA
ATOM      7  C   UNL     1      -0.660   1.962   1.388  0.00  0.00    +0.000 C 
ATOM      8  C   UNL     1      -0.078   1.181   0.198  0.00  0.00    +0.000 C 
ATOM      9  O   UNL     1       0.617   2.038  -0.690  0.00  0.00    +0.000 OA
ATOM     10  C   UNL     1       1.012   1.317  -1.852  0.00  0.00    +0.000 C 
ENDROOT
BRANCH   5  11
ATOM     11  C   UNL     1      -1.586  -0.224   3.293  0.00  0.00    +0.000 A 
ATOM     12  C   UNL     1      -1.944  -0.012   4.636  0.00  0.00    +0.000 A 
ATOM     13  C   UNL     1      -3.235  -0.314   5.080  0.00  0.00    +0.000 A 
ATOM     14  C   UNL     1      -4.183  -0.818   4.186  0.00  0.00    +0.000 A 
ATOM     15  C   UNL     1      -3.844  -1.017   2.846  0.00  0.00    +0.000 A 
ATOM     16  C   UNL     1      -2.554  -0.718   2.397  0.00  0.00    +0.000 A 
ENDBRANCH   5  11
BRANCH   1  18
ATOM     17  C   UNL     1       3.234  -0.356  -3.548  0.00  0.00    +0.000 C 
ATOM     18  N   UNL     1       2.298  -0.636  -2.691  0.00  0.00    +0.000 NA
ATOM     19  C   UNL     1       3.426  -1.236  -4.741  0.00  0.00    +0.000 C 
BRANCH  17  21
ATOM     20  H   UNL     1       4.768   0.996  -4.049  0.00  0.00    +0.000 HD
ATOM     21  O   UNL     1       4.046   0.764  -3.377  0.00  0.00    +0.000 OA
ENDBRANCH  17  21
ENDBRANCH   1  18
BRANCH   2  22
ATOM     22  O   UNL     1       0.305  -1.506  -0.942  0.00  0.00    +0.000 OA
ATOM     23  H   UNL     1       0.696  -2.322  -1.351  0.00  0.00    +0.000 HD
ENDBRANCH   2  22
BRANCH  10  24
ATOM     24  O   UNL     1       1.613   2.203  -2.758  0.00  0.00    +0.000 OA
ATOM     25  H   UNL     1       2.326   2.686  -2.264  0.00  0.00    +0.000 HD
ENDBRANCH  10  24
TORSDOF 5
