REMARK  Name = ZINC000106382957
REMARK  9 active torsions:
REMARK  status: ('A' for Active; 'I' for Inactive)
REMARK    1  A    between atoms: C_1  and  C_2
REMARK    2  A    between atoms: N_4  and  C_5
REMARK    3  A    between atoms: C_6  and  O_7
REMARK    4  A    between atoms: O_7  and  C_8
REMARK    5  A    between atoms: C_13  and  C_14
REMARK    6  A    between atoms: C_17  and  C_18
REMARK    7  A    between atoms: C_18  and  O_19
REMARK    8  A    between atoms: C_20  and  O_21
REMARK    9  A    between atoms: C_22  and  O_23
REMARK                            x       y       z     vdW  Elec       q    Type
REMARK                         _______ _______ _______ _____ _____    ______ ____
ROOT
ATOM      1  C   UNL     1       1.968   0.022  -0.200  0.00  0.00    +0.000 C 
ATOM      2  C   UNL     1       1.785   1.006   0.980  0.00  0.00    +0.000 C 
ATOM      3  O   UNL     1       2.983   1.068   1.734  0.00  0.00    +0.000 OA
ATOM      4  C   UNL     1       3.259  -0.176   2.357  0.00  0.00    +0.000 C 
ATOM      5  C   UNL     1       3.545  -1.258   1.286  0.00  0.00    +0.000 C 
ATOM      6  C   UNL     1       2.343  -1.373   0.330  0.00  0.00    +0.000 C 
ENDROOT
BRANCH   1  10
ATOM      7  C   UNL     1      -0.649   0.495  -3.060  0.00  0.00    +0.000 C 
ATOM      8  C   UNL     1       0.654   0.520  -2.330  0.00  0.00    +0.000 C 
ATOM      9  O   UNL     1       1.644   1.098  -2.854  0.00  0.00    +0.000 OA
ATOM     10  N   UNL     1       0.753  -0.056  -1.019  0.00  0.00    +0.000 N 
ATOM     11  H   UNL     1      -0.109  -0.472  -0.599  0.00  0.00    +0.000 HD
ENDBRANCH   1  10
BRANCH   5  12
ATOM     12  O   UNL     1       3.780  -2.505   1.892  0.00  0.00    +0.000 OA
ATOM     13  H   UNL     1       4.761  -2.596   2.007  0.00  0.00    +0.000 HD
ENDBRANCH   5  12
BRANCH   6  14
ATOM     14  O   UNL     1       1.244  -1.944   0.999  0.00  0.00    +0.000 OA
ATOM     15  H   UNL     1       1.355  -2.930   0.952  0.00  0.00    +0.000 HD
ENDBRANCH   6  14
BRANCH   2  16
ATOM     16  O   UNL     1       1.527   2.321   0.477  0.00  0.00    +0.000 OA
BRANCH  16  17
ATOM     17  C   UNL     1       0.291   2.830   0.032  0.00  0.00    +0.000 A 
ATOM     18  C   UNL     1      -0.938   2.217   0.356  0.00  0.00    +0.000 A 
ATOM     19  C   UNL     1      -2.140   2.751  -0.111  0.00  0.00    +0.000 A 
ATOM     20  C   UNL     1      -2.138   3.899  -0.900  0.00  0.00    +0.000 A 
ATOM     21  C   UNL     1      -0.933   4.523  -1.222  0.00  0.00    +0.000 A 
ATOM     22  C   UNL     1       0.289   4.000  -0.760  0.00  0.00    +0.000 A 
BRANCH  22  23
ATOM     23  C   UNL     1       1.562   4.663  -1.116  0.00  0.00    +0.000 C 
ATOM     24  O   UNL     1       1.576   5.705  -1.823  0.00  0.00    +0.000 OA
ENDBRANCH  22  23
ENDBRANCH  16  17
ENDBRANCH   2  16
BRANCH   4  25
ATOM     25  C   UNL     1       4.467   0.007   3.288  0.00  0.00    +0.000 C 
BRANCH  25  26
ATOM     26  O   UNL     1       4.221   1.030   4.215  0.00  0.00    +0.000 OA
ATOM     27  H   UNL     1       3.594   0.657   4.889  0.00  0.00    +0.000 HD
ENDBRANCH  25  26
ENDBRANCH   4  25
TORSDOF 8
