REMARK  Name = ZINC000394934764
REMARK  7 active torsions:
REMARK  status: ('A' for Active; 'I' for Inactive)
REMARK    1  A    between atoms: O_2  and  C_3
REMARK    2  A    between atoms: C_3  and  C_6
REMARK    3  A    between atoms: C_9  and  O_11
REMARK    4  A    between atoms: O_11  and  C_12
REMARK    5  A    between atoms: C_16  and  N_18
REMARK    6  A    between atoms: C_21  and  O_23
REMARK    7  A    between atoms: C_25  and  O_27
REMARK                            x       y       z     vdW  Elec       q    Type
REMARK                         _______ _______ _______ _____ _____    ______ ____
ROOT
ATOM      1  C   UNL     1       0.619  -1.715   1.218  0.00  0.00    +0.000 C 
ATOM      2  O   UNL     1      -0.481  -2.011   0.377  0.00  0.00    +0.000 OA
ATOM      3  C   UNL     1      -1.431  -0.947   0.368  0.00  0.00    +0.000 C 
ATOM      4  C   UNL     1      -1.744  -0.391   1.797  0.00  0.00    +0.000 C 
ATOM      5  C   UNL     1      -1.312  -1.430   2.853  0.00  0.00    +0.000 C 
ATOM      6  C   UNL     1       0.189  -1.796   2.707  0.00  0.00    +0.000 C 
ENDROOT
BRANCH   4   7
ATOM      7  N   UNL     1      -1.063   0.882   2.043  0.00  0.00    +0.000 NA
ATOM      8  N   UNL     1      -1.492   1.936   1.573  0.00  0.00    +0.000 NA
ATOM      9  N   UNL     1      -1.921   2.989   1.104  0.00  0.00    +0.000 NA
ENDBRANCH   4   7
BRANCH   3  10
ATOM     10  O   UNL     1      -1.002   0.091  -0.500  0.00  0.00    +0.000 OA
ATOM     11  C   UNL     1      -1.103  -0.322  -1.845  0.00  0.00    +0.000 C 
ENDBRANCH   3  10
BRANCH   5  12
ATOM     12  O   UNL     1      -1.643  -1.033   4.163  0.00  0.00    +0.000 OA
ATOM     13  H   UNL     1      -1.222  -0.152   4.338  0.00  0.00    +0.000 HD
ENDBRANCH   5  12
BRANCH   6  14
ATOM     14  O   UNL     1       0.996  -0.925   3.461  0.00  0.00    +0.000 OA
ATOM     15  H   UNL     1       1.039  -1.292   4.383  0.00  0.00    +0.000 HD
ENDBRANCH   6  14
BRANCH   1  16
ATOM     16  C   UNL     1       1.754  -2.701   0.905  0.00  0.00    +0.000 C 
BRANCH  16  18
ATOM     17  H   UNL     1       3.309  -1.620   1.308  0.00  0.00    +0.000 HD
ATOM     18  O   UNL     1       2.884  -2.431   1.691  0.00  0.00    +0.000 OA
ENDBRANCH  16  18
ENDBRANCH   1  16
TORSDOF 6
