REMARK  Name = ZINC000307008534
REMARK  8 active torsions:
REMARK  status: ('A' for Active; 'I' for Inactive)
REMARK    1  A    between atoms: C_1  and  N_2
REMARK    2  A    between atoms: N_2  and  C_3
REMARK    3  A    between atoms: C_4  and  O_5
REMARK    4  A    between atoms: O_5  and  C_6
REMARK    5  A    between atoms: C_8  and  C_9
REMARK    6  A    between atoms: C_9  and  O_10
REMARK    7  A    between atoms: C_11  and  O_12
REMARK    8  A    between atoms: C_13  and  O_14
REMARK                            x       y       z     vdW  Elec       q    Type
REMARK                         _______ _______ _______ _____ _____    ______ ____
ROOT
ATOM      1  C   UNL     1      -1.086  -0.407  -0.747  0.00  0.00    +0.000 C 
ATOM      2  C   UNL     1      -0.575   1.048  -0.651  0.00  0.00    +0.000 C 
ATOM      3  O   UNL     1       0.834   1.103  -0.829  0.00  0.00    +0.000 OA
ATOM      4  C   UNL     1       1.522   0.383   0.184  0.00  0.00    +0.000 C 
ATOM      5  C   UNL     1       1.169  -1.124   0.120  0.00  0.00    +0.000 C 
ATOM      6  C   UNL     1      -0.350  -1.313   0.271  0.00  0.00    +0.000 C 
ENDROOT
BRANCH   1   8
ATOM      7  C   UNL     1      -3.145  -1.690  -1.045  0.00  0.00    +0.000 C 
ATOM      8  N   UNL     1      -2.554  -0.431  -0.586  0.00  0.00    +0.000 NA
ATOM      9  H   UNL     1      -2.817  -0.285   0.416  0.00  0.00    +0.000 HD
ENDBRANCH   1   8
BRANCH   2  10
ATOM     10  O   UNL     1      -0.969   1.637   0.579  0.00  0.00    +0.000 OA
ATOM     11  C   UNL     1      -0.826   3.038   0.515  0.00  0.00    +0.000 C 
ENDBRANCH   2  10
BRANCH   5  12
ATOM     12  O   UNL     1       1.830  -1.830   1.141  0.00  0.00    +0.000 OA
ATOM     13  H   UNL     1       2.680  -2.173   0.759  0.00  0.00    +0.000 HD
ENDBRANCH   5  12
BRANCH   6  14
ATOM     14  O   UNL     1      -0.752  -1.003   1.583  0.00  0.00    +0.000 OA
ATOM     15  H   UNL     1      -0.616  -1.819   2.131  0.00  0.00    +0.000 HD
ENDBRANCH   6  14
BRANCH   4  16
ATOM     16  C   UNL     1       3.027   0.621   0.005  0.00  0.00    +0.000 C 
BRANCH  16  17
ATOM     17  O   UNL     1       3.452   0.154  -1.247  0.00  0.00    +0.000 OA
ATOM     18  H   UNL     1       4.426   0.335  -1.292  0.00  0.00    +0.000 HD
ENDBRANCH  16  17
ENDBRANCH   4  16
TORSDOF 6
