REMARK  Name = 52944903
REMARK  14 active torsions:
REMARK  status: ('A' for Active; 'I' for Inactive)
REMARK    1  A    between atoms: C_1  and  O_2
REMARK    2  A    between atoms: O_2  and  C_3
REMARK    3  A    between atoms: C_3  and  C_4
REMARK    4  A    between atoms: C_6  and  O_7
REMARK    5  A    between atoms: O_7  and  C_8
REMARK    6  A    between atoms: C_8  and  C_9
REMARK    7  A    between atoms: C_19  and  N_20
REMARK    8  A    between atoms: N_20  and  C_21
REMARK    9  A    between atoms: C_21  and  C_22
REMARK   10  A    between atoms: C_22  and  N_23
REMARK   11  A    between atoms: C_24  and  O_25
REMARK   12  A    between atoms: O_25  and  C_26
REMARK   13  A    between atoms: C_26  and  C_27
REMARK   14  A    between atoms: C_33  and  O_34
REMARK                            x       y       z     vdW  Elec       q    Type
REMARK                         _______ _______ _______ _____ _____    ______ ____
ROOT
ATOM      1  C   UNL     1       0.886  -1.719  -0.944  0.00  0.00    +0.000 C 
ATOM      2  O   UNL     1       1.478  -0.441  -1.113  0.00  0.00    +0.000 OA
ATOM      3  C   UNL     1       0.658   0.592  -0.587  0.00  0.00    +0.000 C 
ATOM      4  C   UNL     1      -0.707   0.655  -1.321  0.00  0.00    +0.000 C 
ATOM      5  C   UNL     1      -1.404  -0.726  -1.297  0.00  0.00    +0.000 C 
ATOM      6  C   UNL     1      -0.420  -1.816  -1.759  0.00  0.00    +0.000 C 
ENDROOT
BRANCH   4   7
ATOM      7  N   UNL     1      -1.575   1.685  -0.714  0.00  0.00    +0.000 NA
ATOM      8  H   UNL     1      -0.984   2.478  -0.370  0.00  0.00    +0.000 HD
BRANCH   7   9
ATOM      9  C   UNL     1      -2.520   2.248  -1.690  0.00  0.00    +0.000 C 
BRANCH   9  10
ATOM     10  C   UNL     1      -3.600   3.062  -0.974  0.00  0.00    +0.000 C 
BRANCH  10  11
ATOM     11  N   UNL     1      -3.020   4.232  -0.321  0.00  0.00    +0.000 NA
ATOM     12  H   UNL     1      -2.730   4.910  -1.063  0.00  0.00    +0.000 HD
ATOM     13  H   UNL     1      -3.779   4.695   0.230  0.00  0.00    +0.000 HD
ENDBRANCH  10  11
ENDBRANCH   9  10
ENDBRANCH   7   9
ENDBRANCH   4   7
BRANCH   6  14
ATOM     14  O   UNL     1      -1.000  -3.084  -1.591  0.00  0.00    +0.000 OA
ATOM     15  H   UNL     1      -1.675  -3.188  -2.312  0.00  0.00    +0.000 HD
ENDBRANCH   6  14
BRANCH   1  16
ATOM     16  C   UNL     1       1.905  -2.787  -1.363  0.00  0.00    +0.000 C 
BRANCH  16  18
ATOM     17  C   UNL     1       3.763  -2.326  -2.681  0.00  0.00    +0.000 C 
ATOM     18  O   UNL     1       2.368  -2.537  -2.680  0.00  0.00    +0.000 OA
ENDBRANCH  16  18
ENDBRANCH   1  16
BRANCH   3  19
ATOM     19  O   UNL     1       0.470   0.427   0.815  0.00  0.00    +0.000 OA
BRANCH  19  20
ATOM     20  C   UNL     1       1.485   1.079   1.558  0.00  0.00    +0.000 C 
BRANCH  20  21
ATOM     21  C   UNL     1       2.838   0.444   1.344  0.00  0.00    +0.000 A 
ATOM     22  C   UNL     1       3.848   1.146   0.666  0.00  0.00    +0.000 A 
ATOM     23  C   UNL     1       5.074   0.535   0.391  0.00  0.00    +0.000 A 
ATOM     24  C   UNL     1       5.302  -0.793   0.777  0.00  0.00    +0.000 A 
ATOM     25  C   UNL     1       6.512  -1.431   0.466  0.00  0.00    +0.000 A 
ATOM     26  C   UNL     1       6.716  -2.763   0.835  0.00  0.00    +0.000 A 
ATOM     27  C   UNL     1       5.723  -3.465   1.522  0.00  0.00    +0.000 A 
ATOM     28  C   UNL     1       4.514  -2.840   1.842  0.00  0.00    +0.000 A 
ATOM     29  C   UNL     1       4.291  -1.504   1.470  0.00  0.00    +0.000 A 
ATOM     30  C   UNL     1       3.067  -0.878   1.753  0.00  0.00    +0.000 A 
ENDBRANCH  20  21
ENDBRANCH  19  20
ENDBRANCH   3  19
BRANCH   5  31
ATOM     31  O   UNL     1      -1.839  -1.017   0.024  0.00  0.00    +0.000 OA
BRANCH  31  32
ATOM     32  C   UNL     1      -3.248  -1.023   0.114  0.00  0.00    +0.000 C 
BRANCH  32  33
ATOM     33  C   UNL     1      -3.637  -1.004   1.562  0.00  0.00    +0.000 A 
ATOM     34  C   UNL     1      -4.109  -2.167   2.194  0.00  0.00    +0.000 A 
ATOM     35  C   UNL     1      -4.441  -2.143   3.552  0.00  0.00    +0.000 A 
ATOM     36  C   UNL     1      -4.296  -0.964   4.289  0.00  0.00    +0.000 A 
ATOM     37  C   UNL     1      -3.816   0.194   3.669  0.00  0.00    +0.000 A 
ATOM     38  C   UNL     1      -3.483   0.174   2.311  0.00  0.00    +0.000 A 
ENDBRANCH  32  33
ENDBRANCH  31  32
ENDBRANCH   5  31
TORSDOF 13
