REMARK  Name = ZINC000616583702
REMARK  12 active torsions:
REMARK  status: ('A' for Active; 'I' for Inactive)
REMARK    1  A    between atoms: C_1  and  C_2
REMARK    2  A    between atoms: C_2  and  C_3
REMARK    3  A    between atoms: C_3  and  C_4
REMARK    4  A    between atoms: C_4  and  C_5
REMARK    5  A    between atoms: C_5  and  O_6
REMARK    6  A    between atoms: O_6  and  C_7
REMARK    7  A    between atoms: C_9  and  C_10
REMARK    8  A    between atoms: C_10  and  O_11
REMARK    9  A    between atoms: C_12  and  O_13
REMARK   10  A    between atoms: C_14  and  O_15
REMARK   11  A    between atoms: C_16  and  N_17
REMARK   12  A    between atoms: C_18  and  C_19
REMARK                            x       y       z     vdW  Elec       q    Type
REMARK                         _______ _______ _______ _____ _____    ______ ____
ROOT
ATOM      1  C   UNL     1       0.126  -0.698  -0.487  0.00  0.00    +0.000 C 
ATOM      2  O   UNL     1       1.461  -1.140  -0.291  0.00  0.00    +0.000 OA
ATOM      3  C   UNL     1       1.597  -2.504  -0.657  0.00  0.00    +0.000 C 
ATOM      4  C   UNL     1       1.353  -2.676  -2.180  0.00  0.00    +0.000 C 
ATOM      5  C   UNL     1      -0.041  -2.143  -2.561  0.00  0.00    +0.000 C 
ATOM      6  C   UNL     1      -0.220  -0.722  -1.991  0.00  0.00    +0.000 C 
ENDROOT
BRANCH   6   7
ATOM      7  N   UNL     1      -1.593  -0.253  -2.203  0.00  0.00    +0.000 N 
ATOM      8  C   UNL     1      -1.962   0.615  -3.292  0.00  0.00    +0.000 C 
ATOM      9  C   UNL     1      -3.393   1.001  -3.480  0.00  0.00    +0.000 C 
ATOM     10  O   UNL     1      -1.095   1.018  -4.124  0.00  0.00    +0.000 OA
ATOM     11  H   UNL     1      -2.354  -0.641  -1.595  0.00  0.00    +0.000 HD
ENDBRANCH   6   7
BRANCH   4  12
ATOM     12  O   UNL     1       1.504  -4.014  -2.592  0.00  0.00    +0.000 OA
ATOM     13  H   UNL     1       0.946  -4.581  -2.000  0.00  0.00    +0.000 HD
ENDBRANCH   4  12
BRANCH   5  14
ATOM     14  O   UNL     1      -1.034  -3.002  -2.056  0.00  0.00    +0.000 OA
ATOM     15  H   UNL     1      -1.815  -2.934  -2.664  0.00  0.00    +0.000 HD
ENDBRANCH   5  14
BRANCH   1  16
ATOM     16  O   UNL     1       0.007   0.637  -0.034  0.00  0.00    +0.000 OA
BRANCH  16  17
ATOM     17  C   UNL     1       0.004   0.684   1.377  0.00  0.00    +0.000 C 
BRANCH  17  18
ATOM     18  C   UNL     1      -0.118   2.143   1.817  0.00  0.00    +0.000 C 
BRANCH  18  19
ATOM     19  C   UNL     1      -0.146   2.272   3.344  0.00  0.00    +0.000 C 
BRANCH  19  21
ATOM     20  C   UNL     1      -0.310   3.885   5.282  0.00  0.00    +0.000 C 
ATOM     21  C   UNL     1      -0.333   3.736   3.764  0.00  0.00    +0.000 C 
ENDBRANCH  19  21
ENDBRANCH  18  19
ENDBRANCH  17  18
ENDBRANCH  16  17
ENDBRANCH   1  16
BRANCH   3  22
ATOM     22  C   UNL     1       2.997  -2.984  -0.255  0.00  0.00    +0.000 C 
BRANCH  22  23
ATOM     23  O   UNL     1       3.981  -2.216  -0.891  0.00  0.00    +0.000 OA
ATOM     24  H   UNL     1       4.853  -2.608  -0.620  0.00  0.00    +0.000 HD
ENDBRANCH  22  23
ENDBRANCH   3  22
TORSDOF 10
