REMARK  Name = ZINC000616582904
REMARK  10 active torsions:
REMARK  status: ('A' for Active; 'I' for Inactive)
REMARK    1  A    between atoms: C_3  and  C_4
REMARK    2  A    between atoms: C_4  and  O_7
REMARK    3  A    between atoms: O_7  and  C_8
REMARK    4  A    between atoms: C_11  and  C_13
REMARK    5  A    between atoms: C_13  and  O_16
REMARK    6  A    between atoms: C_18  and  O_20
REMARK    7  A    between atoms: C_22  and  O_24
REMARK    8  A    between atoms: C_26  and  N_28
REMARK    9  A    between atoms: C_29  and  O_30
REMARK   10  A    between atoms: C_29  and  C_32
REMARK                            x       y       z     vdW  Elec       q    Type
REMARK                         _______ _______ _______ _____ _____    ______ ____
ROOT
ATOM      1  C   UNL     1      -0.012   0.441  -0.620  0.00  0.00    +0.000 C 
ATOM      2  O   UNL     1      -0.740  -0.715  -1.005  0.00  0.00    +0.000 OA
ATOM      3  C   UNL     1      -0.057  -1.896  -0.618  0.00  0.00    +0.000 C 
ATOM      4  C   UNL     1       0.008  -1.985   0.928  0.00  0.00    +0.000 C 
ATOM      5  C   UNL     1       0.695  -0.730   1.498  0.00  0.00    +0.000 C 
ATOM      6  C   UNL     1       0.037   0.537   0.917  0.00  0.00    +0.000 C 
ENDROOT
BRANCH   6   7
ATOM      7  N   UNL     1       0.794   1.732   1.305  0.00  0.00    +0.000 NA
ATOM      8  C   UNL     1       0.652   2.424   2.400  0.00  0.00    +0.000 C 
ATOM      9  C   UNL     1      -0.385   2.096   3.434  0.00  0.00    +0.000 C 
BRANCH   8  10
ATOM     10  O   UNL     1       1.475   3.526   2.615  0.00  0.00    +0.000 OA
ATOM     11  H   UNL     1       2.184   3.789   1.941  0.00  0.00    +0.000 HD
ENDBRANCH   8  10
ENDBRANCH   6   7
BRANCH   4  12
ATOM     12  O   UNL     1       0.722  -3.128   1.331  0.00  0.00    +0.000 OA
ATOM     13  H   UNL     1       0.055  -3.828   1.556  0.00  0.00    +0.000 HD
ENDBRANCH   4  12
BRANCH   5  14
ATOM     14  O   UNL     1       2.067  -0.737   1.183  0.00  0.00    +0.000 OA
ATOM     15  H   UNL     1       2.522  -1.288   1.872  0.00  0.00    +0.000 HD
ENDBRANCH   5  14
BRANCH   1  16
ATOM     16  O   UNL     1      -0.675   1.589  -1.114  0.00  0.00    +0.000 OA
BRANCH  16  17
ATOM     17  C   UNL     1      -0.442   1.729  -2.499  0.00  0.00    +0.000 C 
BRANCH  17  19
ATOM     18  C   UNL     1      -1.860   3.799  -3.407  0.00  0.00    +0.000 C 
ATOM     19  C   UNL     1      -1.220   2.864  -2.997  0.00  0.00    +0.000 C 
ENDBRANCH  17  19
ENDBRANCH  16  17
ENDBRANCH   1  16
BRANCH   3  20
ATOM     20  C   UNL     1      -0.807  -3.094  -1.223  0.00  0.00    +0.000 C 
BRANCH  20  21
ATOM     21  O   UNL     1      -0.069  -4.279  -1.088  0.00  0.00    +0.000 OA
ATOM     22  H   UNL     1       0.661  -4.237  -1.760  0.00  0.00    +0.000 HD
ENDBRANCH  20  21
ENDBRANCH   3  20
TORSDOF 9
