REMARK  Name = ZINC000396869768
REMARK  9 active torsions:
REMARK  status: ('A' for Active; 'I' for Inactive)
REMARK    1  A    between atoms: C_1  and  O_2
REMARK    2  A    between atoms: O_2  and  C_3
REMARK    3  A    between atoms: C_3  and  C_4
REMARK    4  A    between atoms: C_6  and  O_7
REMARK    5  A    between atoms: C_8  and  N_9
REMARK    6  A    between atoms: C_10  and  O_11
REMARK    7  A    between atoms: O_11  and  C_12
REMARK    8  A    between atoms: C_13  and  O_14
REMARK    9  A    between atoms: O_14  and  C_15
REMARK                            x       y       z     vdW  Elec       q    Type
REMARK                         _______ _______ _______ _____ _____    ______ ____
ROOT
ATOM      1  C   UNL     1       0.406  -1.321   0.372  0.00  0.00    +0.000 C 
ATOM      2  O   UNL     1      -0.807  -0.966  -0.278  0.00  0.00    +0.000 OA
ATOM      3  C   UNL     1      -0.647  -1.024  -1.683  0.00  0.00    +0.000 C 
ATOM      4  C   UNL     1       0.203   0.180  -2.162  0.00  0.00    +0.000 C 
ATOM      5  C   UNL     1       1.184   0.653  -1.056  0.00  0.00    +0.000 C 
ATOM      6  C   UNL     1       1.645  -0.524  -0.168  0.00  0.00    +0.000 C 
ENDROOT
BRANCH   4   7
ATOM      7  N   UNL     1       0.907  -0.136  -3.410  0.00  0.00    +0.000 NA
ATOM      8  H   UNL     1       0.198  -0.367  -4.143  0.00  0.00    +0.000 HD
ATOM      9  H   UNL     1       1.504  -0.983  -3.277  0.00  0.00    +0.000 HD
ENDBRANCH   4   7
BRANCH   3  10
ATOM     10  O   UNL     1      -1.909  -0.967  -2.291  0.00  0.00    +0.000 OA
ATOM     11  H   UNL     1      -2.386  -1.796  -2.026  0.00  0.00    +0.000 HD
ENDBRANCH   3  10
BRANCH   5  12
ATOM     12  O   UNL     1       2.308   1.292  -1.646  0.00  0.00    +0.000 OA
ATOM     13  C   UNL     1       2.696   2.423  -0.898  0.00  0.00    +0.000 C 
ENDBRANCH   5  12
BRANCH   6  14
ATOM     14  O   UNL     1       2.474  -1.383  -0.936  0.00  0.00    +0.000 OA
ATOM     15  C   UNL     1       3.462  -1.980  -0.124  0.00  0.00    +0.000 C 
ENDBRANCH   6  14
BRANCH   1  16
ATOM     16  C   UNL     1       0.225  -1.110   1.880  0.00  0.00    +0.000 C 
BRANCH  16  18
ATOM     17  C   UNL     1      -0.180   0.442   3.533  0.00  0.00    +0.000 C 
ATOM     18  O   UNL     1      -0.052   0.250   2.142  0.00  0.00    +0.000 OA
ENDBRANCH  16  18
ENDBRANCH   1  16
TORSDOF 6
