REMARK  Name = 45933887
REMARK  6 active torsions:
REMARK  status: ('A' for Active; 'I' for Inactive)
REMARK    1  A    between atoms: N_1  and  C_2
REMARK    2  A    between atoms: C_3  and  O_4
REMARK    3  A    between atoms: C_6  and  C_7
REMARK    4  A    between atoms: C_7  and  O_8
REMARK    5  A    between atoms: C_9  and  O_10
REMARK    6  A    between atoms: C_11  and  O_12
REMARK                            x       y       z     vdW  Elec       q    Type
REMARK                         _______ _______ _______ _____ _____    ______ ____
ROOT
ATOM      1  C   UNL     1       1.550  -0.751   0.721  0.00  0.00    +0.000 C 
ATOM      2  C   UNL     1       0.226   0.038   0.821  0.00  0.00    +0.000 C 
ATOM      3  O   UNL     1       0.419   1.371   0.380  0.00  0.00    +0.000 OA
ATOM      4  C   UNL     1       0.731   1.402  -1.004  0.00  0.00    +0.000 C 
ATOM      5  C   UNL     1       2.101   0.722  -1.254  0.00  0.00    +0.000 C 
ATOM      6  C   UNL     1       2.066  -0.724  -0.727  0.00  0.00    +0.000 C 
ENDROOT
BRANCH   1   7
ATOM      7  N   UNL     1       1.383  -2.139   1.162  0.00  0.00    +0.000 NA
ATOM      8  H   UNL     1       1.163  -2.146   2.185  0.00  0.00    +0.000 HD
ATOM      9  H   UNL     1       0.571  -2.570   0.663  0.00  0.00    +0.000 HD
ENDBRANCH   1   7
BRANCH   2  10
ATOM     10  O   UNL     1      -0.194   0.064   2.158  0.00  0.00    +0.000 OA
ATOM     11  H   UNL     1      -1.094   0.483   2.162  0.00  0.00    +0.000 HD
ENDBRANCH   2  10
BRANCH   5  12
ATOM     12  O   UNL     1       2.389   0.696  -2.630  0.00  0.00    +0.000 OA
ATOM     13  H   UNL     1       3.005   1.451  -2.816  0.00  0.00    +0.000 HD
ENDBRANCH   5  12
BRANCH   6  14
ATOM     14  O   UNL     1       3.354  -1.282  -0.770  0.00  0.00    +0.000 OA
ATOM     15  H   UNL     1       3.519  -1.555  -1.710  0.00  0.00    +0.000 HD
ENDBRANCH   6  14
BRANCH   4  16
ATOM     16  C   UNL     1       0.739   2.870  -1.452  0.00  0.00    +0.000 C 
BRANCH  16  17
ATOM     17  O   UNL     1       0.765   2.954  -2.851  0.00  0.00    +0.000 OA
ATOM     18  H   UNL     1       0.789   3.923  -3.068  0.00  0.00    +0.000 HD
ENDBRANCH  16  17
ENDBRANCH   4  16
TORSDOF 6
