REMARK  Name = 129878031
REMARK  10 active torsions:
REMARK  status: ('A' for Active; 'I' for Inactive)
REMARK    1  A    between atoms: O_2  and  C_3
REMARK    2  A    between atoms: C_3  and  N_13
REMARK    3  A    between atoms: C_4  and  C_6
REMARK    4  A    between atoms: C_6  and  C_9
REMARK    5  A    between atoms: N_13  and  C_15
REMARK    6  A    between atoms: C_17  and  O_19
REMARK    7  A    between atoms: C_22  and  C_24
REMARK    8  A    between atoms: C_24  and  O_27
REMARK    9  A    between atoms: C_29  and  O_31
REMARK   10  A    between atoms: C_33  and  O_35
REMARK                            x       y       z     vdW  Elec       q    Type
REMARK                         _______ _______ _______ _____ _____    ______ ____
ROOT
ATOM      1  C   UNL     1       1.151  -0.002   1.214  0.00  0.00    +0.000 C 
ATOM      2  C   UNL     1      -0.029  -0.830   1.772  0.00  0.00    +0.000 C 
ATOM      3  O   UNL     1      -1.236  -0.093   1.696  0.00  0.00    +0.000 OA
ATOM      4  C   UNL     1      -1.183   1.044   2.543  0.00  0.00    +0.000 C 
ATOM      5  C   UNL     1      -0.099   2.036   2.059  0.00  0.00    +0.000 C 
ATOM      6  C   UNL     1       1.266   1.321   1.997  0.00  0.00    +0.000 C 
ENDROOT
BRANCH   1   7
ATOM      7  N   UNL     1       0.961   0.254  -0.221  0.00  0.00    +0.000 N 
ATOM      8  H   UNL     1      -0.009   0.453  -0.557  0.00  0.00    +0.000 HD
BRANCH   7   9
ATOM      9  C   UNL     1       2.031   0.279  -1.187  0.00  0.00    +0.000 C 
ATOM     10  C   UNL     1       1.736   0.327  -2.493  0.00  0.00    +0.000 C 
BRANCH   9  12
ATOM     11  H   UNL     1       3.665   0.301   0.177  0.00  0.00    +0.000 HD
ATOM     12  O   UNL     1       3.372   0.267  -0.789  0.00  0.00    +0.000 OA
ENDBRANCH   9  12
BRANCH  10  13
ATOM     13  C   UNL     1       2.789   0.366  -3.565  0.00  0.00    +0.000 C 
BRANCH  13  14
ATOM     14  C   UNL     1       3.432  -1.004  -3.762  0.00  0.00    +0.000 C 
ATOM     15  H   UNL     1       4.171  -0.951  -4.589  0.00  0.00    +0.000 HD
ENDBRANCH  13  14
ENDBRANCH  10  13
ENDBRANCH   7   9
ENDBRANCH   1   7
BRANCH   2  16
ATOM     16  O   UNL     1      -0.181  -2.007   1.022  0.00  0.00    +0.000 OA
ATOM     17  H   UNL     1       0.572  -2.605   1.269  0.00  0.00    +0.000 HD
ENDBRANCH   2  16
BRANCH   5  18
ATOM     18  O   UNL     1      -0.025   3.120   2.950  0.00  0.00    +0.000 OA
ATOM     19  H   UNL     1       0.334   3.892   2.438  0.00  0.00    +0.000 HD
ENDBRANCH   5  18
BRANCH   6  20
ATOM     20  O   UNL     1       2.222   2.154   1.392  0.00  0.00    +0.000 OA
ATOM     21  H   UNL     1       2.559   2.768   2.095  0.00  0.00    +0.000 HD
ENDBRANCH   6  20
BRANCH   4  22
ATOM     22  C   UNL     1      -2.574   1.695   2.575  0.00  0.00    +0.000 C 
BRANCH  22  23
ATOM     23  O   UNL     1      -3.000   2.037   1.282  0.00  0.00    +0.000 OA
ATOM     24  H   UNL     1      -2.729   2.980   1.128  0.00  0.00    +0.000 HD
ENDBRANCH  22  23
ENDBRANCH   4  22
TORSDOF 10
