REMARK  Name = 45934204
REMARK  11 active torsions:
REMARK  status: ('A' for Active; 'I' for Inactive)
REMARK    1  A    between atoms: O_2  and  C_3
REMARK    2  A    between atoms: C_3  and  C_35
REMARK    3  A    between atoms: N_4  and  C_5
REMARK    4  A    between atoms: C_7  and  O_9
REMARK    5  A    between atoms: C_12  and  C_14
REMARK    6  A    between atoms: C_14  and  O_17
REMARK    7  A    between atoms: C_19  and  O_21
REMARK    8  A    between atoms: C_23  and  O_25
REMARK    9  A    between atoms: O_25  and  C_26
REMARK   10  A    between atoms: C_26  and  C_28
REMARK   11  A    between atoms: C_26  and  C_31
REMARK                            x       y       z     vdW  Elec       q    Type
REMARK                         _______ _______ _______ _____ _____    ______ ____
ROOT
ATOM      1  C   UNL     1      -1.077  -0.321   0.552  0.00  0.00    +0.000 C 
ATOM      2  C   UNL     1      -1.424  -1.634  -0.170  0.00  0.00    +0.000 C 
ATOM      3  O   UNL     1      -0.371  -2.569  -0.018  0.00  0.00    +0.000 OA
ATOM      4  C   UNL     1       0.796  -2.119  -0.686  0.00  0.00    +0.000 C 
ATOM      5  C   UNL     1       1.326  -0.825  -0.020  0.00  0.00    +0.000 C 
ATOM      6  C   UNL     1       0.227   0.261  -0.031  0.00  0.00    +0.000 C 
ENDROOT
BRANCH   1   8
ATOM      7  C   UNL     1      -2.475   1.577   1.214  0.00  0.00    +0.000 C 
ATOM      8  N   UNL     1      -2.181   0.626   0.379  0.00  0.00    +0.000 NA
ATOM      9  C   UNL     1      -3.633   2.477   0.921  0.00  0.00    +0.000 C 
BRANCH   7  11
ATOM     10  H   UNL     1      -1.979   2.471   3.055  0.00  0.00    +0.000 HD
ATOM     11  O   UNL     1      -1.748   1.741   2.392  0.00  0.00    +0.000 OA
ENDBRANCH   7  11
ENDBRANCH   1   8
BRANCH   2  12
ATOM     12  O   UNL     1      -2.589  -2.170   0.398  0.00  0.00    +0.000 OA
ATOM     13  H   UNL     1      -2.838  -2.953  -0.159  0.00  0.00    +0.000 HD
ENDBRANCH   2  12
BRANCH   5  14
ATOM     14  O   UNL     1       2.456  -0.364  -0.716  0.00  0.00    +0.000 OA
ATOM     15  H   UNL     1       3.033   0.103  -0.057  0.00  0.00    +0.000 HD
ENDBRANCH   5  14
BRANCH   4  16
ATOM     16  C   UNL     1       1.836  -3.247  -0.628  0.00  0.00    +0.000 C 
BRANCH  16  17
ATOM     17  O   UNL     1       2.920  -2.959  -1.468  0.00  0.00    +0.000 OA
ATOM     18  H   UNL     1       3.554  -3.716  -1.369  0.00  0.00    +0.000 HD
ENDBRANCH  16  17
ENDBRANCH   4  16
BRANCH   6  19
ATOM     19  O   UNL     1       0.640   1.362   0.767  0.00  0.00    +0.000 OA
BRANCH  19  20
ATOM     20  C   UNL     1       1.135   2.435  -0.018  0.00  0.00    +0.000 C 
ATOM     21  C   UNL     1       2.165   3.208   0.804  0.00  0.00    +0.000 C 
BRANCH  20  22
ATOM     22  C   UNL     1       0.005   3.339  -0.426  0.00  0.00    +0.000 C 
ATOM     23  O   UNL     1      -0.592   4.046   0.429  0.00  0.00    +0.000 OA
ATOM     24  O   UNL     1      -0.411   3.372  -1.751  0.00  0.00    +0.000 OA
ENDBRANCH  20  22
ENDBRANCH  19  20
ENDBRANCH   6  19
TORSDOF 9
