REMARK  Name = 45933887
REMARK  6 active torsions:
REMARK  status: ('A' for Active; 'I' for Inactive)
REMARK    1  A    between atoms: N_1  and  C_2
REMARK    2  A    between atoms: C_3  and  O_4
REMARK    3  A    between atoms: C_6  and  C_7
REMARK    4  A    between atoms: C_7  and  O_8
REMARK    5  A    between atoms: C_9  and  O_10
REMARK    6  A    between atoms: C_11  and  O_12
REMARK                            x       y       z     vdW  Elec       q    Type
REMARK                         _______ _______ _______ _____ _____    ______ ____
ROOT
ATOM      1  C   UNL     1       1.293  -1.099   0.385  0.00  0.00    +0.000 C 
ATOM      2  C   UNL     1       0.567   0.097   1.086  0.00  0.00    +0.000 C 
ATOM      3  O   UNL     1       0.920   1.354   0.527  0.00  0.00    +0.000 OA
ATOM      4  C   UNL     1       0.786   1.327  -0.882  0.00  0.00    +0.000 C 
ATOM      5  C   UNL     1       1.930   0.485  -1.508  0.00  0.00    +0.000 C 
ATOM      6  C   UNL     1       2.440  -0.589  -0.512  0.00  0.00    +0.000 C 
ENDROOT
BRANCH   1   7
ATOM      7  N   UNL     1       0.337  -1.875  -0.411  0.00  0.00    +0.000 NA
ATOM      8  H   UNL     1      -0.377  -2.279   0.238  0.00  0.00    +0.000 HD
ATOM      9  H   UNL     1       0.837  -2.694  -0.827  0.00  0.00    +0.000 HD
ENDBRANCH   1   7
BRANCH   2  10
ATOM     10  O   UNL     1       0.910   0.120   2.446  0.00  0.00    +0.000 OA
ATOM     11  H   UNL     1       0.410  -0.619   2.882  0.00  0.00    +0.000 HD
ENDBRANCH   2  10
BRANCH   5  12
ATOM     12  O   UNL     1       1.456  -0.131  -2.679  0.00  0.00    +0.000 OA
ATOM     13  H   UNL     1       2.253  -0.404  -3.205  0.00  0.00    +0.000 HD
ENDBRANCH   5  12
BRANCH   6  14
ATOM     14  O   UNL     1       3.445  -0.044   0.306  0.00  0.00    +0.000 OA
ATOM     15  H   UNL     1       4.274  -0.008  -0.239  0.00  0.00    +0.000 HD
ENDBRANCH   6  14
BRANCH   4  16
ATOM     16  C   UNL     1       0.799   2.772  -1.405  0.00  0.00    +0.000 C 
BRANCH  16  17
ATOM     17  O   UNL     1       0.645   2.802  -2.798  0.00  0.00    +0.000 OA
ATOM     18  H   UNL     1      -0.311   2.608  -2.983  0.00  0.00    +0.000 HD
ENDBRANCH  16  17
ENDBRANCH   4  16
TORSDOF 6
