REMARK  Name = 45357367
REMARK  8 active torsions:
REMARK  status: ('A' for Active; 'I' for Inactive)
REMARK    1  A    between atoms: O_2  and  N_3
REMARK    2  A    between atoms: N_4  and  C_31
REMARK    3  A    between atoms: N_7  and  C_9
REMARK    4  A    between atoms: C_11  and  O_13
REMARK    5  A    between atoms: C_16  and  C_18
REMARK    6  A    between atoms: C_18  and  O_21
REMARK    7  A    between atoms: C_23  and  O_25
REMARK    8  A    between atoms: C_27  and  O_29
REMARK                            x       y       z     vdW  Elec       q    Type
REMARK                         _______ _______ _______ _____ _____    ______ ____
ROOT
ATOM      1  C   UNL     1      -1.241   1.597  -0.454  0.00  0.00    +0.000 C 
ATOM      2  C   UNL     1      -0.828   1.329  -1.918  0.00  0.00    +0.000 C 
ATOM      3  O   UNL     1       0.439   0.697  -1.965  0.00  0.00    +0.000 OA
ATOM      4  C   UNL     1       1.452   1.566  -1.484  0.00  0.00    +0.000 C 
ATOM      5  C   UNL     1       1.234   1.874   0.019  0.00  0.00    +0.000 C 
ATOM      6  C   UNL     1      -0.171   2.470   0.228  0.00  0.00    +0.000 C 
ENDROOT
BRANCH   1  11
ATOM      7  N   UNL     1      -3.435  -1.687   2.406  0.00  0.00    +0.000 NA
ATOM      8  N   UNL     1      -2.377  -1.027   2.122  0.00  0.00    +0.000 N 
ATOM      9  C   UNL     1      -2.397   0.156   1.302  0.00  0.00    +0.000 C 
ATOM     10  O   UNL     1      -3.244   1.062   1.530  0.00  0.00    +0.000 OA
ATOM     11  N   UNL     1      -1.417   0.330   0.268  0.00  0.00    +0.000 N 
ATOM     12  H   UNL     1      -0.737  -0.445   0.097  0.00  0.00    +0.000 HD
ATOM     13  C   UNL     1      -1.098  -1.521   2.628  0.00  0.00    +0.000 C 
BRANCH   7  15
ATOM     14  H   UNL     1      -4.840  -0.728   1.158  0.00  0.00    +0.000 HD
ATOM     15  O   UNL     1      -4.689  -1.395   1.903  0.00  0.00    +0.000 OA
ENDBRANCH   7  15
ENDBRANCH   1  11
BRANCH   2  16
ATOM     16  O   UNL     1      -1.768   0.485  -2.529  0.00  0.00    +0.000 OA
ATOM     17  H   UNL     1      -2.584   1.028  -2.685  0.00  0.00    +0.000 HD
ENDBRANCH   2  16
BRANCH   5  18
ATOM     18  O   UNL     1       2.191   2.801   0.466  0.00  0.00    +0.000 OA
ATOM     19  H   UNL     1       2.929   2.284   0.884  0.00  0.00    +0.000 HD
ENDBRANCH   5  18
BRANCH   6  20
ATOM     20  O   UNL     1      -0.454   2.585   1.599  0.00  0.00    +0.000 OA
ATOM     21  H   UNL     1       0.032   3.386   1.928  0.00  0.00    +0.000 HD
ENDBRANCH   6  20
BRANCH   4  22
ATOM     22  C   UNL     1       2.815   0.895  -1.711  0.00  0.00    +0.000 C 
BRANCH  22  23
ATOM     23  O   UNL     1       3.018   0.652  -3.077  0.00  0.00    +0.000 OA
ATOM     24  H   UNL     1       2.550  -0.197  -3.291  0.00  0.00    +0.000 HD
ENDBRANCH  22  23
ENDBRANCH   4  22
TORSDOF 7
