REMARK  Name = 45266822
REMARK  15 active torsions:
REMARK  status: ('A' for Active; 'I' for Inactive)
REMARK    1  A    between atoms: C_1  and  C_2
REMARK    2  A    between atoms: N_4  and  C_5
REMARK    3  A    between atoms: C_6  and  O_7
REMARK    4  A    between atoms: C_9  and  C_10
REMARK    5  A    between atoms: C_10  and  O_11
REMARK    6  A    between atoms: O_11  and  P_12
REMARK    7  A    between atoms: P_12  and  O_15
REMARK    8  A    between atoms: O_15  and  C_16
REMARK    9  A    between atoms: C_16  and  C_17
REMARK   10  A    between atoms: C_17  and  N_18
REMARK   11  A    between atoms: N_18  and  C_19
REMARK   12  A    between atoms: N_18  and  C_20
REMARK   13  A    between atoms: N_18  and  C_21
REMARK   14  A    between atoms: C_22  and  O_23
REMARK   15  A    between atoms: C_24  and  O_25
REMARK                            x       y       z     vdW  Elec       q    Type
REMARK                         _______ _______ _______ _____ _____    ______ ____
ROOT
ATOM      1  C   UNL     1       3.907   1.333  -0.627  0.00  0.00    +0.000 C 
ATOM      2  C   UNL     1       2.681   0.841  -1.466  0.00  0.00    +0.000 C 
ATOM      3  O   UNL     1       1.450   0.949  -0.762  0.00  0.00    +0.000 OA
ATOM      4  C   UNL     1       1.550   0.331   0.508  0.00  0.00    +0.000 C 
ATOM      5  C   UNL     1       2.455   1.175   1.456  0.00  0.00    +0.000 C 
ATOM      6  C   UNL     1       3.436   2.062   0.649  0.00  0.00    +0.000 C 
ENDROOT
BRANCH   1  10
ATOM      7  C   UNL     1       7.000  -0.786   0.464  0.00  0.00    +0.000 C 
ATOM      8  C   UNL     1       6.171   0.383   0.040  0.00  0.00    +0.000 C 
ATOM      9  O   UNL     1       6.696   1.529  -0.002  0.00  0.00    +0.000 OA
ATOM     10  N   UNL     1       4.779   0.207  -0.264  0.00  0.00    +0.000 N 
ATOM     11  H   UNL     1       4.370  -0.749  -0.157  0.00  0.00    +0.000 HD
ENDBRANCH   1  10
BRANCH   2  12
ATOM     12  O   UNL     1       2.590   1.582  -2.655  0.00  0.00    +0.000 OA
ATOM     13  H   UNL     1       2.315   2.503  -2.404  0.00  0.00    +0.000 HD
ENDBRANCH   2  12
BRANCH   5  14
ATOM     14  O   UNL     1       1.689   1.978   2.321  0.00  0.00    +0.000 OA
ATOM     15  H   UNL     1       2.296   2.279   3.047  0.00  0.00    +0.000 HD
ENDBRANCH   5  14
BRANCH   6  16
ATOM     16  O   UNL     1       2.804   3.268   0.298  0.00  0.00    +0.000 OA
ATOM     17  H   UNL     1       3.520   3.903   0.037  0.00  0.00    +0.000 HD
ENDBRANCH   6  16
BRANCH   4  18
ATOM     18  C   UNL     1       0.139   0.106   1.065  0.00  0.00    +0.000 C 
BRANCH  18  19
ATOM     19  O   UNL     1      -0.556  -0.769   0.209  0.00  0.00    +0.000 OA
BRANCH  19  20
ATOM     20  P   UNL     1      -2.132  -0.995   0.824  0.00  0.00    +0.000 P 
ATOM     21  O   UNL     1      -2.866   0.328   0.894  0.00  0.00    +0.000 OA
ATOM     22  O   UNL     1      -2.049  -1.665   2.375  0.00  0.00    +0.000 OA
BRANCH  20  23
ATOM     23  O   UNL     1      -2.984  -2.071  -0.187  0.00  0.00    +0.000 OA
BRANCH  23  24
ATOM     24  C   UNL     1      -3.054  -1.512  -1.478  0.00  0.00    +0.000 C 
BRANCH  24  25
ATOM     25  C   UNL     1      -3.717  -2.510  -2.452  0.00  0.00    +0.000 C 
BRANCH  25  26
ATOM     26  N   UNL     1      -2.838  -3.613  -2.955  0.00  0.00    +0.000 N 
ATOM     27  C   UNL     1      -3.677  -4.530  -3.765  0.00  0.00    +0.000 C 
ATOM     28  C   UNL     1      -1.759  -3.085  -3.827  0.00  0.00    +0.000 C 
ATOM     29  C   UNL     1      -2.242  -4.389  -1.842  0.00  0.00    +0.000 C 
ENDBRANCH  25  26
ENDBRANCH  24  25
ENDBRANCH  23  24
ENDBRANCH  20  23
ENDBRANCH  19  20
ENDBRANCH  18  19
ENDBRANCH   4  18
TORSDOF 11
