REMARK  Name = 44229083
REMARK  9 active torsions:
REMARK  status: ('A' for Active; 'I' for Inactive)
REMARK    1  A    between atoms: O_2  and  C_3
REMARK    2  A    between atoms: C_3  and  C_30
REMARK    3  A    between atoms: N_4  and  C_5
REMARK    4  A    between atoms: C_7  and  O_9
REMARK    5  A    between atoms: C_12  and  C_14
REMARK    6  A    between atoms: C_14  and  O_17
REMARK    7  A    between atoms: O_17  and  P_18
REMARK    8  A    between atoms: C_22  and  O_24
REMARK    9  A    between atoms: C_26  and  O_28
REMARK                            x       y       z     vdW  Elec       q    Type
REMARK                         _______ _______ _______ _____ _____    ______ ____
ROOT
ATOM      1  C   UNL     1       0.177  -0.756   0.099  0.00  0.00    +0.000 C 
ATOM      2  C   UNL     1      -0.582   0.298   0.929  0.00  0.00    +0.000 C 
ATOM      3  O   UNL     1      -0.804   1.478   0.174  0.00  0.00    +0.000 OA
ATOM      4  C   UNL     1      -1.638   1.254  -0.956  0.00  0.00    +0.000 C 
ATOM      5  C   UNL     1      -1.049   0.174  -1.909  0.00  0.00    +0.000 C 
ATOM      6  C   UNL     1      -0.634  -1.107  -1.164  0.00  0.00    +0.000 C 
ENDROOT
BRANCH   1   8
ATOM      7  C   UNL     1       2.572  -0.920  -0.511  0.00  0.00    +0.000 C 
ATOM      8  N   UNL     1       1.495  -0.227  -0.273  0.00  0.00    +0.000 NA
ATOM      9  C   UNL     1       2.608  -2.419  -0.379  0.00  0.00    +0.000 C 
BRANCH   7  11
ATOM     10  H   UNL     1       4.601  -0.724  -1.049  0.00  0.00    +0.000 HD
ATOM     11  O   UNL     1       3.732  -0.237  -0.867  0.00  0.00    +0.000 OA
ENDBRANCH   7  11
ENDBRANCH   1   8
BRANCH   2  12
ATOM     12  O   UNL     1       0.177   0.639   2.059  0.00  0.00    +0.000 OA
ATOM     13  H   UNL     1       0.126  -0.129   2.687  0.00  0.00    +0.000 HD
ENDBRANCH   2  12
BRANCH   5  14
ATOM     14  O   UNL     1      -1.946  -0.145  -2.941  0.00  0.00    +0.000 OA
ATOM     15  H   UNL     1      -1.960   0.632  -3.559  0.00  0.00    +0.000 HD
ENDBRANCH   5  14
BRANCH   6  16
ATOM     16  O   UNL     1      -1.770  -1.860  -0.821  0.00  0.00    +0.000 OA
ATOM     17  H   UNL     1      -1.453  -2.776  -0.604  0.00  0.00    +0.000 HD
ENDBRANCH   6  16
BRANCH   4  18
ATOM     18  C   UNL     1      -3.115   1.041  -0.554  0.00  0.00    +0.000 C 
BRANCH  18  19
ATOM     19  O   UNL     1      -3.950   1.309  -1.658  0.00  0.00    +0.000 OA
BRANCH  19  20
ATOM     20  P   UNL     1      -5.565   1.006  -1.204  0.00  0.00    +0.000 P 
ATOM     21  O   UNL     1      -5.760  -0.469  -0.936  0.00  0.00    +0.000 OA
ATOM     22  O   UNL     1      -6.586   1.476  -2.467  0.00  0.00    +0.000 OA
ATOM     23  O   UNL     1      -5.965   1.890   0.183  0.00  0.00    +0.000 OA
ENDBRANCH  19  20
ENDBRANCH  18  19
ENDBRANCH   4  18
TORSDOF 8
