REMARK  Name = 42612215
REMARK  9 active torsions:
REMARK  status: ('A' for Active; 'I' for Inactive)
REMARK    1  A    between atoms: O_2  and  C_3
REMARK    2  A    between atoms: C_3  and  N_9
REMARK    3  A    between atoms: C_4  and  N_6
REMARK    4  A    between atoms: N_9  and  C_11
REMARK    5  A    between atoms: C_13  and  O_15
REMARK    6  A    between atoms: C_18  and  C_20
REMARK    7  A    between atoms: C_20  and  O_23
REMARK    8  A    between atoms: C_25  and  O_27
REMARK    9  A    between atoms: C_29  and  O_31
REMARK                            x       y       z     vdW  Elec       q    Type
REMARK                         _______ _______ _______ _____ _____    ______ ____
ROOT
ATOM      1  C   UNL     1       0.488   1.290   0.610  0.00  0.00    +0.000 C 
ATOM      2  C   UNL     1       1.220   0.475  -0.471  0.00  0.00    +0.000 C 
ATOM      3  O   UNL     1       1.414  -0.861  -0.037  0.00  0.00    +0.000 OA
ATOM      4  C   UNL     1       2.308  -0.901   1.064  0.00  0.00    +0.000 C 
ATOM      5  C   UNL     1       1.688  -0.195   2.293  0.00  0.00    +0.000 C 
ATOM      6  C   UNL     1       1.296   1.250   1.925  0.00  0.00    +0.000 C 
ENDROOT
BRANCH   1   7
ATOM      7  N   UNL     1      -0.870   0.761   0.815  0.00  0.00    +0.000 N 
ATOM      8  H   UNL     1      -0.966  -0.247   1.070  0.00  0.00    +0.000 HD
BRANCH   7   9
ATOM      9  C   UNL     1      -2.018   1.596   1.038  0.00  0.00    +0.000 C 
ATOM     10  C   UNL     1      -2.234   2.688   0.281  0.00  0.00    +0.000 C 
BRANCH  10  11
ATOM     11  N   UNL     1      -3.348   3.580   0.448  0.00  0.00    +0.000 NA
ATOM     12  N   UNL     1      -4.165   3.486   1.366  0.00  0.00    +0.000 NA
ATOM     13  N   UNL     1      -4.983   3.398   2.281  0.00  0.00    +0.000 NA
ENDBRANCH  10  11
BRANCH   9  15
ATOM     14  H   UNL     1      -2.775   0.405   2.597  0.00  0.00    +0.000 HD
ATOM     15  O   UNL     1      -2.928   1.227   2.026  0.00  0.00    +0.000 OA
ENDBRANCH   9  15
ENDBRANCH   7   9
ENDBRANCH   1   7
BRANCH   2  16
ATOM     16  O   UNL     1       0.450   0.471  -1.642  0.00  0.00    +0.000 OA
ATOM     17  H   UNL     1       0.998   0.022  -2.337  0.00  0.00    +0.000 HD
ENDBRANCH   2  16
BRANCH   5  18
ATOM     18  O   UNL     1       2.620  -0.176   3.344  0.00  0.00    +0.000 OA
ATOM     19  H   UNL     1       2.108  -0.029   4.181  0.00  0.00    +0.000 HD
ENDBRANCH   5  18
BRANCH   6  20
ATOM     20  O   UNL     1       0.557   1.820   2.975  0.00  0.00    +0.000 OA
ATOM     21  H   UNL     1       0.532   2.798   2.808  0.00  0.00    +0.000 HD
ENDBRANCH   6  20
BRANCH   4  22
ATOM     22  C   UNL     1       2.618  -2.368   1.382  0.00  0.00    +0.000 C 
BRANCH  22  23
ATOM     23  O   UNL     1       3.200  -2.980   0.264  0.00  0.00    +0.000 OA
ATOM     24  H   UNL     1       3.368  -3.923   0.522  0.00  0.00    +0.000 HD
ENDBRANCH  22  23
ENDBRANCH   4  22
TORSDOF 9
