REMARK  Name = 25243963
REMARK  9 active torsions:
REMARK  status: ('A' for Active; 'I' for Inactive)
REMARK    1  A    between atoms: O_2  and  C_3
REMARK    2  A    between atoms: C_3  and  C_30
REMARK    3  A    between atoms: N_4  and  C_5
REMARK    4  A    between atoms: C_7  and  O_9
REMARK    5  A    between atoms: C_12  and  C_14
REMARK    6  A    between atoms: C_14  and  O_17
REMARK    7  A    between atoms: O_17  and  P_18
REMARK    8  A    between atoms: C_22  and  O_24
REMARK    9  A    between atoms: C_26  and  O_28
REMARK                            x       y       z     vdW  Elec       q    Type
REMARK                         _______ _______ _______ _____ _____    ______ ____
ROOT
ATOM      1  C   UNL     1      -1.491  -0.113   1.392  0.00  0.00    +0.000 C 
ATOM      2  C   UNL     1      -1.615   0.144  -0.118  0.00  0.00    +0.000 C 
ATOM      3  O   UNL     1      -1.082   1.412  -0.466  0.00  0.00    +0.000 OA
ATOM      4  C   UNL     1       0.313   1.507  -0.207  0.00  0.00    +0.000 C 
ATOM      5  C   UNL     1       0.666   1.228   1.279  0.00  0.00    +0.000 C 
ATOM      6  C   UNL     1      -0.008  -0.052   1.811  0.00  0.00    +0.000 C 
ENDROOT
BRANCH   1   8
ATOM      7  C   UNL     1      -2.816   0.743   3.301  0.00  0.00    +0.000 C 
ATOM      8  N   UNL     1      -2.274   0.889   2.124  0.00  0.00    +0.000 NA
ATOM      9  C   UNL     1      -2.745  -0.545   4.068  0.00  0.00    +0.000 C 
BRANCH   7  11
ATOM     10  H   UNL     1      -3.593   2.696   3.376  0.00  0.00    +0.000 HD
ATOM     11  O   UNL     1      -3.512   1.810   3.862  0.00  0.00    +0.000 OA
ENDBRANCH   7  11
ENDBRANCH   1   8
BRANCH   2  12
ATOM     12  O   UNL     1      -2.972   0.110  -0.473  0.00  0.00    +0.000 OA
ATOM     13  H   UNL     1      -3.006   0.181  -1.463  0.00  0.00    +0.000 HD
ENDBRANCH   2  12
BRANCH   5  14
ATOM     14  O   UNL     1       0.257   2.317   2.069  0.00  0.00    +0.000 OA
ATOM     15  H   UNL     1       0.934   3.034   1.950  0.00  0.00    +0.000 HD
ENDBRANCH   5  14
BRANCH   6  16
ATOM     16  O   UNL     1       0.678  -1.182   1.336  0.00  0.00    +0.000 OA
ATOM     17  H   UNL     1       0.402  -1.948   1.904  0.00  0.00    +0.000 HD
ENDBRANCH   6  16
BRANCH   4  18
ATOM     18  C   UNL     1       1.164   0.698  -1.208  0.00  0.00    +0.000 C 
BRANCH  18  19
ATOM     19  O   UNL     1       0.737   0.990  -2.518  0.00  0.00    +0.000 OA
BRANCH  19  20
ATOM     20  P   UNL     1       1.665   0.060  -3.605  0.00  0.00    +0.000 P 
ATOM     21  O   UNL     1       1.249   0.396  -5.019  0.00  0.00    +0.000 OA
ATOM     22  O   UNL     1       1.402  -1.588  -3.329  0.00  0.00    +0.000 OA
ATOM     23  O   UNL     1       3.310   0.410  -3.417  0.00  0.00    +0.000 OA
ENDBRANCH  19  20
ENDBRANCH  18  19
ENDBRANCH   4  18
TORSDOF 8
