REMARK  Name = 24779679
REMARK  12 active torsions:
REMARK  status: ('A' for Active; 'I' for Inactive)
REMARK    1  A    between atoms: O_2  and  C_3
REMARK    2  A    between atoms: C_3  and  C_40
REMARK    3  A    between atoms: N_4  and  C_5
REMARK    4  A    between atoms: C_7  and  O_9
REMARK    5  A    between atoms: O_9  and  C_10
REMARK    6  A    between atoms: N_12  and  C_14
REMARK    7  A    between atoms: C_14  and  C_17
REMARK    8  A    between atoms: C_17  and  C_20
REMARK    9  A    between atoms: C_25  and  C_27
REMARK   10  A    between atoms: C_27  and  O_30
REMARK   11  A    between atoms: C_32  and  O_34
REMARK   12  A    between atoms: C_36  and  O_38
REMARK                            x       y       z     vdW  Elec       q    Type
REMARK                         _______ _______ _______ _____ _____    ______ ____
ROOT
ATOM      1  C   UNL     1       1.419   1.314  -0.385  0.00  0.00    +0.000 C 
ATOM      2  C   UNL     1       1.043  -0.181  -0.415  0.00  0.00    +0.000 C 
ATOM      3  O   UNL     1       1.078  -0.690  -1.740  0.00  0.00    +0.000 OA
ATOM      4  C   UNL     1       0.125  -0.049  -2.575  0.00  0.00    +0.000 C 
ATOM      5  C   UNL     1       0.446   1.456  -2.716  0.00  0.00    +0.000 C 
ATOM      6  C   UNL     1       0.484   2.104  -1.318  0.00  0.00    +0.000 C 
ENDROOT
BRANCH   1   8
ATOM      7  C   UNL     1       2.220   1.834   1.901  0.00  0.00    +0.000 C 
ATOM      8  N   UNL     1       1.301   1.843   0.978  0.00  0.00    +0.000 NA
ATOM      9  C   UNL     1       3.602   1.293   1.656  0.00  0.00    +0.000 C 
BRANCH   7  11
ATOM     10  H   UNL     1       2.586   2.399   3.900  0.00  0.00    +0.000 HD
ATOM     11  O   UNL     1       1.907   2.370   3.148  0.00  0.00    +0.000 OA
ENDBRANCH   7  11
ENDBRANCH   1   8
BRANCH   5  12
ATOM     12  O   UNL     1      -0.540   2.080  -3.498  0.00  0.00    +0.000 OA
ATOM     13  H   UNL     1      -0.142   2.922  -3.844  0.00  0.00    +0.000 HD
ENDBRANCH   5  12
BRANCH   6  14
ATOM     14  O   UNL     1       0.879   3.451  -1.398  0.00  0.00    +0.000 OA
ATOM     15  H   UNL     1       1.792   3.476  -1.787  0.00  0.00    +0.000 HD
ENDBRANCH   6  14
BRANCH   2  16
ATOM     16  O   UNL     1      -0.234  -0.399   0.194  0.00  0.00    +0.000 OA
BRANCH  16  17
ATOM     17  C   UNL     1      -0.760  -1.673   0.426  0.00  0.00    +0.000 C 
ATOM     18  O   UNL     1      -0.105  -2.703   0.106  0.00  0.00    +0.000 OA
ATOM     19  N   UNL     1      -2.055  -1.795   1.023  0.00  0.00    +0.000 N 
ATOM     20  H   UNL     1      -2.601  -0.924   1.210  0.00  0.00    +0.000 HD
BRANCH  19  21
ATOM     21  C   UNL     1      -2.677  -3.088   1.303  0.00  0.00    +0.000 C 
BRANCH  21  22
ATOM     22  C   UNL     1      -2.036  -3.735   2.534  0.00  0.00    +0.000 C 
ATOM     23  C   UNL     1      -2.698  -5.069   2.865  0.00  0.00    +0.000 C 
ENDBRANCH  21  22
ENDBRANCH  19  21
ENDBRANCH  16  17
ENDBRANCH   2  16
BRANCH   4  24
ATOM     24  C   UNL     1       0.144  -0.738  -3.948  0.00  0.00    +0.000 C 
BRANCH  24  25
ATOM     25  O   UNL     1      -0.228  -2.085  -3.823  0.00  0.00    +0.000 OA
ATOM     26  H   UNL     1       0.581  -2.579  -3.527  0.00  0.00    +0.000 HD
ENDBRANCH  24  25
ENDBRANCH   4  24
TORSDOF 10
