REMARK  Name = 118328
REMARK  9 active torsions:
REMARK  status: ('A' for Active; 'I' for Inactive)
REMARK    1  A    between atoms: C_1  and  C_2
REMARK    2  A    between atoms: N_4  and  C_5
REMARK    3  A    between atoms: C_6  and  O_7
REMARK    4  A    between atoms: O_7  and  C_8
REMARK    5  A    between atoms: C_12  and  C_13
REMARK    6  A    between atoms: C_21  and  C_22
REMARK    7  A    between atoms: C_22  and  O_23
REMARK    8  A    between atoms: C_24  and  O_25
REMARK    9  A    between atoms: C_26  and  O_27
REMARK                            x       y       z     vdW  Elec       q    Type
REMARK                         _______ _______ _______ _____ _____    ______ ____
ROOT
ATOM      1  C   UNL     1      -2.725   0.540  -0.317  0.00  0.00    +0.000 C 
ATOM      2  C   UNL     1      -1.346  -0.131  -0.196  0.00  0.00    +0.000 C 
ATOM      3  O   UNL     1      -1.228  -1.234  -1.086  0.00  0.00    +0.000 OA
ATOM      4  C   UNL     1      -2.188  -2.255  -0.836  0.00  0.00    +0.000 C 
ATOM      5  C   UNL     1      -3.638  -1.722  -0.937  0.00  0.00    +0.000 C 
ATOM      6  C   UNL     1      -3.833  -0.489  -0.036  0.00  0.00    +0.000 C 
ENDROOT
BRANCH   1  10
ATOM      7  C   UNL     1      -2.575   4.084   1.303  0.00  0.00    +0.000 C 
ATOM      8  C   UNL     1      -2.582   3.017   0.258  0.00  0.00    +0.000 C 
ATOM      9  O   UNL     1      -2.345   3.321  -0.943  0.00  0.00    +0.000 OA
ATOM     10  N   UNL     1      -2.824   1.653   0.632  0.00  0.00    +0.000 N 
ATOM     11  H   UNL     1      -2.933   1.433   1.649  0.00  0.00    +0.000 HD
ENDBRANCH   1  10
BRANCH   5  12
ATOM     12  O   UNL     1      -4.552  -2.732  -0.591  0.00  0.00    +0.000 OA
ATOM     13  H   UNL     1      -5.427  -2.477  -0.986  0.00  0.00    +0.000 HD
ENDBRANCH   5  12
BRANCH   6  14
ATOM     14  O   UNL     1      -5.105   0.080  -0.231  0.00  0.00    +0.000 OA
ATOM     15  H   UNL     1      -5.167   0.370  -1.179  0.00  0.00    +0.000 HD
ENDBRANCH   6  14
BRANCH   2  16
ATOM     16  O   UNL     1      -0.351   0.836  -0.533  0.00  0.00    +0.000 OA
BRANCH  16  17
ATOM     17  C   UNL     1       1.034   0.658  -0.394  0.00  0.00    +0.000 A 
ATOM     18  C   UNL     1       1.877   1.688  -0.820  0.00  0.00    +0.000 A 
ATOM     19  C   UNL     1       3.265   1.570  -0.708  0.00  0.00    +0.000 A 
ATOM     20  C   UNL     1       3.837   0.406  -0.159  0.00  0.00    +0.000 A 
ATOM     21  C   UNL     1       5.233   0.232  -0.020  0.00  0.00    +0.000 A 
ATOM     22  C   UNL     1       6.217   1.286  -0.454  0.00  0.00    +0.000 C 
ATOM     23  C   UNL     1       5.708  -0.962   0.541  0.00  0.00    +0.000 A 
ATOM     24  C   UNL     1       4.798  -1.941   0.945  0.00  0.00    +0.000 A 
ATOM     25  O   UNL     1       5.215  -3.016   1.451  0.00  0.00    +0.000 OA
ATOM     26  O   UNL     1       3.492  -1.748   0.801  0.00  0.00    +0.000 OA
ATOM     27  C   UNL     1       2.985  -0.637   0.276  0.00  0.00    +0.000 A 
ATOM     28  C   UNL     1       1.597  -0.507   0.158  0.00  0.00    +0.000 A 
ENDBRANCH  16  17
ENDBRANCH   2  16
BRANCH   4  29
ATOM     29  C   UNL     1      -1.893  -3.044   0.458  0.00  0.00    +0.000 C 
BRANCH  29  30
ATOM     30  O   UNL     1      -0.559  -3.471   0.457  0.00  0.00    +0.000 OA
ATOM     31  H   UNL     1      -0.422  -3.954   1.313  0.00  0.00    +0.000 HD
ENDBRANCH  29  30
ENDBRANCH   4  29
TORSDOF 7
