REMARK  Name = 29327
REMARK  8 active torsions:
REMARK  status: ('A' for Active; 'I' for Inactive)
REMARK    1  A    between atoms: C_1  and  N_2
REMARK    2  A    between atoms: N_2  and  N_3
REMARK    3  A    between atoms: N_7  and  C_8
REMARK    4  A    between atoms: C_9  and  O_10
REMARK    5  A    between atoms: C_12  and  C_13
REMARK    6  A    between atoms: C_13  and  O_14
REMARK    7  A    between atoms: C_15  and  O_16
REMARK    8  A    between atoms: C_17  and  O_18
REMARK                            x       y       z     vdW  Elec       q    Type
REMARK                         _______ _______ _______ _____ _____    ______ ____
ROOT
ATOM      1  C   UNL     1      -0.608  -1.365  -0.187  0.00  0.00    +0.000 C 
ATOM      2  C   UNL     1      -2.129  -1.610  -0.335  0.00  0.00    +0.000 C 
ATOM      3  O   UNL     1      -2.838  -0.396  -0.162  0.00  0.00    +0.000 OA
ATOM      4  C   UNL     1      -2.632   0.504  -1.249  0.00  0.00    +0.000 C 
ATOM      5  C   UNL     1      -1.208   0.432  -1.880  0.00  0.00    +0.000 C 
ATOM      6  C   UNL     1      -0.194  -0.007  -0.812  0.00  0.00    +0.000 C 
ENDROOT
BRANCH   1  11
ATOM      7  C   UNL     1       2.634  -2.521   3.537  0.00  0.00    +0.000 C 
ATOM      8  N   UNL     1       1.398  -1.884   3.069  0.00  0.00    +0.000 N 
ATOM      9  C   UNL     1       1.011  -1.981   1.686  0.00  0.00    +0.000 C 
ATOM     10  O   UNL     1       1.755  -2.590   0.868  0.00  0.00    +0.000 OA
ATOM     11  N   UNL     1      -0.216  -1.387   1.228  0.00  0.00    +0.000 N 
ATOM     12  H   UNL     1      -0.795  -0.835   1.900  0.00  0.00    +0.000 HD
BRANCH   8  13
ATOM     13  N   UNL     1       0.659  -1.053   3.931  0.00  0.00    +0.000 NA
ATOM     14  O   UNL     1       1.009  -0.860   5.114  0.00  0.00    +0.000 OA
ENDBRANCH   8  13
ENDBRANCH   1  11
BRANCH   2  15
ATOM     15  O   UNL     1      -2.562  -2.543   0.619  0.00  0.00    +0.000 OA
ATOM     16  H   UNL     1      -3.517  -2.725   0.420  0.00  0.00    +0.000 HD
ENDBRANCH   2  15
BRANCH   5  17
ATOM     17  O   UNL     1      -0.858   1.693  -2.390  0.00  0.00    +0.000 OA
ATOM     18  H   UNL     1      -0.150   1.545  -3.071  0.00  0.00    +0.000 HD
ENDBRANCH   5  17
BRANCH   6  19
ATOM     19  O   UNL     1       1.082  -0.112  -1.389  0.00  0.00    +0.000 OA
ATOM     20  H   UNL     1       1.735  -0.098  -0.642  0.00  0.00    +0.000 HD
ENDBRANCH   6  19
BRANCH   4  21
ATOM     21  C   UNL     1      -3.742   0.322  -2.299  0.00  0.00    +0.000 C 
BRANCH  21  22
ATOM     22  O   UNL     1      -3.664   1.315  -3.287  0.00  0.00    +0.000 OA
ATOM     23  H   UNL     1      -4.015   2.149  -2.880  0.00  0.00    +0.000 HD
ENDBRANCH  21  22
ENDBRANCH   4  21
TORSDOF 7
