REMARK  Name = 448882
REMARK  9 active torsions:
REMARK  status: ('A' for Active; 'I' for Inactive)
REMARK    1  A    between atoms: O_2  and  C_3
REMARK    2  A    between atoms: C_3  and  C_30
REMARK    3  A    between atoms: N_4  and  C_5
REMARK    4  A    between atoms: C_7  and  O_9
REMARK    5  A    between atoms: O_9  and  C_10
REMARK    6  A    between atoms: C_15  and  C_17
REMARK    7  A    between atoms: C_17  and  O_20
REMARK    8  A    between atoms: C_22  and  O_24
REMARK    9  A    between atoms: C_26  and  O_28
REMARK                            x       y       z     vdW  Elec       q    Type
REMARK                         _______ _______ _______ _____ _____    ______ ____
ROOT
ATOM      1  C   UNL     1      -0.072   0.695   0.549  0.00  0.00    +0.000 C 
ATOM      2  C   UNL     1       1.134  -0.269   0.569  0.00  0.00    +0.000 C 
ATOM      3  O   UNL     1       1.706  -0.402  -0.727  0.00  0.00    +0.000 OA
ATOM      4  C   UNL     1       0.778  -0.946  -1.653  0.00  0.00    +0.000 C 
ATOM      5  C   UNL     1      -0.422   0.005  -1.853  0.00  0.00    +0.000 C 
ATOM      6  C   UNL     1      -1.110   0.233  -0.493  0.00  0.00    +0.000 C 
ENDROOT
BRANCH   1   8
ATOM      7  C   UNL     1      -1.354   1.746   2.355  0.00  0.00    +0.000 C 
ATOM      8  N   UNL     1      -0.670   0.745   1.886  0.00  0.00    +0.000 NA
ATOM      9  C   UNL     1      -1.912   1.671   3.739  0.00  0.00    +0.000 C 
BRANCH   7  11
ATOM     10  H   UNL     1      -2.051   3.694   1.962  0.00  0.00    +0.000 HD
ATOM     11  O   UNL     1      -1.535   2.903   1.597  0.00  0.00    +0.000 OA
ENDBRANCH   7  11
ENDBRANCH   1   8
BRANCH   2  12
ATOM     12  O   UNL     1       0.748  -1.529   1.100  0.00  0.00    +0.000 OA
ATOM     13  C   UNL     1       1.891  -2.275   1.456  0.00  0.00    +0.000 C 
ENDBRANCH   2  12
BRANCH   5  14
ATOM     14  O   UNL     1       0.016   1.231  -2.384  0.00  0.00    +0.000 OA
ATOM     15  H   UNL     1      -0.761   1.641  -2.847  0.00  0.00    +0.000 HD
ENDBRANCH   5  14
BRANCH   6  16
ATOM     16  O   UNL     1      -2.126   1.194  -0.618  0.00  0.00    +0.000 OA
ATOM     17  H   UNL     1      -2.879   0.754  -1.094  0.00  0.00    +0.000 HD
ENDBRANCH   6  16
BRANCH   4  18
ATOM     18  C   UNL     1       1.497  -1.251  -2.978  0.00  0.00    +0.000 C 
BRANCH  18  19
ATOM     19  O   UNL     1       2.131  -0.111  -3.495  0.00  0.00    +0.000 OA
ATOM     20  H   UNL     1       2.986  -0.009  -3.001  0.00  0.00    +0.000 HD
ENDBRANCH  18  19
ENDBRANCH   4  18
TORSDOF 7
