REMARK  Name = 134695375
REMARK  8 active torsions:
REMARK  status: ('A' for Active; 'I' for Inactive)
REMARK    1  A    between atoms: O_2  and  N_3
REMARK    2  A    between atoms: N_4  and  C_31
REMARK    3  A    between atoms: N_7  and  C_9
REMARK    4  A    between atoms: C_11  and  O_13
REMARK    5  A    between atoms: C_16  and  C_18
REMARK    6  A    between atoms: C_18  and  O_21
REMARK    7  A    between atoms: C_23  and  O_25
REMARK    8  A    between atoms: C_27  and  O_29
REMARK                            x       y       z     vdW  Elec       q    Type
REMARK                         _______ _______ _______ _____ _____    ______ ____
ROOT
ATOM      1  C   UNL     1      -0.229   1.134   0.652  0.00  0.00    +0.000 C 
ATOM      2  C   UNL     1      -1.148   1.679  -0.468  0.00  0.00    +0.000 C 
ATOM      3  O   UNL     1      -1.654   0.619  -1.260  0.00  0.00    +0.000 OA
ATOM      4  C   UNL     1      -2.507  -0.212  -0.490  0.00  0.00    +0.000 C 
ATOM      5  C   UNL     1      -1.706  -0.936   0.616  0.00  0.00    +0.000 C 
ATOM      6  C   UNL     1      -0.996   0.100   1.510  0.00  0.00    +0.000 C 
ENDROOT
BRANCH   1  11
ATOM      7  N   UNL     1       4.258  -0.707   1.030  0.00  0.00    +0.000 NA
ATOM      8  N   UNL     1       3.377  -0.193   0.261  0.00  0.00    +0.000 N 
ATOM      9  C   UNL     1       2.182   0.345   0.857  0.00  0.00    +0.000 C 
ATOM     10  O   UNL     1       2.183   0.642   2.084  0.00  0.00    +0.000 OA
ATOM     11  N   UNL     1       0.984   0.531   0.083  0.00  0.00    +0.000 N 
ATOM     12  H   UNL     1       0.956   0.188  -0.903  0.00  0.00    +0.000 HD
ATOM     13  C   UNL     1       3.548  -0.204  -1.198  0.00  0.00    +0.000 C 
BRANCH   7  15
ATOM     14  H   UNL     1       6.086  -1.682   1.187  0.00  0.00    +0.000 HD
ATOM     15  O   UNL     1       5.411  -1.285   0.546  0.00  0.00    +0.000 OA
ENDBRANCH   7  15
ENDBRANCH   1  11
BRANCH   2  16
ATOM     16  O   UNL     1      -0.424   2.547  -1.299  0.00  0.00    +0.000 OA
ATOM     17  H   UNL     1      -0.269   3.380  -0.781  0.00  0.00    +0.000 HD
ENDBRANCH   2  16
BRANCH   5  18
ATOM     18  O   UNL     1      -0.761  -1.801   0.035  0.00  0.00    +0.000 OA
ATOM     19  H   UNL     1      -0.474  -2.432   0.746  0.00  0.00    +0.000 HD
ENDBRANCH   5  18
BRANCH   6  20
ATOM     20  O   UNL     1      -1.953   0.754   2.305  0.00  0.00    +0.000 OA
ATOM     21  H   UNL     1      -1.461   1.193   3.046  0.00  0.00    +0.000 HD
ENDBRANCH   6  20
BRANCH   4  22
ATOM     22  C   UNL     1      -3.198  -1.220  -1.421  0.00  0.00    +0.000 C 
BRANCH  22  23
ATOM     23  O   UNL     1      -3.978  -0.549  -2.374  0.00  0.00    +0.000 OA
ATOM     24  H   UNL     1      -4.803  -0.251  -1.909  0.00  0.00    +0.000 HD
ENDBRANCH  22  23
ENDBRANCH   4  22
TORSDOF 7
