REMARK  Name = 82313
REMARK  7 active torsions:
REMARK  status: ('A' for Active; 'I' for Inactive)
REMARK    1  A    between atoms: C_1  and  C_2
REMARK    2  A    between atoms: N_4  and  C_5
REMARK    3  A    between atoms: C_6  and  O_7
REMARK    4  A    between atoms: C_9  and  C_10
REMARK    5  A    between atoms: C_10  and  O_11
REMARK    6  A    between atoms: C_12  and  O_13
REMARK    7  A    between atoms: C_14  and  O_15
REMARK                            x       y       z     vdW  Elec       q    Type
REMARK                         _______ _______ _______ _____ _____    ______ ____
ROOT
ATOM      1  C   UNL     1      -0.263  -0.358   0.391  0.00  0.00    +0.000 C 
ATOM      2  C   UNL     1      -0.381  -1.375  -0.763  0.00  0.00    +0.000 C 
ATOM      3  O   UNL     1      -0.166  -2.702  -0.302  0.00  0.00    +0.000 OA
ATOM      4  C   UNL     1       1.142  -2.873   0.225  0.00  0.00    +0.000 C 
ATOM      5  C   UNL     1       1.354  -1.978   1.467  0.00  0.00    +0.000 C 
ATOM      6  C   UNL     1       1.105  -0.506   1.086  0.00  0.00    +0.000 C 
ENDROOT
BRANCH   1  10
ATOM      7  C   UNL     1      -1.852   2.926  -0.992  0.00  0.00    +0.000 C 
ATOM      8  C   UNL     1      -1.733   1.533  -0.466  0.00  0.00    +0.000 C 
ATOM      9  O   UNL     1      -2.773   0.838  -0.304  0.00  0.00    +0.000 OA
ATOM     10  N   UNL     1      -0.446   1.010  -0.110  0.00  0.00    +0.000 N 
ATOM     11  H   UNL     1       0.382   1.645  -0.189  0.00  0.00    +0.000 HD
ENDBRANCH   1  10
BRANCH   2  12
ATOM     12  O   UNL     1       0.499  -1.050  -1.811  0.00  0.00    +0.000 OA
ATOM     13  H   UNL     1       0.292  -1.675  -2.554  0.00  0.00    +0.000 HD
ENDBRANCH   2  12
BRANCH   5  14
ATOM     14  O   UNL     1       2.670  -2.127   1.938  0.00  0.00    +0.000 OA
ATOM     15  H   UNL     1       2.671  -1.829   2.885  0.00  0.00    +0.000 HD
ENDBRANCH   5  14
BRANCH   6  16
ATOM     16  O   UNL     1       1.185   0.327   2.217  0.00  0.00    +0.000 OA
ATOM     17  H   UNL     1       0.480   0.040   2.855  0.00  0.00    +0.000 HD
ENDBRANCH   6  16
BRANCH   4  18
ATOM     18  C   UNL     1       1.326  -4.354   0.588  0.00  0.00    +0.000 C 
BRANCH  18  19
ATOM     19  O   UNL     1       1.119  -5.163  -0.538  0.00  0.00    +0.000 OA
ATOM     20  H   UNL     1       1.929  -5.074  -1.105  0.00  0.00    +0.000 HD
ENDBRANCH  18  19
ENDBRANCH   4  18
TORSDOF 6
