REMARK  Name = 447448
REMARK  10 active torsions:
REMARK  status: ('A' for Active; 'I' for Inactive)
REMARK    1  A    between atoms: O_2  and  C_3
REMARK    2  A    between atoms: C_3  and  N_13
REMARK    3  A    between atoms: C_4  and  C_6
REMARK    4  A    between atoms: C_6  and  C_9
REMARK    5  A    between atoms: N_13  and  C_15
REMARK    6  A    between atoms: C_17  and  O_19
REMARK    7  A    between atoms: C_22  and  C_24
REMARK    8  A    between atoms: C_24  and  O_27
REMARK    9  A    between atoms: C_29  and  O_31
REMARK   10  A    between atoms: C_33  and  O_35
REMARK                            x       y       z     vdW  Elec       q    Type
REMARK                         _______ _______ _______ _____ _____    ______ ____
ROOT
ATOM      1  C   UNL     1       0.195  -0.170  -0.642  0.00  0.00    +0.000 C 
ATOM      2  C   UNL     1       1.033   1.072  -0.278  0.00  0.00    +0.000 C 
ATOM      3  O   UNL     1       2.071   0.715   0.620  0.00  0.00    +0.000 OA
ATOM      4  C   UNL     1       1.539   0.301   1.867  0.00  0.00    +0.000 C 
ATOM      5  C   UNL     1       0.735  -1.010   1.693  0.00  0.00    +0.000 C 
ATOM      6  C   UNL     1      -0.378  -0.796   0.645  0.00  0.00    +0.000 C 
ENDROOT
BRANCH   1   7
ATOM      7  N   UNL     1      -0.899   0.203  -1.544  0.00  0.00    +0.000 N 
ATOM      8  H   UNL     1      -1.624   0.855  -1.167  0.00  0.00    +0.000 HD
BRANCH   7   9
ATOM      9  C   UNL     1      -0.729   0.202  -2.967  0.00  0.00    +0.000 C 
ATOM     10  C   UNL     1      -0.698  -0.939  -3.674  0.00  0.00    +0.000 C 
BRANCH   9  12
ATOM     11  H   UNL     1      -0.526   1.493  -4.630  0.00  0.00    +0.000 HD
ATOM     12  O   UNL     1      -0.636   1.429  -3.625  0.00  0.00    +0.000 OA
ENDBRANCH   9  12
BRANCH  10  13
ATOM     13  C   UNL     1      -0.905  -2.295  -3.054  0.00  0.00    +0.000 C 
ATOM     14  C   UNL     1      -1.099  -3.368  -4.121  0.00  0.00    +0.000 C 
ENDBRANCH  10  13
ENDBRANCH   7   9
ENDBRANCH   1   7
BRANCH   2  15
ATOM     15  O   UNL     1       1.608   1.595  -1.444  0.00  0.00    +0.000 OA
ATOM     16  H   UNL     1       2.041   2.449  -1.185  0.00  0.00    +0.000 HD
ENDBRANCH   2  15
BRANCH   5  17
ATOM     17  O   UNL     1       0.158  -1.385   2.918  0.00  0.00    +0.000 OA
ATOM     18  H   UNL     1      -0.045  -2.354   2.856  0.00  0.00    +0.000 HD
ENDBRANCH   5  17
BRANCH   6  19
ATOM     19  O   UNL     1      -1.044  -2.002   0.363  0.00  0.00    +0.000 OA
ATOM     20  H   UNL     1      -0.368  -2.647   0.025  0.00  0.00    +0.000 HD
ENDBRANCH   6  19
BRANCH   4  21
ATOM     21  C   UNL     1       2.715   0.114   2.841  0.00  0.00    +0.000 C 
BRANCH  21  22
ATOM     22  O   UNL     1       2.263  -0.119   4.148  0.00  0.00    +0.000 OA
ATOM     23  H   UNL     1       1.945   0.753   4.499  0.00  0.00    +0.000 HD
ENDBRANCH  21  22
ENDBRANCH   4  21
TORSDOF 9
