REMARK  Name = 82313
REMARK  8 active torsions:
REMARK  status: ('A' for Active; 'I' for Inactive)
REMARK    1  A    between atoms: C_1  and  C_2
REMARK    2  A    between atoms: C_2  and  O_3
REMARK    3  A    between atoms: N_4  and  C_5
REMARK    4  A    between atoms: C_6  and  O_7
REMARK    5  A    between atoms: C_9  and  C_10
REMARK    6  A    between atoms: C_10  and  O_11
REMARK    7  A    between atoms: C_12  and  O_13
REMARK    8  A    between atoms: C_14  and  O_15
REMARK                            x       y       z     vdW  Elec       q    Type
REMARK                         _______ _______ _______ _____ _____    ______ ____
ROOT
ATOM      1  C   UNL     1       0.136  -1.015   0.521  0.00  0.00    +0.000 C 
ATOM      2  C   UNL     1      -0.072   0.292   1.317  0.00  0.00    +0.000 C 
ATOM      3  O   UNL     1      -1.292   0.916   0.956  0.00  0.00    +0.000 OA
ATOM      4  C   UNL     1      -2.430   0.121   1.272  0.00  0.00    +0.000 C 
ATOM      5  C   UNL     1      -2.389  -1.278   0.604  0.00  0.00    +0.000 C 
ATOM      6  C   UNL     1      -1.029  -1.980   0.805  0.00  0.00    +0.000 C 
ENDROOT
BRANCH   1   9
ATOM      7  C   UNL     1       1.202  -0.157  -3.037  0.00  0.00    +0.000 C 
ATOM      8  C   UNL     1       1.277  -0.409  -1.565  0.00  0.00    +0.000 C 
ATOM      9  N   UNL     1       0.200  -0.741  -0.918  0.00  0.00    +0.000 NA
BRANCH   8  10
ATOM     10  O   UNL     1       2.506  -0.325  -0.910  0.00  0.00    +0.000 OA
ATOM     11  H   UNL     1       3.352  -0.084  -1.411  0.00  0.00    +0.000 HD
ENDBRANCH   8  10
ENDBRANCH   1   9
BRANCH   2  12
ATOM     12  O   UNL     1       0.974   1.189   1.051  0.00  0.00    +0.000 OA
ATOM     13  H   UNL     1       1.773   0.855   1.536  0.00  0.00    +0.000 HD
ENDBRANCH   2  12
BRANCH   5  14
ATOM     14  O   UNL     1      -2.647  -1.128  -0.770  0.00  0.00    +0.000 OA
ATOM     15  H   UNL     1      -2.922  -2.019  -1.113  0.00  0.00    +0.000 HD
ENDBRANCH   5  14
BRANCH   6  16
ATOM     16  O   UNL     1      -0.943  -2.474   2.118  0.00  0.00    +0.000 OA
ATOM     17  H   UNL     1      -0.211  -3.145   2.127  0.00  0.00    +0.000 HD
ENDBRANCH   6  16
BRANCH   4  18
ATOM     18  C   UNL     1      -2.731   0.075   2.787  0.00  0.00    +0.000 C 
BRANCH  18  19
ATOM     19  O   UNL     1      -2.801   1.373   3.311  0.00  0.00    +0.000 OA
ATOM     20  H   UNL     1      -1.868   1.662   3.484  0.00  0.00    +0.000 HD
ENDBRANCH  18  19
ENDBRANCH   4  18
TORSDOF 7
