REMARK  Name = 127132
REMARK  15 active torsions:
REMARK  status: ('A' for Active; 'I' for Inactive)
REMARK    1  A    between atoms: C_1  and  C_2
REMARK    2  A    between atoms: N_4  and  C_5
REMARK    3  A    between atoms: C_6  and  O_7
REMARK    4  A    between atoms: O_7  and  C_8
REMARK    5  A    between atoms: C_8  and  C_9
REMARK    6  A    between atoms: C_12  and  C_13
REMARK    7  A    between atoms: C_13  and  O_14
REMARK    8  A    between atoms: O_14  and  C_15
REMARK    9  A    between atoms: C_15  and  C_16
REMARK   10  A    between atoms: C_18  and  O_19
REMARK   11  A    between atoms: O_19  and  C_20
REMARK   12  A    between atoms: C_20  and  C_21
REMARK   13  A    between atoms: C_23  and  O_24
REMARK   14  A    between atoms: O_24  and  C_25
REMARK   15  A    between atoms: C_25  and  C_26
REMARK                            x       y       z     vdW  Elec       q    Type
REMARK                         _______ _______ _______ _____ _____    ______ ____
ROOT
ATOM      1  C   UNL     1      -1.432  -0.646   0.165  0.00  0.00    +0.000 C 
ATOM      2  C   UNL     1      -0.332  -1.720   0.248  0.00  0.00    +0.000 C 
ATOM      3  O   UNL     1       0.861  -1.196   0.810  0.00  0.00    +0.000 OA
ATOM      4  C   UNL     1       1.408  -0.159   0.010  0.00  0.00    +0.000 C 
ATOM      5  C   UNL     1       0.445   1.047  -0.052  0.00  0.00    +0.000 C 
ATOM      6  C   UNL     1      -0.918   0.589  -0.603  0.00  0.00    +0.000 C 
ENDROOT
BRANCH   1  10
ATOM      7  C   UNL     1      -3.586   0.468   3.223  0.00  0.00    +0.000 C 
ATOM      8  C   UNL     1      -3.238  -0.063   1.870  0.00  0.00    +0.000 C 
ATOM      9  O   UNL     1      -4.158  -0.319   1.047  0.00  0.00    +0.000 OA
ATOM     10  N   UNL     1      -1.863  -0.269   1.518  0.00  0.00    +0.000 N 
ATOM     11  H   UNL     1      -1.135  -0.034   2.230  0.00  0.00    +0.000 HD
ENDBRANCH   1  10
BRANCH   2  12
ATOM     12  O   UNL     1      -0.092  -2.294  -1.039  0.00  0.00    +0.000 OA
BRANCH  12  13
ATOM     13  C   UNL     1       0.764  -3.382  -1.238  0.00  0.00    +0.000 C 
ATOM     14  C   UNL     1       0.977  -3.906  -2.617  0.00  0.00    +0.000 C 
ATOM     15  O   UNL     1       1.326  -3.947  -0.261  0.00  0.00    +0.000 OA
ENDBRANCH  12  13
ENDBRANCH   2  12
BRANCH   4  16
ATOM     16  C   UNL     1       2.762   0.256   0.605  0.00  0.00    +0.000 C 
BRANCH  16  17
ATOM     17  O   UNL     1       3.695  -0.822   0.530  0.00  0.00    +0.000 OA
BRANCH  17  18
ATOM     18  C   UNL     1       3.776  -1.847   1.479  0.00  0.00    +0.000 C 
ATOM     19  C   UNL     1       4.697  -2.995   1.241  0.00  0.00    +0.000 C 
ATOM     20  O   UNL     1       3.060  -1.828   2.517  0.00  0.00    +0.000 OA
ENDBRANCH  17  18
ENDBRANCH  16  17
ENDBRANCH   4  16
BRANCH   5  21
ATOM     21  O   UNL     1       0.997   2.050  -0.909  0.00  0.00    +0.000 OA
BRANCH  21  22
ATOM     22  C   UNL     1       0.663   3.407  -0.834  0.00  0.00    +0.000 C 
ATOM     23  C   UNL     1       1.251   4.359  -1.819  0.00  0.00    +0.000 C 
ATOM     24  O   UNL     1      -0.081   3.842   0.086  0.00  0.00    +0.000 OA
ENDBRANCH  21  22
ENDBRANCH   5  21
BRANCH   6  25
ATOM     25  O   UNL     1      -1.857   1.661  -0.514  0.00  0.00    +0.000 OA
BRANCH  25  26
ATOM     26  C   UNL     1      -3.055   1.703  -1.234  0.00  0.00    +0.000 C 
ATOM     27  C   UNL     1      -3.988   2.848  -1.036  0.00  0.00    +0.000 C 
ATOM     28  O   UNL     1      -3.333   0.809  -2.079  0.00  0.00    +0.000 OA
ENDBRANCH  25  26
ENDBRANCH   6  25
TORSDOF 10
