REMARK  Name = 644170
REMARK  8 active torsions:
REMARK  status: ('A' for Active; 'I' for Inactive)
REMARK    1  A    between atoms: O_2  and  C_3
REMARK    2  A    between atoms: C_3  and  C_27
REMARK    3  A    between atoms: N_4  and  C_5
REMARK    4  A    between atoms: C_7  and  O_9
REMARK    5  A    between atoms: C_12  and  C_14
REMARK    6  A    between atoms: C_14  and  O_17
REMARK    7  A    between atoms: C_19  and  O_21
REMARK    8  A    between atoms: C_23  and  O_25
REMARK                            x       y       z     vdW  Elec       q    Type
REMARK                         _______ _______ _______ _____ _____    ______ ____
ROOT
ATOM      1  C   UNL     1       0.077  -0.257   0.522  0.00  0.00    +0.000 C 
ATOM      2  C   UNL     1      -0.692   0.467   1.642  0.00  0.00    +0.000 C 
ATOM      3  O   UNL     1      -1.624   1.399   1.111  0.00  0.00    +0.000 OA
ATOM      4  C   UNL     1      -0.982   2.426   0.370  0.00  0.00    +0.000 C 
ATOM      5  C   UNL     1      -0.240   1.839  -0.855  0.00  0.00    +0.000 C 
ATOM      6  C   UNL     1       0.769   0.782  -0.386  0.00  0.00    +0.000 C 
ENDROOT
BRANCH   1   8
ATOM      7  C   UNL     1      -0.553  -2.163  -0.888  0.00  0.00    +0.000 C 
ATOM      8  N   UNL     1      -0.866  -1.077  -0.245  0.00  0.00    +0.000 NA
ATOM      9  C   UNL     1      -1.607  -2.889  -1.659  0.00  0.00    +0.000 C 
BRANCH   7  11
ATOM     10  H   UNL     1       1.010  -3.478  -1.395  0.00  0.00    +0.000 HD
ATOM     11  O   UNL     1       0.756  -2.642  -0.883  0.00  0.00    +0.000 OA
ENDBRANCH   7  11
ENDBRANCH   1   8
BRANCH   2  12
ATOM     12  O   UNL     1       0.200   1.087   2.535  0.00  0.00    +0.000 OA
ATOM     13  H   UNL     1      -0.352   1.442   3.280  0.00  0.00    +0.000 HD
ENDBRANCH   2  12
BRANCH   5  14
ATOM     14  O   UNL     1       0.454   2.855  -1.536  0.00  0.00    +0.000 OA
ATOM     15  H   UNL     1      -0.126   3.157  -2.283  0.00  0.00    +0.000 HD
ENDBRANCH   5  14
BRANCH   6  16
ATOM     16  O   UNL     1       1.352   0.162  -1.503  0.00  0.00    +0.000 OA
ATOM     17  H   UNL     1       2.183  -0.278  -1.185  0.00  0.00    +0.000 HD
ENDBRANCH   6  16
BRANCH   4  18
ATOM     18  C   UNL     1      -2.046   3.441  -0.072  0.00  0.00    +0.000 C 
BRANCH  18  19
ATOM     19  O   UNL     1      -2.687   3.996   1.046  0.00  0.00    +0.000 OA
ATOM     20  H   UNL     1      -3.395   3.356   1.319  0.00  0.00    +0.000 HD
ENDBRANCH  18  19
ENDBRANCH   4  18
TORSDOF 7
