REMARK  Name = 122253
REMARK  10 active torsions:
REMARK  status: ('A' for Active; 'I' for Inactive)
REMARK    1  A    between atoms: O_2  and  C_3
REMARK    2  A    between atoms: C_3  and  C_40
REMARK    3  A    between atoms: N_4  and  C_5
REMARK    4  A    between atoms: C_7  and  O_9
REMARK    5  A    between atoms: O_9  and  C_10
REMARK    6  A    between atoms: C_10  and  C_13
REMARK    7  A    between atoms: C_25  and  C_27
REMARK    8  A    between atoms: C_27  and  O_30
REMARK    9  A    between atoms: C_32  and  O_34
REMARK   10  A    between atoms: C_36  and  O_38
REMARK                            x       y       z     vdW  Elec       q    Type
REMARK                         _______ _______ _______ _____ _____    ______ ____
ROOT
ATOM      1  C   UNL     1      -0.220   1.327  -0.771  0.00  0.00    +0.000 C 
ATOM      2  C   UNL     1       0.910   0.481  -0.147  0.00  0.00    +0.000 C 
ATOM      3  O   UNL     1       2.153   0.778  -0.764  0.00  0.00    +0.000 OA
ATOM      4  C   UNL     1       2.563   2.126  -0.561  0.00  0.00    +0.000 C 
ATOM      5  C   UNL     1       1.514   3.138  -1.095  0.00  0.00    +0.000 C 
ATOM      6  C   UNL     1       0.090   2.827  -0.598  0.00  0.00    +0.000 C 
ENDROOT
BRANCH   1   8
ATOM      7  C   UNL     1      -1.403   1.247  -2.911  0.00  0.00    +0.000 C 
ATOM      8  N   UNL     1      -0.353   0.988  -2.191  0.00  0.00    +0.000 NA
ATOM      9  C   UNL     1      -1.413   0.874  -4.358  0.00  0.00    +0.000 C 
BRANCH   7  11
ATOM     10  H   UNL     1      -3.324   2.111  -2.911  0.00  0.00    +0.000 HD
ATOM     11  O   UNL     1      -2.507   1.891  -2.353  0.00  0.00    +0.000 OA
ENDBRANCH   7  11
ENDBRANCH   1   8
BRANCH   5  12
ATOM     12  O   UNL     1       1.880   4.452  -0.758  0.00  0.00    +0.000 OA
ATOM     13  H   UNL     1       1.346   5.057  -1.338  0.00  0.00    +0.000 HD
ENDBRANCH   5  12
BRANCH   6  14
ATOM     14  O   UNL     1      -0.047   3.200   0.750  0.00  0.00    +0.000 OA
ATOM     15  H   UNL     1      -1.020   3.238   0.941  0.00  0.00    +0.000 HD
ENDBRANCH   6  14
BRANCH   2  16
ATOM     16  O   UNL     1       0.638  -0.892  -0.377  0.00  0.00    +0.000 OA
BRANCH  16  17
ATOM     17  C   UNL     1      -0.041  -1.474   0.717  0.00  0.00    +0.000 C 
BRANCH  17  18
ATOM     18  C   UNL     1      -0.564  -2.817   0.300  0.00  0.00    +0.000 A 
ATOM     19  C   UNL     1      -1.747  -2.907  -0.451  0.00  0.00    +0.000 A 
ATOM     20  C   UNL     1      -2.219  -4.153  -0.875  0.00  0.00    +0.000 A 
ATOM     21  C   UNL     1      -1.508  -5.315  -0.561  0.00  0.00    +0.000 A 
ATOM     22  C   UNL     1      -0.322  -5.232   0.173  0.00  0.00    +0.000 A 
ATOM     23  C   UNL     1       0.155  -3.987   0.598  0.00  0.00    +0.000 A 
ENDBRANCH  17  18
ENDBRANCH  16  17
ENDBRANCH   2  16
BRANCH   4  24
ATOM     24  C   UNL     1       3.043   2.373   0.890  0.00  0.00    +0.000 C 
BRANCH  24  25
ATOM     25  O   UNL     1       3.851   3.517   0.963  0.00  0.00    +0.000 OA
ATOM     26  H   UNL     1       4.743   3.260   0.610  0.00  0.00    +0.000 HD
ENDBRANCH  24  25
ENDBRANCH   4  24
TORSDOF 9
