REMARK  Name = 439281
REMARK  7 active torsions:
REMARK  status: ('A' for Active; 'I' for Inactive)
REMARK    1  A    between atoms: C_1  and  C_2
REMARK    2  A    between atoms: N_4  and  C_5
REMARK    3  A    between atoms: C_6  and  O_7
REMARK    4  A    between atoms: C_9  and  C_10
REMARK    5  A    between atoms: C_10  and  O_11
REMARK    6  A    between atoms: C_12  and  O_13
REMARK    7  A    between atoms: C_14  and  O_15
REMARK                            x       y       z     vdW  Elec       q    Type
REMARK                         _______ _______ _______ _____ _____    ______ ____
ROOT
ATOM      1  C   UNL     1       1.380   0.463   0.617  0.00  0.00    +0.000 C 
ATOM      2  C   UNL     1       0.678   1.467  -0.317  0.00  0.00    +0.000 C 
ATOM      3  O   UNL     1      -0.141   0.784  -1.251  0.00  0.00    +0.000 OA
ATOM      4  C   UNL     1       0.649   0.009  -2.138  0.00  0.00    +0.000 C 
ATOM      5  C   UNL     1       1.374  -1.123  -1.366  0.00  0.00    +0.000 C 
ATOM      6  C   UNL     1       2.217  -0.521  -0.226  0.00  0.00    +0.000 C 
ENDROOT
BRANCH   1  10
ATOM      7  C   UNL     1      -0.390  -1.427   3.538  0.00  0.00    +0.000 C 
ATOM      8  C   UNL     1       0.623  -0.615   2.799  0.00  0.00    +0.000 C 
ATOM      9  O   UNL     1       1.688  -0.271   3.380  0.00  0.00    +0.000 OA
ATOM     10  N   UNL     1       0.391  -0.259   1.429  0.00  0.00    +0.000 N 
ATOM     11  H   UNL     1      -0.473  -0.625   0.967  0.00  0.00    +0.000 HD
ENDBRANCH   1  10
BRANCH   2  12
ATOM     12  O   UNL     1      -0.118   2.328   0.451  0.00  0.00    +0.000 OA
ATOM     13  H   UNL     1      -0.473   3.013  -0.174  0.00  0.00    +0.000 HD
ENDBRANCH   2  12
BRANCH   5  14
ATOM     14  O   UNL     1       2.212  -1.834  -2.241  0.00  0.00    +0.000 OA
ATOM     15  H   UNL     1       2.381  -2.719  -1.823  0.00  0.00    +0.000 HD
ENDBRANCH   5  14
BRANCH   6  16
ATOM     16  O   UNL     1       2.725  -1.553   0.580  0.00  0.00    +0.000 OA
ATOM     17  H   UNL     1       3.453  -1.156   1.127  0.00  0.00    +0.000 HD
ENDBRANCH   6  16
BRANCH   4  18
ATOM     18  C   UNL     1      -0.280  -0.559  -3.221  0.00  0.00    +0.000 C 
BRANCH  18  19
ATOM     19  O   UNL     1       0.468  -1.146  -4.250  0.00  0.00    +0.000 OA
ATOM     20  H   UNL     1      -0.191  -1.502  -4.902  0.00  0.00    +0.000 HD
ENDBRANCH  18  19
ENDBRANCH   4  18
TORSDOF 6
