REMARK  Name = 198515
REMARK  15 active torsions:
REMARK  status: ('A' for Active; 'I' for Inactive)
REMARK    1  A    between atoms: C_1  and  C_2
REMARK    2  A    between atoms: C_2  and  O_4
REMARK    3  A    between atoms: O_4  and  C_5
REMARK    4  A    between atoms: C_5  and  C_6
REMARK    5  A    between atoms: C_8  and  O_9
REMARK    6  A    between atoms: O_9  and  C_10
REMARK    7  A    between atoms: C_10  and  C_11
REMARK    8  A    between atoms: C_13  and  N_14
REMARK    9  A    between atoms: C_15  and  C_17
REMARK   10  A    between atoms: C_19  and  O_20
REMARK   11  A    between atoms: O_20  and  C_21
REMARK   12  A    between atoms: C_21  and  C_22
REMARK   13  A    between atoms: C_24  and  O_25
REMARK   14  A    between atoms: O_25  and  C_26
REMARK   15  A    between atoms: C_26  and  C_27
REMARK                            x       y       z     vdW  Elec       q    Type
REMARK                         _______ _______ _______ _____ _____    ______ ____
ROOT
ATOM      1  C   UNL     1      -0.643   0.931  -0.785  0.00  0.00    +0.000 C 
ATOM      2  O   UNL     1      -0.257   1.023  -2.153  0.00  0.00    +0.000 OA
ATOM      3  C   UNL     1       1.062   0.563  -2.416  0.00  0.00    +0.000 C 
ATOM      4  C   UNL     1       1.270  -0.906  -1.975  0.00  0.00    +0.000 C 
ATOM      5  C   UNL     1       0.939  -1.069  -0.484  0.00  0.00    +0.000 C 
ATOM      6  C   UNL     1      -0.463  -0.500  -0.203  0.00  0.00    +0.000 C 
ENDROOT
BRANCH   4   7
ATOM      7  N   UNL     1       0.435  -1.802  -2.786  0.00  0.00    +0.000 N 
ATOM      8  C   UNL     1       0.666  -3.216  -2.853  0.00  0.00    +0.000 C 
ATOM      9  O   UNL     1       1.665  -3.729  -2.280  0.00  0.00    +0.000 OA
ATOM     10  H   UNL     1      -0.364  -1.407  -3.333  0.00  0.00    +0.000 HD
BRANCH   8  11
ATOM     11  C   UNL     1      -0.305  -4.097  -3.571  0.00  0.00    +0.000 C 
ATOM     12 BR   UNL     1      -1.877  -4.354  -2.472  0.00  0.00    +0.000 Br
ENDBRANCH   8  11
ENDBRANCH   4   7
BRANCH   1  13
ATOM     13  C   UNL     1      -0.041   2.068   0.069  0.00  0.00    +0.000 C 
BRANCH  13  14
ATOM     14  O   UNL     1      -0.822   2.264   1.244  0.00  0.00    +0.000 OA
BRANCH  14  16
ATOM     15  C   UNL     1      -1.315   3.279   3.467  0.00  0.00    +0.000 C 
ATOM     16  C   UNL     1      -0.472   3.176   2.242  0.00  0.00    +0.000 C 
ATOM     17  O   UNL     1       0.573   3.875   2.141  0.00  0.00    +0.000 OA
ENDBRANCH  14  16
ENDBRANCH  13  14
ENDBRANCH   1  13
BRANCH   3  18
ATOM     18  O   UNL     1       2.026   1.437  -1.824  0.00  0.00    +0.000 OA
BRANCH  18  19
ATOM     19  C   UNL     1       3.380   1.460  -2.175  0.00  0.00    +0.000 C 
ATOM     20  C   UNL     1       4.314   2.342  -1.420  0.00  0.00    +0.000 C 
ATOM     21  O   UNL     1       3.809   0.782  -3.148  0.00  0.00    +0.000 OA
ENDBRANCH  18  19
ENDBRANCH   3  18
BRANCH   5  22
ATOM     22  O   UNL     1       1.940  -0.409   0.294  0.00  0.00    +0.000 OA
BRANCH  22  23
ATOM     23  C   UNL     1       2.231  -0.719   1.627  0.00  0.00    +0.000 C 
ATOM     24  C   UNL     1       3.170   0.151   2.389  0.00  0.00    +0.000 C 
ATOM     25  O   UNL     1       1.681  -1.698   2.201  0.00  0.00    +0.000 OA
ENDBRANCH  22  23
ENDBRANCH   5  22
BRANCH   6  26
ATOM     26  O   UNL     1      -0.732  -0.534   1.200  0.00  0.00    +0.000 OA
BRANCH  26  27
ATOM     27  C   UNL     1      -2.019  -0.481   1.746  0.00  0.00    +0.000 C 
ATOM     28  C   UNL     1      -2.186  -0.459   3.226  0.00  0.00    +0.000 C 
ATOM     29  O   UNL     1      -3.038  -0.483   1.003  0.00  0.00    +0.000 OA
ENDBRANCH  26  27
ENDBRANCH   6  26
TORSDOF 11
