REMARK  Name = 433580
REMARK  9 active torsions:
REMARK  status: ('A' for Active; 'I' for Inactive)
REMARK    1  A    between atoms: C_1  and  C_2
REMARK    2  A    between atoms: C_2  and  O_3
REMARK    3  A    between atoms: C_2  and  C_15
REMARK    4  A    between atoms: O_3  and  C_4
REMARK    5  A    between atoms: C_5  and  N_6
REMARK    6  A    between atoms: C_7  and  O_8
REMARK    7  A    between atoms: C_10  and  C_11
REMARK    8  A    between atoms: C_11  and  O_12
REMARK    9  A    between atoms: C_13  and  O_14
REMARK                            x       y       z     vdW  Elec       q    Type
REMARK                         _______ _______ _______ _____ _____    ______ ____
ROOT
ATOM      1  C   UNL     1      -0.436  -0.387   0.698  0.00  0.00    +0.000 C 
ATOM      2  C   UNL     1       0.475  -1.375  -0.064  0.00  0.00    +0.000 C 
ATOM      3  C   UNL     1      -0.309  -2.102  -1.178  0.00  0.00    +0.000 C 
ATOM      4  O   UNL     1      -1.481  -2.750  -0.698  0.00  0.00    +0.000 OA
ATOM      5  C   UNL     1      -2.392  -1.887  -0.025  0.00  0.00    +0.000 C 
ATOM      6  C   UNL     1      -1.736  -1.089   1.131  0.00  0.00    +0.000 C 
ENDROOT
BRANCH   2   7
ATOM      7  N   UNL     1       1.098  -2.346   0.851  0.00  0.00    +0.000 N 
ATOM      8  H   UNL     1       1.593  -1.846   1.625  0.00  0.00    +0.000 HD
ATOM      9  H   UNL     1       0.387  -2.995   1.256  0.00  0.00    +0.000 HD
ATOM     10  H   UNL     1       1.808  -2.911   0.331  0.00  0.00    +0.000 HD
ENDBRANCH   2   7
BRANCH   3  11
ATOM     11  O   UNL     1      -0.602  -1.223  -2.232  0.00  0.00    +0.000 OA
ATOM     12  H   UNL     1      -0.968  -1.779  -2.969  0.00  0.00    +0.000 HD
ENDBRANCH   3  11
BRANCH   6  13
ATOM     13  O   UNL     1      -2.646  -0.156   1.657  0.00  0.00    +0.000 OA
ATOM     14  H   UNL     1      -2.284   0.138   2.533  0.00  0.00    +0.000 HD
ENDBRANCH   6  13
BRANCH   1  15
ATOM     15  O   UNL     1      -0.753   0.722  -0.132  0.00  0.00    +0.000 OA
BRANCH  15  17
ATOM     16  C   UNL     1       0.204   2.618  -1.227  0.00  0.00    +0.000 C 
ATOM     17  C   UNL     1       0.145   1.800   0.060  0.00  0.00    +0.000 C 
BRANCH  17  18
ATOM     18  C   UNL     1      -0.334   2.670   1.187  0.00  0.00    +0.000 C 
ATOM     19  O   UNL     1       0.485   3.123   2.029  0.00  0.00    +0.000 OA
ATOM     20  O   UNL     1      -1.678   3.007   1.287  0.00  0.00    +0.000 OA
ENDBRANCH  17  18
ENDBRANCH  15  17
ENDBRANCH   1  15
BRANCH   5  21
ATOM     21  C   UNL     1      -3.241  -1.040  -0.996  0.00  0.00    +0.000 C 
BRANCH  21  22
ATOM     22  O   UNL     1      -3.726  -1.849  -2.032  0.00  0.00    +0.000 OA
ATOM     23  H   UNL     1      -4.258  -1.255  -2.622  0.00  0.00    +0.000 HD
ENDBRANCH  21  22
ENDBRANCH   5  21
TORSDOF 8
