REMARK  Name = 899
REMARK  8 active torsions:
REMARK  status: ('A' for Active; 'I' for Inactive)
REMARK    1  A    between atoms: O_2  and  C_3
REMARK    2  A    between atoms: C_3  and  C_27
REMARK    3  A    between atoms: N_4  and  C_5
REMARK    4  A    between atoms: C_7  and  O_9
REMARK    5  A    between atoms: C_11  and  O_13
REMARK    6  A    between atoms: C_15  and  C_17
REMARK    7  A    between atoms: C_17  and  O_20
REMARK    8  A    between atoms: C_23  and  O_25
REMARK                            x       y       z     vdW  Elec       q    Type
REMARK                         _______ _______ _______ _____ _____    ______ ____
ROOT
ATOM      1  C   UNL     1      -0.769  -0.228  -0.348  0.00  0.00    +0.000 C 
ATOM      2  C   UNL     1      -0.304   0.547   0.911  0.00  0.00    +0.000 C 
ATOM      3  C   UNL     1       1.163   0.213   1.264  0.00  0.00    +0.000 C 
ATOM      4  C   UNL     1       2.049   0.274  -0.002  0.00  0.00    +0.000 C 
ATOM      5  O   UNL     1       1.547  -0.603  -0.996  0.00  0.00    +0.000 OA
ATOM      6  C   UNL     1       0.290  -0.147  -1.467  0.00  0.00    +0.000 C 
ENDROOT
BRANCH   1   8
ATOM      7  C   UNL     1      -3.237  -0.008  -0.438  0.00  0.00    +0.000 C 
ATOM      8  N   UNL     1      -2.040   0.310  -0.846  0.00  0.00    +0.000 NA
ATOM      9  C   UNL     1      -3.482  -1.044   0.619  0.00  0.00    +0.000 C 
BRANCH   7  11
ATOM     10  H   UNL     1      -4.220   1.326  -1.733  0.00  0.00    +0.000 HD
ATOM     11  O   UNL     1      -4.336   0.623  -1.012  0.00  0.00    +0.000 OA
ENDBRANCH   7  11
ENDBRANCH   1   8
BRANCH   2  12
ATOM     12  O   UNL     1      -0.494   1.937   0.779  0.00  0.00    +0.000 OA
ATOM     13  H   UNL     1       0.023   2.252  -0.005  0.00  0.00    +0.000 HD
ENDBRANCH   2  12
BRANCH   3  14
ATOM     14  O   UNL     1       1.229  -1.075   1.823  0.00  0.00    +0.000 OA
ATOM     15  H   UNL     1       0.937  -0.994   2.768  0.00  0.00    +0.000 HD
ENDBRANCH   3  14
BRANCH   6  16
ATOM     16  O   UNL     1      -0.116  -0.968  -2.529  0.00  0.00    +0.000 OA
ATOM     17  H   UNL     1       0.533  -0.817  -3.265  0.00  0.00    +0.000 HD
ENDBRANCH   6  16
BRANCH   4  18
ATOM     18  C   UNL     1       3.499  -0.116   0.321  0.00  0.00    +0.000 C 
BRANCH  18  19
ATOM     19  O   UNL     1       4.305   0.010  -0.820  0.00  0.00    +0.000 OA
ATOM     20  H   UNL     1       4.482   0.979  -0.938  0.00  0.00    +0.000 HD
ENDBRANCH  18  19
ENDBRANCH   4  18
TORSDOF 7
