REMARK  Name = ZINC000015205840
REMARK  10 active torsions:
REMARK  status: ('A' for Active; 'I' for Inactive)
REMARK    1  A    between atoms: O_2  and  C_3
REMARK    2  A    between atoms: C_3  and  C_39
REMARK    3  A    between atoms: N_4  and  C_5
REMARK    4  A    between atoms: C_7  and  O_9
REMARK    5  A    between atoms: O_9  and  C_10
REMARK    6  A    between atoms: C_19  and  N_20
REMARK    7  A    between atoms: C_24  and  C_26
REMARK    8  A    between atoms: C_26  and  O_29
REMARK    9  A    between atoms: C_31  and  O_33
REMARK   10  A    between atoms: C_35  and  O_37
REMARK                            x       y       z     vdW  Elec       q    Type
REMARK                         _______ _______ _______ _____ _____    ______ ____
ROOT
ATOM      1  C   UNL     1      -0.649   0.204   0.860  0.00  0.00    +0.000 C 
ATOM      2  C   UNL     1       0.720   0.614   0.261  0.00  0.00    +0.000 C 
ATOM      3  O   UNL     1       1.489   1.267   1.256  0.00  0.00    +0.000 OA
ATOM      4  C   UNL     1       0.899   2.504   1.623  0.00  0.00    +0.000 C 
ATOM      5  C   UNL     1      -0.472   2.265   2.298  0.00  0.00    +0.000 C 
ATOM      6  C   UNL     1      -1.389   1.457   1.356  0.00  0.00    +0.000 C 
ENDROOT
BRANCH   1   8
ATOM      7  C   UNL     1      -1.532  -1.781  -0.274  0.00  0.00    +0.000 C 
ATOM      8  N   UNL     1      -1.482  -0.491  -0.124  0.00  0.00    +0.000 NA
ATOM      9  C   UNL     1      -2.404  -2.369  -1.335  0.00  0.00    +0.000 C 
BRANCH   7  11
ATOM     10  H   UNL     1      -0.785  -3.627   0.408  0.00  0.00    +0.000 HD
ATOM     11  O   UNL     1      -0.765  -2.622   0.532  0.00  0.00    +0.000 OA
ENDBRANCH   7  11
ENDBRANCH   1   8
BRANCH   5  12
ATOM     12  O   UNL     1      -1.071   3.494   2.621  0.00  0.00    +0.000 OA
ATOM     13  H   UNL     1      -1.804   3.296   3.260  0.00  0.00    +0.000 HD
ENDBRANCH   5  12
BRANCH   6  14
ATOM     14  O   UNL     1      -1.779   2.245   0.257  0.00  0.00    +0.000 OA
ATOM     15  H   UNL     1      -2.554   2.790   0.552  0.00  0.00    +0.000 HD
ENDBRANCH   6  14
BRANCH   2  16
ATOM     16  O   UNL     1       1.448  -0.547  -0.150  0.00  0.00    +0.000 OA
BRANCH  16  17
ATOM     17  C   UNL     1       1.401  -1.185  -1.405  0.00  0.00    +0.000 A 
ATOM     18  C   UNL     1       0.641  -0.673  -2.479  0.00  0.00    +0.000 A 
ATOM     19  C   UNL     1       0.588  -1.349  -3.698  0.00  0.00    +0.000 A 
ATOM     20  C   UNL     1       1.289  -2.539  -3.870  0.00  0.00    +0.000 A 
ATOM     21  C   UNL     1       2.051  -3.058  -2.824  0.00  0.00    +0.000 A 
ATOM     22  C   UNL     1       2.126  -2.390  -1.585  0.00  0.00    +0.000 A 
BRANCH  22  23
ATOM     23  N   UNL     1       2.924  -2.953  -0.522  0.00  0.00    +0.000 N 
ATOM     24  O   UNL     1       3.338  -4.128  -0.599  0.00  0.00    +0.000 OA
ATOM     25  O   UNL     1       3.298  -2.197   0.565  0.00  0.00    +0.000 OA
ENDBRANCH  22  23
ENDBRANCH  16  17
ENDBRANCH   2  16
BRANCH   4  26
ATOM     26  C   UNL     1       1.853   3.232   2.577  0.00  0.00    +0.000 C 
BRANCH  26  27
ATOM     27  O   UNL     1       3.081   3.449   1.940  0.00  0.00    +0.000 OA
ATOM     28  H   UNL     1       3.658   3.910   2.602  0.00  0.00    +0.000 HD
ENDBRANCH  26  27
ENDBRANCH   4  26
TORSDOF 9
