REMARK  Name = ZINC000383920275
REMARK  6 active torsions:
REMARK  status: ('A' for Active; 'I' for Inactive)
REMARK    1  A    between atoms: C_1  and  O_2
REMARK    2  A    between atoms: O_2  and  C_3
REMARK    3  A    between atoms: C_5  and  C_6
REMARK    4  A    between atoms: C_6  and  O_7
REMARK    5  A    between atoms: C_8  and  O_9
REMARK    6  A    between atoms: C_12  and  O_13
REMARK                            x       y       z     vdW  Elec       q    Type
REMARK                         _______ _______ _______ _____ _____    ______ ____
ROOT
ATOM      1  C   UNL     1      -0.135  -1.059  -0.316  0.00  0.00    +0.000 C 
ATOM      2  O   UNL     1       0.913  -0.111  -0.399  0.00  0.00    +0.000 OA
ATOM      3  C   UNL     1       1.467   0.230   0.871  0.00  0.00    +0.000 C 
ATOM      4  C   UNL     1       0.510   0.050   2.086  0.00  0.00    +0.000 C 
ATOM      5  C   UNL     1      -0.952   0.310   1.686  0.00  0.00    +0.000 C 
ATOM      6  O   UNL     1      -1.170   1.682   1.397  0.00  0.00    +0.000 OA
ATOM      7  C   UNL     1      -1.745   1.788   0.148  0.00  0.00    +0.000 C 
ATOM      8  N   UNL     1      -1.886   0.667  -0.467  0.00  0.00    +0.000 NA
ATOM      9  C   UNL     1      -1.352  -0.404   0.371  0.00  0.00    +0.000 C 
ENDROOT
BRANCH   1  11
ATOM     10  C   UNL     1      -0.916  -2.784  -1.675  0.00  0.00    +0.000 C 
ATOM     11  O   UNL     1      -0.482  -1.441  -1.637  0.00  0.00    +0.000 OA
ENDBRANCH   1  11
BRANCH   4  12
ATOM     12  O   UNL     1       0.891   0.918   3.123  0.00  0.00    +0.000 OA
ATOM     13  H   UNL     1       0.435   0.601   3.946  0.00  0.00    +0.000 HD
ENDBRANCH   4  12
BRANCH   7  14
ATOM     14  O   UNL     1      -2.142   2.997  -0.407  0.00  0.00    +0.000 OA
ATOM     15  H   UNL     1      -2.016   3.862   0.105  0.00  0.00    +0.000 HD
ENDBRANCH   7  14
BRANCH   3  16
ATOM     16  C   UNL     1       2.779  -0.535   1.084  0.00  0.00    +0.000 C 
BRANCH  16  17
ATOM     17  O   UNL     1       3.669  -0.248   0.040  0.00  0.00    +0.000 OA
ATOM     18  H   UNL     1       4.491  -0.771   0.228  0.00  0.00    +0.000 HD
ENDBRANCH  16  17
ENDBRANCH   3  16
TORSDOF 5
