REMARK  Name = ZINC000616582683
REMARK  9 active torsions:
REMARK  status: ('A' for Active; 'I' for Inactive)
REMARK    1  A    between atoms: C_2  and  C_3
REMARK    2  A    between atoms: C_3  and  O_4
REMARK    3  A    between atoms: O_4  and  C_5
REMARK    4  A    between atoms: C_7  and  C_8
REMARK    5  A    between atoms: C_8  and  O_9
REMARK    6  A    between atoms: C_10  and  O_11
REMARK    7  A    between atoms: C_12  and  O_13
REMARK    8  A    between atoms: C_14  and  N_15
REMARK    9  A    between atoms: C_16  and  C_17
REMARK                            x       y       z     vdW  Elec       q    Type
REMARK                         _______ _______ _______ _____ _____    ______ ____
ROOT
ATOM      1  C   UNL     1       0.208   0.487   0.402  0.00  0.00    +0.000 C 
ATOM      2  O   UNL     1      -1.018   0.035   0.961  0.00  0.00    +0.000 OA
ATOM      3  C   UNL     1      -1.565  -1.057   0.236  0.00  0.00    +0.000 C 
ATOM      4  C   UNL     1      -0.618  -2.280   0.297  0.00  0.00    +0.000 C 
ATOM      5  C   UNL     1       0.758  -1.899  -0.273  0.00  0.00    +0.000 C 
ATOM      6  C   UNL     1       1.274  -0.632   0.438  0.00  0.00    +0.000 C 
ENDROOT
BRANCH   6   7
ATOM      7  N   UNL     1       2.537  -0.169  -0.153  0.00  0.00    +0.000 N 
ATOM      8  C   UNL     1       3.407   0.754   0.518  0.00  0.00    +0.000 C 
ATOM      9  C   UNL     1       4.660   1.216  -0.151  0.00  0.00    +0.000 C 
ATOM     10  O   UNL     1       3.140   1.154   1.683  0.00  0.00    +0.000 OA
ATOM     11  H   UNL     1       2.853  -0.553  -1.073  0.00  0.00    +0.000 HD
ENDBRANCH   6   7
BRANCH   4  12
ATOM     12  O   UNL     1      -1.146  -3.352  -0.444  0.00  0.00    +0.000 OA
ATOM     13  H   UNL     1      -1.645  -3.931   0.191  0.00  0.00    +0.000 HD
ENDBRANCH   4  12
BRANCH   5  14
ATOM     14  O   UNL     1       0.667  -1.676  -1.660  0.00  0.00    +0.000 OA
ATOM     15  H   UNL     1       0.740  -2.562  -2.102  0.00  0.00    +0.000 HD
ENDBRANCH   5  14
BRANCH   1  16
ATOM     16  O   UNL     1       0.032   0.960  -0.928  0.00  0.00    +0.000 OA
BRANCH  16  17
ATOM     17  C   UNL     1      -0.487   2.277  -0.950  0.00  0.00    +0.000 C 
BRANCH  17  19
ATOM     18  C   UNL     1      -2.573   2.848   0.270  0.00  0.00    +0.000 C 
ATOM     19  C   UNL     1      -1.981   2.269  -0.778  0.00  0.00    +0.000 C 
ENDBRANCH  17  19
ENDBRANCH  16  17
ENDBRANCH   1  16
BRANCH   3  20
ATOM     20  C   UNL     1      -2.935  -1.397   0.841  0.00  0.00    +0.000 C 
BRANCH  20  21
ATOM     21  O   UNL     1      -3.770  -0.271   0.831  0.00  0.00    +0.000 OA
ATOM     22  H   UNL     1      -4.071  -0.148  -0.107  0.00  0.00    +0.000 HD
ENDBRANCH  20  21
ENDBRANCH   3  20
TORSDOF 8
