REMARK  Name = ZINC000101073479
REMARK  9 active torsions:
REMARK  status: ('A' for Active; 'I' for Inactive)
REMARK    1  A    between atoms: C_1  and  O_2
REMARK    2  A    between atoms: O_2  and  C_3
REMARK    3  A    between atoms: C_6  and  C_7
REMARK    4  A    between atoms: N_8  and  C_9
REMARK    5  A    between atoms: C_10  and  O_11
REMARK    6  A    between atoms: C_12  and  O_13
REMARK    7  A    between atoms: C_14  and  C_15
REMARK    8  A    between atoms: C_15  and  O_16
REMARK    9  A    between atoms: C_18  and  O_19
REMARK                            x       y       z     vdW  Elec       q    Type
REMARK                         _______ _______ _______ _____ _____    ______ ____
ROOT
ATOM      1  C   UNL     1      -0.357   2.633  -1.004  0.00  0.00    +0.000 C 
ATOM      2  C   UNL     1       0.914   2.417  -1.843  0.00  0.00    +0.000 C 
ATOM      3  C   UNL     1       2.145   2.461  -0.911  0.00  0.00    +0.000 C 
ATOM      4  C   UNL     1       1.933   1.515   0.298  0.00  0.00    +0.000 C 
ATOM      5  O   UNL     1       0.749   1.863   1.002  0.00  0.00    +0.000 OA
ATOM      6  C   UNL     1      -0.395   1.659   0.190  0.00  0.00    +0.000 C 
ENDROOT
BRANCH   1   8
ATOM      7  C   UNL     1      -2.302   1.711  -2.357  0.00  0.00    +0.000 C 
ATOM      8  N   UNL     1      -1.580   2.660  -1.826  0.00  0.00    +0.000 NA
BRANCH   7  12
ATOM      9  C   UNL     1      -1.804  -2.521  -1.920  0.00  0.00    +0.000 A 
ATOM     10  C   UNL     1      -1.272  -1.854  -3.030  0.00  0.00    +0.000 A 
ATOM     11  C   UNL     1      -1.423  -0.471  -3.168  0.00  0.00    +0.000 A 
ATOM     12  C   UNL     1      -2.074   0.270  -2.173  0.00  0.00    +0.000 A 
ATOM     13  C   UNL     1      -2.660  -0.400  -1.090  0.00  0.00    +0.000 A 
ATOM     14  C   UNL     1      -2.510  -1.783  -0.950  0.00  0.00    +0.000 A 
BRANCH   9  16
ATOM     15  C   UNL     1      -2.105  -4.710  -0.752  0.00  0.00    +0.000 C 
ATOM     16  O   UNL     1      -1.620  -3.908  -1.824  0.00  0.00    +0.000 OA
ENDBRANCH   9  16
ENDBRANCH   7  12
ENDBRANCH   1   8
BRANCH   2  17
ATOM     17  O   UNL     1       0.859   1.181  -2.505  0.00  0.00    +0.000 OA
ATOM     18  H   UNL     1       1.442   1.252  -3.305  0.00  0.00    +0.000 HD
ENDBRANCH   2  17
BRANCH   3  19
ATOM     19  O   UNL     1       3.301   2.087  -1.617  0.00  0.00    +0.000 OA
ATOM     20  H   UNL     1       3.531   2.848  -2.212  0.00  0.00    +0.000 HD
ENDBRANCH   3  19
BRANCH   6  21
ATOM     21  O   UNL     1      -1.543   1.913   0.953  0.00  0.00    +0.000 OA
ATOM     22  H   UNL     1      -1.584   1.202   1.643  0.00  0.00    +0.000 HD
ENDBRANCH   6  21
BRANCH   4  23
ATOM     23  C   UNL     1       3.119   1.603   1.270  0.00  0.00    +0.000 C 
BRANCH  23  24
ATOM     24  O   UNL     1       2.914   0.758   2.370  0.00  0.00    +0.000 OA
ATOM     25  H   UNL     1       3.083  -0.167   2.053  0.00  0.00    +0.000 HD
ENDBRANCH  23  24
ENDBRANCH   4  23
TORSDOF 8
