REMARK  Name = ZINC000105341667
REMARK  7 active torsions:
REMARK  status: ('A' for Active; 'I' for Inactive)
REMARK    1  A    between atoms: C_1  and  O_2
REMARK    2  A    between atoms: O_2  and  C_3
REMARK    3  A    between atoms: C_4  and  O_5
REMARK    4  A    between atoms: C_6  and  C_7
REMARK    5  A    between atoms: C_7  and  O_8
REMARK    6  A    between atoms: C_10  and  O_11
REMARK    7  A    between atoms: C_12  and  N_13
REMARK                            x       y       z     vdW  Elec       q    Type
REMARK                         _______ _______ _______ _____ _____    ______ ____
ROOT
ATOM      1  C   UNL     1      -0.121   0.903  -0.985  0.00  0.00    +0.000 C 
ATOM      2  C   UNL     1      -0.671  -0.529  -1.101  0.00  0.00    +0.000 C 
ATOM      3  C   UNL     1      -0.085  -1.417   0.019  0.00  0.00    +0.000 C 
ATOM      4  O   UNL     1       1.329  -1.474  -0.082  0.00  0.00    +0.000 OA
ATOM      5  C   UNL     1       1.936  -0.206   0.106  0.00  0.00    +0.000 C 
ATOM      6  C   UNL     1       1.420   0.866  -0.896  0.00  0.00    +0.000 C 
ENDROOT
BRANCH   6   7
ATOM      7  N   UNL     1       1.950   2.188  -0.555  0.00  0.00    +0.000 NA
ATOM      8  H   UNL     1       1.670   2.859  -1.308  0.00  0.00    +0.000 HD
ATOM      9  H   UNL     1       2.995   2.142  -0.586  0.00  0.00    +0.000 HD
ENDBRANCH   6   7
BRANCH   1  11
ATOM     10  C   UNL     1      -1.464   2.640  -0.189  0.00  0.00    +0.000 C 
ATOM     11  O   UNL     1      -0.665   1.534   0.167  0.00  0.00    +0.000 OA
ENDBRANCH   1  11
BRANCH   2  12
ATOM     12  O   UNL     1      -2.074  -0.510  -1.016  0.00  0.00    +0.000 OA
ATOM     13  H   UNL     1      -2.408  -0.171  -1.888  0.00  0.00    +0.000 HD
ENDBRANCH   2  12
BRANCH   5  14
ATOM     14  O   UNL     1       1.889   0.193   1.457  0.00  0.00    +0.000 OA
ATOM     15  H   UNL     1       1.012   0.610   1.639  0.00  0.00    +0.000 HD
ENDBRANCH   5  14
BRANCH   3  16
ATOM     16  C   UNL     1      -0.631  -2.849  -0.085  0.00  0.00    +0.000 C 
BRANCH  16  17
ATOM     17  O   UNL     1      -0.136  -3.639   0.963  0.00  0.00    +0.000 OA
ATOM     18  H   UNL     1       0.768  -3.946   0.690  0.00  0.00    +0.000 HD
ENDBRANCH  16  17
ENDBRANCH   3  16
TORSDOF 6
