REMARK  Name = ZINC000394934764
REMARK  7 active torsions:
REMARK  status: ('A' for Active; 'I' for Inactive)
REMARK    1  A    between atoms: O_2  and  C_3
REMARK    2  A    between atoms: C_3  and  C_6
REMARK    3  A    between atoms: C_9  and  O_11
REMARK    4  A    between atoms: O_11  and  C_12
REMARK    5  A    between atoms: C_16  and  N_18
REMARK    6  A    between atoms: C_21  and  O_23
REMARK    7  A    between atoms: C_25  and  O_27
REMARK                            x       y       z     vdW  Elec       q    Type
REMARK                         _______ _______ _______ _____ _____    ______ ____
ROOT
ATOM      1  C   UNL     1      -0.960  -0.541  -1.811  0.00  0.00    +0.000 C 
ATOM      2  O   UNL     1      -0.943   0.824  -1.421  0.00  0.00    +0.000 OA
ATOM      3  C   UNL     1      -0.444   0.990  -0.099  0.00  0.00    +0.000 C 
ATOM      4  C   UNL     1      -1.351   0.275   0.924  0.00  0.00    +0.000 C 
ATOM      5  C   UNL     1      -1.514  -1.216   0.573  0.00  0.00    +0.000 C 
ATOM      6  C   UNL     1      -1.924  -1.351  -0.906  0.00  0.00    +0.000 C 
ENDROOT
BRANCH   4   7
ATOM      7  N   UNL     1      -0.806   0.441   2.270  0.00  0.00    +0.000 NA
ATOM      8  N   UNL     1      -1.432   0.061   3.261  0.00  0.00    +0.000 NA
ATOM      9  N   UNL     1      -2.056  -0.319   4.250  0.00  0.00    +0.000 NA
ENDBRANCH   4   7
BRANCH   3  10
ATOM     10  O   UNL     1       0.895   0.531   0.015  0.00  0.00    +0.000 OA
ATOM     11  C   UNL     1       1.769   1.411  -0.658  0.00  0.00    +0.000 C 
ENDBRANCH   3  10
BRANCH   5  12
ATOM     12  O   UNL     1      -0.309  -1.899   0.820  0.00  0.00    +0.000 OA
ATOM     13  H   UNL     1      -0.546  -2.834   1.055  0.00  0.00    +0.000 HD
ENDBRANCH   5  12
BRANCH   6  14
ATOM     14  O   UNL     1      -1.995  -2.704  -1.286  0.00  0.00    +0.000 OA
ATOM     15  H   UNL     1      -1.068  -3.054  -1.348  0.00  0.00    +0.000 HD
ENDBRANCH   6  14
BRANCH   1  16
ATOM     16  C   UNL     1      -1.400  -0.619  -3.280  0.00  0.00    +0.000 C 
BRANCH  16  18
ATOM     17  H   UNL     1       0.299  -0.387  -4.178  0.00  0.00    +0.000 HD
ATOM     18  O   UNL     1      -0.540   0.136  -4.089  0.00  0.00    +0.000 OA
ENDBRANCH  16  18
ENDBRANCH   1  16
TORSDOF 6
