REMARK  Name = ZINC000101136391
REMARK  8 active torsions:
REMARK  status: ('A' for Active; 'I' for Inactive)
REMARK    1  A    between atoms: N_1  and  C_2
REMARK    2  A    between atoms: C_3  and  O_4
REMARK    3  A    between atoms: C_5  and  O_6
REMARK    4  A    between atoms: C_7  and  C_8
REMARK    5  A    between atoms: C_8  and  O_9
REMARK    6  A    between atoms: C_11  and  O_12
REMARK    7  A    between atoms: O_12  and  C_13
REMARK    8  A    between atoms: C_13  and  C_14
REMARK                            x       y       z     vdW  Elec       q    Type
REMARK                         _______ _______ _______ _____ _____    ______ ____
ROOT
ATOM      1  C   UNL     1      -1.368  -0.065  -2.673  0.00  0.00    +0.000 C 
ATOM      2  C   UNL     1      -2.572   0.894  -2.766  0.00  0.00    +0.000 C 
ATOM      3  C   UNL     1      -3.660   0.466  -1.759  0.00  0.00    +0.000 C 
ATOM      4  C   UNL     1      -3.045   0.268  -0.347  0.00  0.00    +0.000 C 
ATOM      5  O   UNL     1      -1.996  -0.684  -0.410  0.00  0.00    +0.000 OA
ATOM      6  C   UNL     1      -0.920  -0.203  -1.201  0.00  0.00    +0.000 C 
ENDROOT
BRANCH   1   7
ATOM      7  N   UNL     1      -0.265   0.430  -3.501  0.00  0.00    +0.000 NA
ATOM      8  H   UNL     1       0.495  -0.288  -3.510  0.00  0.00    +0.000 HD
ATOM      9  H   UNL     1      -0.601   0.499  -4.490  0.00  0.00    +0.000 HD
ENDBRANCH   1   7
BRANCH   2  10
ATOM     10  O   UNL     1      -2.147   2.210  -2.503  0.00  0.00    +0.000 OA
ATOM     11  H   UNL     1      -2.736   2.817  -3.023  0.00  0.00    +0.000 HD
ENDBRANCH   2  10
BRANCH   3  12
ATOM     12  O   UNL     1      -4.724   1.387  -1.753  0.00  0.00    +0.000 OA
ATOM     13  H   UNL     1      -4.407   2.218  -1.313  0.00  0.00    +0.000 HD
ENDBRANCH   3  12
BRANCH   4  14
ATOM     14  C   UNL     1      -4.088  -0.247   0.654  0.00  0.00    +0.000 C 
BRANCH  14  15
ATOM     15  O   UNL     1      -5.031   0.749   0.937  0.00  0.00    +0.000 OA
ATOM     16  H   UNL     1      -5.662   0.353   1.592  0.00  0.00    +0.000 HD
ENDBRANCH  14  15
ENDBRANCH   4  14
BRANCH   6  17
ATOM     17  O   UNL     1       0.139  -1.141  -1.139  0.00  0.00    +0.000 OA
BRANCH  17  18
ATOM     18  C   UNL     1       0.882  -0.989   0.056  0.00  0.00    +0.000 C 
BRANCH  18  19
ATOM     19  C   UNL     1       1.974   0.030  -0.134  0.00  0.00    +0.000 A 
ATOM     20  C   UNL     1       1.925   1.264   0.536  0.00  0.00    +0.000 A 
ATOM     21  C   UNL     1       2.933   2.212   0.338  0.00  0.00    +0.000 A 
ATOM     22  C   UNL     1       3.993   1.937  -0.531  0.00  0.00    +0.000 A 
ATOM     23  C   UNL     1       4.044   0.715  -1.207  0.00  0.00    +0.000 A 
ATOM     24  C   UNL     1       3.037  -0.236  -1.013  0.00  0.00    +0.000 A 
ENDBRANCH  18  19
ENDBRANCH  17  18
ENDBRANCH   6  17
TORSDOF 8
