REMARK  Name = ZINC000015205814
REMARK  10 active torsions:
REMARK  status: ('A' for Active; 'I' for Inactive)
REMARK    1  A    between atoms: O_2  and  C_3
REMARK    2  A    between atoms: C_3  and  C_39
REMARK    3  A    between atoms: N_4  and  C_5
REMARK    4  A    between atoms: C_7  and  O_9
REMARK    5  A    between atoms: O_9  and  C_10
REMARK    6  A    between atoms: C_15  and  N_16
REMARK    7  A    between atoms: C_24  and  C_26
REMARK    8  A    between atoms: C_26  and  O_29
REMARK    9  A    between atoms: C_31  and  O_33
REMARK   10  A    between atoms: C_35  and  O_37
REMARK                            x       y       z     vdW  Elec       q    Type
REMARK                         _______ _______ _______ _____ _____    ______ ____
ROOT
ATOM      1  C   UNL     1      -0.345  -0.702  -0.382  0.00  0.00    +0.000 C 
ATOM      2  C   UNL     1      -0.916   0.730  -0.512  0.00  0.00    +0.000 C 
ATOM      3  O   UNL     1      -1.712   0.818  -1.681  0.00  0.00    +0.000 OA
ATOM      4  C   UNL     1      -0.923   0.665  -2.849  0.00  0.00    +0.000 C 
ATOM      5  C   UNL     1      -0.329  -0.764  -2.904  0.00  0.00    +0.000 C 
ATOM      6  C   UNL     1       0.493  -1.041  -1.630  0.00  0.00    +0.000 C 
ENDROOT
BRANCH   1   8
ATOM      7  C   UNL     1       0.825  -1.899   1.440  0.00  0.00    +0.000 C 
ATOM      8  N   UNL     1       0.475  -0.806   0.826  0.00  0.00    +0.000 NA
ATOM      9  C   UNL     1       1.675  -1.794   2.660  0.00  0.00    +0.000 C 
BRANCH   7  11
ATOM     10  H   UNL     1      -0.171  -3.317   0.201  0.00  0.00    +0.000 HD
ATOM     11  O   UNL     1       0.424  -3.165   1.003  0.00  0.00    +0.000 OA
ENDBRANCH   7  11
ENDBRANCH   1   8
BRANCH   5  12
ATOM     12  O   UNL     1       0.482  -0.911  -4.042  0.00  0.00    +0.000 OA
ATOM     13  H   UNL     1       0.621  -1.886  -4.170  0.00  0.00    +0.000 HD
ENDBRANCH   5  12
BRANCH   6  14
ATOM     14  O   UNL     1       1.671  -0.269  -1.631  0.00  0.00    +0.000 OA
ATOM     15  H   UNL     1       2.341  -0.762  -2.172  0.00  0.00    +0.000 HD
ENDBRANCH   6  14
BRANCH   2  16
ATOM     16  O   UNL     1      -1.760   1.019   0.606  0.00  0.00    +0.000 OA
BRANCH  16  17
ATOM     17  C   UNL     1      -1.348   1.441   1.883  0.00  0.00    +0.000 A 
ATOM     18  C   UNL     1      -0.030   1.843   2.176  0.00  0.00    +0.000 A 
ATOM     19  C   UNL     1       0.316   2.241   3.470  0.00  0.00    +0.000 A 
ATOM     20  C   UNL     1      -0.644   2.257   4.495  0.00  0.00    +0.000 A 
ATOM     21  C   UNL     1      -1.962   1.867   4.196  0.00  0.00    +0.000 A 
ATOM     22  C   UNL     1      -2.306   1.467   2.902  0.00  0.00    +0.000 A 
BRANCH  20  23
ATOM     23  N   UNL     1      -0.283   2.666   5.827  0.00  0.00    +0.000 N 
ATOM     24  O   UNL     1      -1.133   2.682   6.741  0.00  0.00    +0.000 OA
ATOM     25  O   UNL     1       1.008   3.045   6.116  0.00  0.00    +0.000 OA
ENDBRANCH  20  23
ENDBRANCH  16  17
ENDBRANCH   2  16
BRANCH   4  26
ATOM     26  C   UNL     1      -1.819   0.947  -4.064  0.00  0.00    +0.000 C 
BRANCH  26  27
ATOM     27  O   UNL     1      -1.049   1.036  -5.231  0.00  0.00    +0.000 OA
ATOM     28  H   UNL     1      -1.689   1.203  -5.971  0.00  0.00    +0.000 HD
ENDBRANCH  26  27
ENDBRANCH   4  26
TORSDOF 9
