REMARK  Name = ZINC000257346145
REMARK  5 active torsions:
REMARK  status: ('A' for Active; 'I' for Inactive)
REMARK    1  A    between atoms: C_1  and  O_2
REMARK    2  A    between atoms: O_2  and  C_3
REMARK    3  A    between atoms: C_8  and  C_9
REMARK    4  A    between atoms: C_17  and  O_18
REMARK    5  A    between atoms: C_19  and  N_20
REMARK                            x       y       z     vdW  Elec       q    Type
REMARK                         _______ _______ _______ _____ _____    ______ ____
ROOT
ATOM      1  C   UNL     1       0.464  -3.421   0.608  0.00  0.00    +0.000 C 
ATOM      2  O   UNL     1      -0.578  -2.685  -0.019  0.00  0.00    +0.000 OA
ATOM      3  C   UNL     1      -0.590  -1.349   0.456  0.00  0.00    +0.000 C 
ATOM      4  C   UNL     1      -1.796  -0.585  -0.121  0.00  0.00    +0.000 C 
ATOM      5  O   UNL     1      -1.431   0.689  -0.623  0.00  0.00    +0.000 OA
ATOM      6  C   UNL     1      -0.592   1.359   0.309  0.00  0.00    +0.000 C 
ATOM      7  O   UNL     1       0.686   0.740   0.457  0.00  0.00    +0.000 OA
ATOM      8  C   UNL     1       0.691  -0.611   0.024  0.00  0.00    +0.000 C 
ATOM      9  C   UNL     1       1.923  -1.343   0.580  0.00  0.00    +0.000 C 
ATOM     10  C   UNL     1       1.841  -2.838   0.208  0.00  0.00    +0.000 C 
ENDROOT
BRANCH   6  11
ATOM     11  C   UNL     1      -0.389   2.774  -0.164  0.00  0.00    +0.000 A 
ATOM     12  C   UNL     1       0.322   3.022  -1.352  0.00  0.00    +0.000 A 
ATOM     13  C   UNL     1       0.506   4.333  -1.803  0.00  0.00    +0.000 A 
ATOM     14  C   UNL     1      -0.015   5.405  -1.073  0.00  0.00    +0.000 A 
ATOM     15  C   UNL     1      -0.721   5.168   0.109  0.00  0.00    +0.000 A 
ATOM     16  C   UNL     1      -0.916   3.858   0.559  0.00  0.00    +0.000 A 
ENDBRANCH   6  11
BRANCH  10  17
ATOM     17  N   UNL     1       2.926  -3.583   0.855  0.00  0.00    +0.000 N 
ATOM     18  C   UNL     1       4.267  -3.581   0.350  0.00  0.00    +0.000 C 
ATOM     19  O   UNL     1       4.563  -2.957  -0.706  0.00  0.00    +0.000 OA
ATOM     20  H   UNL     1       2.740  -4.099   1.750  0.00  0.00    +0.000 HD
ENDBRANCH  10  17
BRANCH   1  22
ATOM     21  C   UNL     1      -0.670  -5.435   0.790  0.00  0.00    +0.000 C 
ATOM     22  O   UNL     1       0.410  -4.767   0.171  0.00  0.00    +0.000 OA
ENDBRANCH   1  22
BRANCH   9  23
ATOM     23  O   UNL     1       1.986  -1.203   1.979  0.00  0.00    +0.000 OA
ATOM     24  H   UNL     1       2.400  -0.321   2.163  0.00  0.00    +0.000 HD
ENDBRANCH   9  23
TORSDOF 4
