REMARK  Name = ZINC000012364260
REMARK  5 active torsions:
REMARK  status: ('A' for Active; 'I' for Inactive)
REMARK    1  A    between atoms: C_1  and  C_2
REMARK    2  A    between atoms: N_4  and  C_5
REMARK    3  A    between atoms: C_6  and  O_7
REMARK    4  A    between atoms: C_12  and  C_13
REMARK    5  A    between atoms: C_21  and  O_22
REMARK                            x       y       z     vdW  Elec       q    Type
REMARK                         _______ _______ _______ _____ _____    ______ ____
ROOT
ATOM      1  C   UNL     1      -0.667  -0.897   2.138  0.00  0.00    +0.000 C 
ATOM      2  C   UNL     1      -2.042  -0.385   2.644  0.00  0.00    +0.000 C 
ATOM      3  O   UNL     1      -2.959  -0.216   1.571  0.00  0.00    +0.000 OA
ATOM      4  C   UNL     1      -2.481   0.735   0.631  0.00  0.00    +0.000 C 
ATOM      5  C   UNL     1      -3.524   0.964  -0.479  0.00  0.00    +0.000 C 
ATOM      6  O   UNL     1      -2.966   0.795  -1.770  0.00  0.00    +0.000 OA
ATOM      7  C   UNL     1      -1.779   1.570  -1.895  0.00  0.00    +0.000 C 
ATOM      8  O   UNL     1      -0.736   1.174  -1.002  0.00  0.00    +0.000 OA
ATOM      9  C   UNL     1      -1.182   0.245  -0.031  0.00  0.00    +0.000 C 
ATOM     10  C   UNL     1      -0.103   0.030   1.036  0.00  0.00    +0.000 C 
ENDROOT
BRANCH   7  11
ATOM     11  C   UNL     1      -1.278   1.443  -3.309  0.00  0.00    +0.000 A 
ATOM     12  C   UNL     1      -0.740   0.224  -3.759  0.00  0.00    +0.000 A 
ATOM     13  C   UNL     1      -0.291   0.093  -5.077  0.00  0.00    +0.000 A 
ATOM     14  C   UNL     1      -0.389   1.172  -5.960  0.00  0.00    +0.000 A 
ATOM     15  C   UNL     1      -0.939   2.382  -5.528  0.00  0.00    +0.000 A 
ATOM     16  C   UNL     1      -1.383   2.519  -4.209  0.00  0.00    +0.000 A 
ENDBRANCH   7  11
BRANCH   1  20
ATOM     17  C   UNL     1       2.442  -1.910   4.266  0.00  0.00    +0.000 C 
ATOM     18  C   UNL     1       1.488  -1.823   3.119  0.00  0.00    +0.000 C 
ATOM     19  O   UNL     1       1.754  -2.421   2.041  0.00  0.00    +0.000 OA
ATOM     20  N   UNL     1       0.288  -1.046   3.243  0.00  0.00    +0.000 N 
ATOM     21  H   UNL     1       0.079  -0.620   4.173  0.00  0.00    +0.000 HD
ENDBRANCH   1  20
BRANCH   2  22
ATOM     22  O   UNL     1      -1.907   0.818   3.368  0.00  0.00    +0.000 OA
ATOM     23  H   UNL     1      -2.045   0.610   4.330  0.00  0.00    +0.000 HD
ENDBRANCH   2  22
BRANCH  10  24
ATOM     24  O   UNL     1       0.292   1.268   1.575  0.00  0.00    +0.000 OA
ATOM     25  H   UNL     1       1.196   1.137   1.963  0.00  0.00    +0.000 HD
ENDBRANCH  10  24
TORSDOF 4
