REMARK  Name = 52944903
REMARK  14 active torsions:
REMARK  status: ('A' for Active; 'I' for Inactive)
REMARK    1  A    between atoms: C_1  and  O_2
REMARK    2  A    between atoms: O_2  and  C_3
REMARK    3  A    between atoms: C_3  and  C_4
REMARK    4  A    between atoms: C_6  and  O_7
REMARK    5  A    between atoms: O_7  and  C_8
REMARK    6  A    between atoms: C_8  and  C_9
REMARK    7  A    between atoms: C_19  and  N_20
REMARK    8  A    between atoms: N_20  and  C_21
REMARK    9  A    between atoms: C_21  and  C_22
REMARK   10  A    between atoms: C_22  and  N_23
REMARK   11  A    between atoms: C_24  and  O_25
REMARK   12  A    between atoms: O_25  and  C_26
REMARK   13  A    between atoms: C_26  and  C_27
REMARK   14  A    between atoms: C_33  and  O_34
REMARK                            x       y       z     vdW  Elec       q    Type
REMARK                         _______ _______ _______ _____ _____    ______ ____
ROOT
ATOM      1  C   UNL     1      -1.335  -1.994   2.031  0.00  0.00    +0.000 C 
ATOM      2  O   UNL     1      -0.618  -0.772   2.035  0.00  0.00    +0.000 OA
ATOM      3  C   UNL     1      -0.608  -0.188   0.743  0.00  0.00    +0.000 C 
ATOM      4  C   UNL     1       0.185  -1.098  -0.229  0.00  0.00    +0.000 C 
ATOM      5  C   UNL     1      -0.436  -2.517  -0.274  0.00  0.00    +0.000 C 
ATOM      6  C   UNL     1      -0.595  -3.046   1.167  0.00  0.00    +0.000 C 
ENDROOT
BRANCH   4   7
ATOM      7  N   UNL     1       0.360  -0.493  -1.572  0.00  0.00    +0.000 N 
ATOM      8  H   UNL     1       1.071  -1.053  -2.097  0.00  0.00    +0.000 HD
ATOM      9  H   UNL     1       0.782   0.456  -1.455  0.00  0.00    +0.000 HD
BRANCH   7  10
ATOM     10  C   UNL     1      -0.867  -0.423  -2.395  0.00  0.00    +0.000 C 
BRANCH  10  11
ATOM     11  C   UNL     1      -0.851   0.779  -3.346  0.00  0.00    +0.000 C 
BRANCH  11  12
ATOM     12  N   UNL     1      -0.957   2.025  -2.595  0.00  0.00    +0.000 NA
ATOM     13  H   UNL     1      -0.811   2.818  -3.261  0.00  0.00    +0.000 HD
ATOM     14  H   UNL     1      -1.938   2.112  -2.244  0.00  0.00    +0.000 HD
ENDBRANCH  11  12
ENDBRANCH  10  11
ENDBRANCH   7  10
ENDBRANCH   4   7
BRANCH   6  15
ATOM     15  O   UNL     1      -1.326  -4.247   1.145  0.00  0.00    +0.000 OA
ATOM     16  H   UNL     1      -0.940  -4.837   1.844  0.00  0.00    +0.000 HD
ENDBRANCH   6  15
BRANCH   1  17
ATOM     17  C   UNL     1      -1.473  -2.476   3.485  0.00  0.00    +0.000 C 
BRANCH  17  19
ATOM     18  C   UNL     1      -3.344  -1.476   4.433  0.00  0.00    +0.000 C 
ATOM     19  O   UNL     1      -1.939  -1.428   4.316  0.00  0.00    +0.000 OA
ENDBRANCH  17  19
ENDBRANCH   1  17
BRANCH   3  20
ATOM     20  O   UNL     1       0.051   1.060   0.824  0.00  0.00    +0.000 OA
BRANCH  20  21
ATOM     21  C   UNL     1      -0.796   2.049   1.372  0.00  0.00    +0.000 C 
BRANCH  21  22
ATOM     22  C   UNL     1       0.061   3.092   2.026  0.00  0.00    +0.000 A 
ATOM     23  C   UNL     1       0.266   3.069   3.414  0.00  0.00    +0.000 A 
ATOM     24  C   UNL     1       1.133   3.980   4.020  0.00  0.00    +0.000 A 
ATOM     25  C   UNL     1       1.823   4.921   3.242  0.00  0.00    +0.000 A 
ATOM     26  C   UNL     1       2.719   5.822   3.837  0.00  0.00    +0.000 A 
ATOM     27  C   UNL     1       3.422   6.737   3.048  0.00  0.00    +0.000 A 
ATOM     28  C   UNL     1       3.230   6.766   1.664  0.00  0.00    +0.000 A 
ATOM     29  C   UNL     1       2.335   5.878   1.060  0.00  0.00    +0.000 A 
ATOM     30  C   UNL     1       1.629   4.947   1.839  0.00  0.00    +0.000 A 
ATOM     31  C   UNL     1       0.747   4.032   1.241  0.00  0.00    +0.000 A 
ENDBRANCH  21  22
ENDBRANCH  20  21
ENDBRANCH   3  20
BRANCH   5  32
ATOM     32  O   UNL     1       0.436  -3.367  -1.004  0.00  0.00    +0.000 OA
BRANCH  32  33
ATOM     33  C   UNL     1      -0.283  -4.243  -1.842  0.00  0.00    +0.000 C 
BRANCH  33  34
ATOM     34  C   UNL     1       0.694  -5.046  -2.646  0.00  0.00    +0.000 A 
ATOM     35  C   UNL     1       0.969  -6.383  -2.312  0.00  0.00    +0.000 A 
ATOM     36  C   UNL     1       1.917  -7.107  -3.042  0.00  0.00    +0.000 A 
ATOM     37  C   UNL     1       2.599  -6.501  -4.103  0.00  0.00    +0.000 A 
ATOM     38  C   UNL     1       2.337  -5.170  -4.433  0.00  0.00    +0.000 A 
ATOM     39  C   UNL     1       1.391  -4.442  -3.706  0.00  0.00    +0.000 A 
ENDBRANCH  33  34
ENDBRANCH  32  33
ENDBRANCH   5  32
TORSDOF 13
