REMARK  Name = ZINC000015205840
REMARK  10 active torsions:
REMARK  status: ('A' for Active; 'I' for Inactive)
REMARK    1  A    between atoms: O_2  and  C_3
REMARK    2  A    between atoms: C_3  and  C_39
REMARK    3  A    between atoms: N_4  and  C_5
REMARK    4  A    between atoms: C_7  and  O_9
REMARK    5  A    between atoms: O_9  and  C_10
REMARK    6  A    between atoms: C_19  and  N_20
REMARK    7  A    between atoms: C_24  and  C_26
REMARK    8  A    between atoms: C_26  and  O_29
REMARK    9  A    between atoms: C_31  and  O_33
REMARK   10  A    between atoms: C_35  and  O_37
REMARK                            x       y       z     vdW  Elec       q    Type
REMARK                         _______ _______ _______ _____ _____    ______ ____
ROOT
ATOM      1  C   UNL     1      -1.340   0.768   0.577  0.00  0.00    +0.000 C 
ATOM      2  C   UNL     1      -0.080   0.015   0.043  0.00  0.00    +0.000 C 
ATOM      3  O   UNL     1       0.130   0.209  -1.350  0.00  0.00    +0.000 OA
ATOM      4  C   UNL     1      -1.055  -0.069  -2.071  0.00  0.00    +0.000 C 
ATOM      5  C   UNL     1      -2.074   1.083  -1.863  0.00  0.00    +0.000 C 
ATOM      6  C   UNL     1      -1.883   1.756  -0.479  0.00  0.00    +0.000 C 
ENDROOT
BRANCH   1   8
ATOM      7  C   UNL     1      -2.346  -0.941   2.007  0.00  0.00    +0.000 C 
ATOM      8  N   UNL     1      -2.390  -0.182   0.953  0.00  0.00    +0.000 NA
ATOM      9  C   UNL     1      -3.467  -1.890   2.279  0.00  0.00    +0.000 C 
BRANCH   7  11
ATOM     10  H   UNL     1      -1.198  -1.495   3.683  0.00  0.00    +0.000 HD
ATOM     11  O   UNL     1      -1.250  -0.895   2.868  0.00  0.00    +0.000 OA
ENDBRANCH   7  11
ENDBRANCH   1   8
BRANCH   5  12
ATOM     12  O   UNL     1      -3.392   0.624  -2.050  0.00  0.00    +0.000 OA
ATOM     13  H   UNL     1      -3.581  -0.055  -1.353  0.00  0.00    +0.000 HD
ENDBRANCH   5  12
BRANCH   6  14
ATOM     14  O   UNL     1      -3.086   2.341  -0.047  0.00  0.00    +0.000 OA
ATOM     15  H   UNL     1      -2.853   2.969   0.686  0.00  0.00    +0.000 HD
ENDBRANCH   6  14
BRANCH   2  16
ATOM     16  O   UNL     1       1.067   0.493   0.747  0.00  0.00    +0.000 OA
BRANCH  16  17
ATOM     17  C   UNL     1       2.366  -0.035   0.649  0.00  0.00    +0.000 A 
ATOM     18  C   UNL     1       2.643  -1.159  -0.157  0.00  0.00    +0.000 A 
ATOM     19  C   UNL     1       3.935  -1.681  -0.228  0.00  0.00    +0.000 A 
ATOM     20  C   UNL     1       4.966  -1.095   0.502  0.00  0.00    +0.000 A 
ATOM     21  C   UNL     1       4.711   0.018   1.304  0.00  0.00    +0.000 A 
ATOM     22  C   UNL     1       3.416   0.567   1.386  0.00  0.00    +0.000 A 
BRANCH  22  23
ATOM     23  N   UNL     1       3.185   1.724   2.218  0.00  0.00    +0.000 N 
ATOM     24  O   UNL     1       4.064   2.114   3.014  0.00  0.00    +0.000 OA
ATOM     25  O   UNL     1       2.023   2.454   2.118  0.00  0.00    +0.000 OA
ENDBRANCH  22  23
ENDBRANCH  16  17
ENDBRANCH   2  16
BRANCH   4  26
ATOM     26  C   UNL     1      -0.711  -0.268  -3.553  0.00  0.00    +0.000 C 
BRANCH  26  27
ATOM     27  O   UNL     1       0.030   0.818  -4.045  0.00  0.00    +0.000 OA
ATOM     28  H   UNL     1      -0.588   1.373  -4.588  0.00  0.00    +0.000 HD
ENDBRANCH  26  27
ENDBRANCH   4  26
TORSDOF 9
