REMARK  Name = ZINC000106381125
REMARK  12 active torsions:
REMARK  status: ('A' for Active; 'I' for Inactive)
REMARK    1  A    between atoms: C_1  and  C_2
REMARK    2  A    between atoms: C_2  and  C_3
REMARK    3  A    between atoms: C_3  and  C_4
REMARK    4  A    between atoms: C_3  and  C_5
REMARK    5  A    between atoms: C_3  and  O_6
REMARK    6  A    between atoms: O_6  and  C_7
REMARK    7  A    between atoms: C_9  and  C_10
REMARK    8  A    between atoms: C_10  and  O_11
REMARK    9  A    between atoms: C_12  and  O_13
REMARK   10  A    between atoms: C_14  and  O_15
REMARK   11  A    between atoms: C_16  and  N_17
REMARK   12  A    between atoms: C_18  and  C_19
REMARK                            x       y       z     vdW  Elec       q    Type
REMARK                         _______ _______ _______ _____ _____    ______ ____
ROOT
ATOM      1  C   UNL     1       0.326  -0.920  -0.410  0.00  0.00    +0.000 C 
ATOM      2  O   UNL     1       0.172  -2.308  -0.173  0.00  0.00    +0.000 OA
ATOM      3  C   UNL     1      -0.155  -2.991  -1.377  0.00  0.00    +0.000 C 
ATOM      4  C   UNL     1       0.797  -2.616  -2.561  0.00  0.00    +0.000 C 
ATOM      5  C   UNL     1       2.050  -1.886  -2.028  0.00  0.00    +0.000 C 
ATOM      6  C   UNL     1       1.669  -0.676  -1.136  0.00  0.00    +0.000 C 
ENDROOT
BRANCH   6   7
ATOM      7  N   UNL     1       1.588   0.564  -1.918  0.00  0.00    +0.000 N 
ATOM      8  C   UNL     1       1.950   1.842  -1.376  0.00  0.00    +0.000 C 
ATOM      9  C   UNL     1       1.687   3.084  -2.162  0.00  0.00    +0.000 C 
ATOM     10  O   UNL     1       2.455   1.930  -0.224  0.00  0.00    +0.000 OA
ATOM     11  H   UNL     1       1.099   0.546  -2.842  0.00  0.00    +0.000 HD
ENDBRANCH   6   7
BRANCH   4  12
ATOM     12  O   UNL     1       0.104  -1.795  -3.468  0.00  0.00    +0.000 OA
ATOM     13  H   UNL     1       0.587  -1.842  -4.334  0.00  0.00    +0.000 HD
ENDBRANCH   4  12
BRANCH   5  14
ATOM     14  O   UNL     1       2.886  -1.482  -3.084  0.00  0.00    +0.000 OA
ATOM     15  H   UNL     1       3.298  -2.305  -3.456  0.00  0.00    +0.000 HD
ENDBRANCH   5  14
BRANCH   1  16
ATOM     16  O   UNL     1       0.361  -0.244   0.838  0.00  0.00    +0.000 OA
BRANCH  16  17
ATOM     17  C   UNL     1      -0.896   0.256   1.300  0.00  0.00    +0.000 C 
ATOM     18  C   UNL     1      -1.342   1.470   0.448  0.00  0.00    +0.000 C 
ATOM     19  C   UNL     1      -0.625   0.759   2.732  0.00  0.00    +0.000 C 
BRANCH  17  21
ATOM     20  C   UNL     1      -3.310  -0.463   2.006  0.00  0.00    +0.000 C 
ATOM     21  C   UNL     1      -1.992  -0.862   1.334  0.00  0.00    +0.000 C 
ENDBRANCH  17  21
ENDBRANCH  16  17
ENDBRANCH   1  16
BRANCH   3  22
ATOM     22  C   UNL     1      -0.118  -4.496  -1.088  0.00  0.00    +0.000 C 
BRANCH  22  23
ATOM     23  O   UNL     1      -0.632  -5.211  -2.179  0.00  0.00    +0.000 OA
ATOM     24  H   UNL     1      -0.566  -6.170  -1.935  0.00  0.00    +0.000 HD
ENDBRANCH  22  23
ENDBRANCH   3  22
TORSDOF 8
