REMARK  Name = ZINC000106382957
REMARK  10 active torsions:
REMARK  status: ('A' for Active; 'I' for Inactive)
REMARK    1  A    between atoms: O_2  and  C_3
REMARK    2  A    between atoms: C_3  and  C_39
REMARK    3  A    between atoms: N_4  and  C_5
REMARK    4  A    between atoms: C_7  and  O_9
REMARK    5  A    between atoms: O_9  and  C_10
REMARK    6  A    between atoms: C_19  and  C_20
REMARK    7  A    between atoms: C_24  and  C_26
REMARK    8  A    between atoms: C_26  and  O_29
REMARK    9  A    between atoms: C_31  and  O_33
REMARK   10  A    between atoms: C_35  and  O_37
REMARK                            x       y       z     vdW  Elec       q    Type
REMARK                         _______ _______ _______ _____ _____    ______ ____
ROOT
ATOM      1  C   UNL     1       1.637  -1.035   0.600  0.00  0.00    +0.000 C 
ATOM      2  C   UNL     1       0.609  -0.080  -0.041  0.00  0.00    +0.000 C 
ATOM      3  O   UNL     1       0.186  -0.614  -1.284  0.00  0.00    +0.000 OA
ATOM      4  C   UNL     1       1.251  -0.611  -2.222  0.00  0.00    +0.000 C 
ATOM      5  C   UNL     1       2.384  -1.575  -1.756  0.00  0.00    +0.000 C 
ATOM      6  C   UNL     1       2.860  -1.245  -0.318  0.00  0.00    +0.000 C 
ENDROOT
BRANCH   1   8
ATOM      7  C   UNL     1       2.438   0.488   2.411  0.00  0.00    +0.000 C 
ATOM      8  N   UNL     1       2.012  -0.661   1.972  0.00  0.00    +0.000 NA
ATOM      9  C   UNL     1       2.779   0.635   3.859  0.00  0.00    +0.000 C 
BRANCH   7  11
ATOM     10  H   UNL     1       2.942   2.467   1.901  0.00  0.00    +0.000 HD
ATOM     11  O   UNL     1       2.600   1.577   1.558  0.00  0.00    +0.000 OA
ENDBRANCH   7  11
ENDBRANCH   1   8
BRANCH   5  12
ATOM     12  O   UNL     1       3.471  -1.591  -2.649  0.00  0.00    +0.000 OA
ATOM     13  H   UNL     1       3.763  -0.652  -2.790  0.00  0.00    +0.000 HD
ENDBRANCH   5  12
BRANCH   6  14
ATOM     14  O   UNL     1       3.743  -0.149  -0.289  0.00  0.00    +0.000 OA
ATOM     15  H   UNL     1       3.306   0.615  -0.743  0.00  0.00    +0.000 HD
ENDBRANCH   6  14
BRANCH   2  16
ATOM     16  O   UNL     1      -0.518   0.027   0.828  0.00  0.00    +0.000 OA
BRANCH  16  17
ATOM     17  C   UNL     1      -1.611   0.890   0.639  0.00  0.00    +0.000 A 
ATOM     18  C   UNL     1      -1.689   1.748  -0.478  0.00  0.00    +0.000 A 
ATOM     19  C   UNL     1      -2.786   2.595  -0.647  0.00  0.00    +0.000 A 
ATOM     20  C   UNL     1      -3.817   2.600   0.290  0.00  0.00    +0.000 A 
ATOM     21  C   UNL     1      -3.755   1.759   1.403  0.00  0.00    +0.000 A 
ATOM     22  C   UNL     1      -2.659   0.900   1.591  0.00  0.00    +0.000 A 
BRANCH  22  23
ATOM     23  C   UNL     1      -2.647   0.035   2.793  0.00  0.00    +0.000 C 
ATOM     24  O   UNL     1      -1.693  -0.749   3.037  0.00  0.00    +0.000 OA
ENDBRANCH  22  23
ENDBRANCH  16  17
ENDBRANCH   2  16
BRANCH   4  25
ATOM     25  C   UNL     1       0.677  -1.040  -3.582  0.00  0.00    +0.000 C 
BRANCH  25  26
ATOM     26  O   UNL     1       1.626  -0.897  -4.605  0.00  0.00    +0.000 OA
ATOM     27  H   UNL     1       1.696   0.074  -4.795  0.00  0.00    +0.000 HD
ENDBRANCH  25  26
ENDBRANCH   4  25
TORSDOF 9
