REMARK  Name = ZINC000044021353
REMARK  9 active torsions:
REMARK  status: ('A' for Active; 'I' for Inactive)
REMARK    1  A    between atoms: C_1  and  O_2
REMARK    2  A    between atoms: O_2  and  C_3
REMARK    3  A    between atoms: C_6  and  C_7
REMARK    4  A    between atoms: N_8  and  C_9
REMARK    5  A    between atoms: C_10  and  O_11
REMARK    6  A    between atoms: C_12  and  O_13
REMARK    7  A    between atoms: C_14  and  C_15
REMARK    8  A    between atoms: C_15  and  O_16
REMARK    9  A    between atoms: C_18  and  O_19
REMARK                            x       y       z     vdW  Elec       q    Type
REMARK                         _______ _______ _______ _____ _____    ______ ____
ROOT
ATOM      1  C   UNL     1      -1.098   0.686   0.470  0.00  0.00    +0.000 C 
ATOM      2  C   UNL     1      -1.185   1.690  -0.699  0.00  0.00    +0.000 C 
ATOM      3  C   UNL     1      -2.107   2.880  -0.350  0.00  0.00    +0.000 C 
ATOM      4  C   UNL     1      -1.782   3.437   1.059  0.00  0.00    +0.000 C 
ATOM      5  O   UNL     1      -1.866   2.403   2.024  0.00  0.00    +0.000 OA
ATOM      6  C   UNL     1      -0.861   1.426   1.809  0.00  0.00    +0.000 C 
ENDROOT
BRANCH   1   8
ATOM      7  C   UNL     1       0.025  -1.454   0.751  0.00  0.00    +0.000 C 
ATOM      8  N   UNL     1      -0.027  -0.276   0.208  0.00  0.00    +0.000 NA
BRANCH   7  12
ATOM      9  C   UNL     1       3.243  -4.176  -0.083  0.00  0.00    +0.000 A 
ATOM     10  C   UNL     1       3.220  -2.912  -0.682  0.00  0.00    +0.000 A 
ATOM     11  C   UNL     1       2.179  -2.018  -0.419  0.00  0.00    +0.000 A 
ATOM     12  C   UNL     1       1.137  -2.379   0.455  0.00  0.00    +0.000 A 
ATOM     13  C   UNL     1       1.159  -3.646   1.056  0.00  0.00    +0.000 A 
ATOM     14  C   UNL     1       2.202  -4.540   0.792  0.00  0.00    +0.000 A 
BRANCH   9  16
ATOM     15  C   UNL     1       4.461  -6.346   0.156  0.00  0.00    +0.000 C 
ATOM     16  O   UNL     1       4.311  -5.036  -0.381  0.00  0.00    +0.000 OA
ENDBRANCH   9  16
ENDBRANCH   7  12
ENDBRANCH   1   8
BRANCH   2  17
ATOM     17  O   UNL     1       0.090   2.124  -1.116  0.00  0.00    +0.000 OA
ATOM     18  H   UNL     1       0.519   2.604  -0.363  0.00  0.00    +0.000 HD
ENDBRANCH   2  17
BRANCH   3  19
ATOM     19  O   UNL     1      -1.969   3.891  -1.316  0.00  0.00    +0.000 OA
ATOM     20  H   UNL     1      -2.436   3.572  -2.132  0.00  0.00    +0.000 HD
ENDBRANCH   3  19
BRANCH   6  21
ATOM     21  O   UNL     1      -0.874   0.515   2.877  0.00  0.00    +0.000 OA
ATOM     22  H   UNL     1      -1.805   0.181   2.966  0.00  0.00    +0.000 HD
ENDBRANCH   6  21
BRANCH   4  23
ATOM     23  C   UNL     1      -2.773   4.540   1.466  0.00  0.00    +0.000 C 
BRANCH  23  24
ATOM     24  O   UNL     1      -2.627   5.680   0.663  0.00  0.00    +0.000 OA
ATOM     25  H   UNL     1      -1.799   6.137   0.965  0.00  0.00    +0.000 HD
ENDBRANCH  23  24
ENDBRANCH   4  23
TORSDOF 8
