REMARK  Name = ZINC000077269504
REMARK  5 active torsions:
REMARK  status: ('A' for Active; 'I' for Inactive)
REMARK    1  A    between atoms: C_1  and  C_2
REMARK    2  A    between atoms: N_4  and  C_5
REMARK    3  A    between atoms: C_6  and  O_7
REMARK    4  A    between atoms: C_12  and  C_13
REMARK    5  A    between atoms: C_21  and  O_22
REMARK                            x       y       z     vdW  Elec       q    Type
REMARK                         _______ _______ _______ _____ _____    ______ ____
ROOT
ATOM      1  C   UNL     1      -2.122   0.321  -1.355  0.00  0.00    +0.000 C 
ATOM      2  C   UNL     1      -3.191  -0.133  -0.326  0.00  0.00    +0.000 C 
ATOM      3  O   UNL     1      -3.081   0.580   0.902  0.00  0.00    +0.000 OA
ATOM      4  C   UNL     1      -1.805   0.384   1.488  0.00  0.00    +0.000 C 
ATOM      5  C   UNL     1      -1.724   1.095   2.836  0.00  0.00    +0.000 C 
ATOM      6  O   UNL     1      -0.418   0.980   3.368  0.00  0.00    +0.000 OA
ATOM      7  C   UNL     1       0.525   1.556   2.475  0.00  0.00    +0.000 C 
ATOM      8  O   UNL     1       0.553   0.855   1.238  0.00  0.00    +0.000 OA
ATOM      9  C   UNL     1      -0.703   0.977   0.599  0.00  0.00    +0.000 C 
ATOM     10  C   UNL     1      -0.701   0.245  -0.750  0.00  0.00    +0.000 C 
ENDROOT
BRANCH   7  11
ATOM     11  C   UNL     1       1.891   1.461   3.102  0.00  0.00    +0.000 A 
ATOM     12  C   UNL     1       2.442   0.202   3.400  0.00  0.00    +0.000 A 
ATOM     13  C   UNL     1       3.709   0.106   3.984  0.00  0.00    +0.000 A 
ATOM     14  C   UNL     1       4.435   1.263   4.277  0.00  0.00    +0.000 A 
ATOM     15  C   UNL     1       3.895   2.519   3.987  0.00  0.00    +0.000 A 
ATOM     16  C   UNL     1       2.628   2.620   3.402  0.00  0.00    +0.000 A 
ENDBRANCH   7  11
BRANCH   1  20
ATOM     17  C   UNL     1      -3.340  -1.143  -4.761  0.00  0.00    +0.000 C 
ATOM     18  C   UNL     1      -3.284  -0.293  -3.533  0.00  0.00    +0.000 C 
ATOM     19  O   UNL     1      -4.155   0.600  -3.355  0.00  0.00    +0.000 OA
ATOM     20  N   UNL     1      -2.216  -0.468  -2.590  0.00  0.00    +0.000 N 
ATOM     21  H   UNL     1      -1.460  -1.148  -2.832  0.00  0.00    +0.000 HD
ENDBRANCH   1  20
BRANCH   2  22
ATOM     22  O   UNL     1      -3.124  -1.521  -0.114  0.00  0.00    +0.000 OA
ATOM     23  H   UNL     1      -3.899  -1.754   0.462  0.00  0.00    +0.000 HD
ENDBRANCH   2  22
BRANCH  10  24
ATOM     24  O   UNL     1      -0.311  -1.097  -0.581  0.00  0.00    +0.000 OA
ATOM     25  H   UNL     1       0.680  -1.106  -0.534  0.00  0.00    +0.000 HD
ENDBRANCH  10  24
TORSDOF 4
