REMARK  Name = ZINC000100656214
REMARK  9 active torsions:
REMARK  status: ('A' for Active; 'I' for Inactive)
REMARK    1  A    between atoms: C_1  and  C_2
REMARK    2  A    between atoms: N_4  and  C_5
REMARK    3  A    between atoms: C_6  and  O_7
REMARK    4  A    between atoms: C_8  and  O_9
REMARK    5  A    between atoms: C_10  and  C_11
REMARK    6  A    between atoms: C_11  and  O_12
REMARK    7  A    between atoms: C_14  and  O_15
REMARK    8  A    between atoms: O_15  and  C_16
REMARK    9  A    between atoms: C_16  and  C_17
REMARK                            x       y       z     vdW  Elec       q    Type
REMARK                         _______ _______ _______ _____ _____    ______ ____
ROOT
ATOM      1  C   UNL     1      -1.627  -0.525  -0.008  0.00  0.00    +0.000 C 
ATOM      2  C   UNL     1      -2.955   0.042  -0.542  0.00  0.00    +0.000 C 
ATOM      3  C   UNL     1      -3.111   1.508  -0.089  0.00  0.00    +0.000 C 
ATOM      4  C   UNL     1      -1.831   2.309  -0.439  0.00  0.00    +0.000 C 
ATOM      5  O   UNL     1      -0.696   1.703   0.160  0.00  0.00    +0.000 OA
ATOM      6  C   UNL     1      -0.464   0.413  -0.382  0.00  0.00    +0.000 C 
ENDROOT
BRANCH   1  10
ATOM      7  C   UNL     1      -0.390  -4.201  -0.404  0.00  0.00    +0.000 C 
ATOM      8  C   UNL     1      -0.784  -2.915   0.245  0.00  0.00    +0.000 C 
ATOM      9  O   UNL     1      -0.549  -2.741   1.472  0.00  0.00    +0.000 OA
ATOM     10  N   UNL     1      -1.384  -1.872  -0.538  0.00  0.00    +0.000 N 
ATOM     11  H   UNL     1      -1.480  -2.032  -1.566  0.00  0.00    +0.000 HD
ENDBRANCH   1  10
BRANCH   2  12
ATOM     12  O   UNL     1      -2.982  -0.035  -1.948  0.00  0.00    +0.000 OA
ATOM     13  H   UNL     1      -3.937  -0.064  -2.219  0.00  0.00    +0.000 HD
ENDBRANCH   2  12
BRANCH   3  14
ATOM     14  O   UNL     1      -4.231   2.085  -0.711  0.00  0.00    +0.000 OA
ATOM     15  H   UNL     1      -5.032   1.711  -0.260  0.00  0.00    +0.000 HD
ENDBRANCH   3  14
BRANCH   4  16
ATOM     16  C   UNL     1      -1.913   3.755   0.074  0.00  0.00    +0.000 C 
BRANCH  16  17
ATOM     17  O   UNL     1      -2.849   4.495  -0.666  0.00  0.00    +0.000 OA
ATOM     18  H   UNL     1      -3.644   4.625  -0.086  0.00  0.00    +0.000 HD
ENDBRANCH  16  17
ENDBRANCH   4  16
BRANCH   6  19
ATOM     19  O   UNL     1       0.723  -0.113   0.180  0.00  0.00    +0.000 OA
BRANCH  19  20
ATOM     20  C   UNL     1       1.857   0.444  -0.450  0.00  0.00    +0.000 C 
BRANCH  20  21
ATOM     21  C   UNL     1       3.089  -0.099   0.214  0.00  0.00    +0.000 A 
ATOM     22  C   UNL     1       3.554  -1.383  -0.112  0.00  0.00    +0.000 A 
ATOM     23  C   UNL     1       4.678  -1.910   0.533  0.00  0.00    +0.000 A 
ATOM     24  C   UNL     1       5.335  -1.163   1.515  0.00  0.00    +0.000 A 
ATOM     25  C   UNL     1       4.868   0.109   1.857  0.00  0.00    +0.000 A 
ATOM     26  C   UNL     1       3.744   0.639   1.214  0.00  0.00    +0.000 A 
ENDBRANCH  20  21
ENDBRANCH  19  20
ENDBRANCH   6  19
TORSDOF 8
