REMARK  Name = ZINC000307565252
REMARK  7 active torsions:
REMARK  status: ('A' for Active; 'I' for Inactive)
REMARK    1  A    between atoms: C_1  and  O_2
REMARK    2  A    between atoms: O_2  and  C_3
REMARK    3  A    between atoms: C_5  and  C_6
REMARK    4  A    between atoms: C_6  and  O_7
REMARK    5  A    between atoms: C_8  and  O_9
REMARK    6  A    between atoms: C_10  and  O_11
REMARK    7  A    between atoms: C_12  and  N_13
REMARK                            x       y       z     vdW  Elec       q    Type
REMARK                         _______ _______ _______ _____ _____    ______ ____
ROOT
ATOM      1  C   UNL     1       0.871   0.656   1.254  0.00  0.00    +0.000 C 
ATOM      2  O   UNL     1      -0.449   1.169   1.373  0.00  0.00    +0.000 OA
ATOM      3  C   UNL     1      -0.911   1.296   2.720  0.00  0.00    +0.000 C 
ATOM      4  C   UNL     1      -0.256   0.321   3.735  0.00  0.00    +0.000 C 
ATOM      5  C   UNL     1       0.028  -1.021   3.045  0.00  0.00    +0.000 C 
ATOM      6  C   UNL     1       0.970  -0.799   1.824  0.00  0.00    +0.000 C 
ENDROOT
BRANCH   6   7
ATOM      7  N   UNL     1       0.819  -1.874   0.795  0.00  0.00    +0.000 NA
ATOM      8  C   UNL     1       2.005  -1.985  -0.028  0.00  0.00    +0.000 C 
ATOM      9  O   UNL     1       3.139  -2.292   0.429  0.00  0.00    +0.000 OA
ATOM     10  C   UNL     1       1.728  -1.769  -1.439  0.00  0.00    +0.000 A 
ATOM     11  C   UNL     1       2.573  -1.774  -2.548  0.00  0.00    +0.000 A 
ATOM     12  C   UNL     1       2.003  -1.531  -3.811  0.00  0.00    +0.000 A 
ATOM     13  C   UNL     1       0.617  -1.293  -3.934  0.00  0.00    +0.000 A 
ATOM     14  C   UNL     1      -0.208  -1.297  -2.795  0.00  0.00    +0.000 A 
ATOM     15  C   UNL     1       0.388  -1.540  -1.558  0.00  0.00    +0.000 A 
ATOM     16  C   UNL     1      -0.182  -1.609  -0.221  0.00  0.00    +0.000 C 
ATOM     17  O   UNL     1      -1.414  -1.496   0.019  0.00  0.00    +0.000 OA
ATOM     18  H   UNL     1       0.638  -2.807   1.234  0.00  0.00    +0.000 HD
ENDBRANCH   6   7
BRANCH   1  20
ATOM     19  C   UNL     1       2.100   2.627   1.118  0.00  0.00    +0.000 C 
ATOM     20  O   UNL     1       1.803   1.500   1.915  0.00  0.00    +0.000 OA
ENDBRANCH   1  20
BRANCH   4  21
ATOM     21  O   UNL     1      -1.111   0.138   4.835  0.00  0.00    +0.000 OA
ATOM     22  H   UNL     1      -0.572  -0.289   5.550  0.00  0.00    +0.000 HD
ENDBRANCH   4  21
BRANCH   5  23
ATOM     23  O   UNL     1      -1.183  -1.620   2.657  0.00  0.00    +0.000 OA
ATOM     24  H   UNL     1      -1.554  -2.075   3.457  0.00  0.00    +0.000 HD
ENDBRANCH   5  23
BRANCH   3  25
ATOM     25  C   UNL     1      -0.809   2.753   3.192  0.00  0.00    +0.000 C 
BRANCH  25  26
ATOM     26  O   UNL     1      -1.444   3.596   2.270  0.00  0.00    +0.000 OA
ATOM     27  H   UNL     1      -1.336   4.518   2.620  0.00  0.00    +0.000 HD
ENDBRANCH  25  26
ENDBRANCH   3  25
TORSDOF 6
