REMARK  Name = ZINC000396869768
REMARK  9 active torsions:
REMARK  status: ('A' for Active; 'I' for Inactive)
REMARK    1  A    between atoms: C_1  and  O_2
REMARK    2  A    between atoms: O_2  and  C_3
REMARK    3  A    between atoms: C_3  and  C_4
REMARK    4  A    between atoms: C_6  and  O_7
REMARK    5  A    between atoms: C_8  and  N_9
REMARK    6  A    between atoms: C_10  and  O_11
REMARK    7  A    between atoms: O_11  and  C_12
REMARK    8  A    between atoms: C_13  and  O_14
REMARK    9  A    between atoms: O_14  and  C_15
REMARK                            x       y       z     vdW  Elec       q    Type
REMARK                         _______ _______ _______ _____ _____    ______ ____
ROOT
ATOM      1  C   UNL     1      -0.495   0.610  -0.509  0.00  0.00    +0.000 C 
ATOM      2  O   UNL     1       0.026   1.669  -1.307  0.00  0.00    +0.000 OA
ATOM      3  C   UNL     1       1.324   2.105  -0.926  0.00  0.00    +0.000 C 
ATOM      4  C   UNL     1       2.360   0.958  -0.940  0.00  0.00    +0.000 C 
ATOM      5  C   UNL     1       1.876  -0.188  -0.026  0.00  0.00    +0.000 C 
ATOM      6  C   UNL     1       0.451  -0.616  -0.414  0.00  0.00    +0.000 C 
ENDROOT
BRANCH   4   7
ATOM      7  N   UNL     1       2.574   0.489  -2.313  0.00  0.00    +0.000 NA
ATOM      8  H   UNL     1       3.356  -0.206  -2.309  0.00  0.00    +0.000 HD
ATOM      9  H   UNL     1       2.919   1.291  -2.889  0.00  0.00    +0.000 HD
ENDBRANCH   4   7
BRANCH   3  10
ATOM     10  O   UNL     1       1.289   2.749   0.322  0.00  0.00    +0.000 OA
ATOM     11  H   UNL     1       2.136   3.259   0.410  0.00  0.00    +0.000 HD
ENDBRANCH   3  10
BRANCH   5  12
ATOM     12  O   UNL     1       2.737  -1.312  -0.129  0.00  0.00    +0.000 OA
ATOM     13  C   UNL     1       3.733  -1.277   0.870  0.00  0.00    +0.000 C 
ENDBRANCH   5  12
BRANCH   6  14
ATOM     14  O   UNL     1       0.489  -1.276  -1.673  0.00  0.00    +0.000 OA
ATOM     15  C   UNL     1      -0.336  -2.421  -1.666  0.00  0.00    +0.000 C 
ENDBRANCH   6  14
BRANCH   1  16
ATOM     16  C   UNL     1      -1.016   1.086   0.866  0.00  0.00    +0.000 C 
BRANCH  16  18
ATOM     17  C   UNL     1      -3.084   2.110   0.596  0.00  0.00    +0.000 C 
ATOM     18  O   UNL     1      -1.697   2.322   0.743  0.00  0.00    +0.000 OA
ENDBRANCH  16  18
ENDBRANCH   1  16
TORSDOF 6
