REMARK  Name = ZINC000019893747
REMARK  11 active torsions:
REMARK  status: ('A' for Active; 'I' for Inactive)
REMARK    1  A    between atoms: O_2  and  C_3
REMARK    2  A    between atoms: C_3  and  C_36
REMARK    3  A    between atoms: N_4  and  C_5
REMARK    4  A    between atoms: C_7  and  O_9
REMARK    5  A    between atoms: O_9  and  S_10
REMARK    6  A    between atoms: S_10  and  C_13
REMARK    7  A    between atoms: C_17  and  O_19
REMARK    8  A    between atoms: C_21  and  C_23
REMARK    9  A    between atoms: C_23  and  O_26
REMARK   10  A    between atoms: C_29  and  O_31
REMARK   11  A    between atoms: O_31  and  C_32
REMARK                            x       y       z     vdW  Elec       q    Type
REMARK                         _______ _______ _______ _____ _____    ______ ____
ROOT
ATOM      1  C   UNL     1      -1.656   0.526  -0.068  0.00  0.00    +0.000 C 
ATOM      2  C   UNL     1      -0.168   0.687   0.312  0.00  0.00    +0.000 C 
ATOM      3  C   UNL     1       0.685   0.291  -0.910  0.00  0.00    +0.000 C 
ATOM      4  C   UNL     1       0.216   1.073  -2.170  0.00  0.00    +0.000 C 
ATOM      5  O   UNL     1      -1.160   0.833  -2.418  0.00  0.00    +0.000 OA
ATOM      6  C   UNL     1      -1.961   1.323  -1.352  0.00  0.00    +0.000 C 
ENDROOT
BRANCH   1   8
ATOM      7  C   UNL     1      -2.863   0.307   2.084  0.00  0.00    +0.000 C 
ATOM      8  N   UNL     1      -2.524   0.984   1.023  0.00  0.00    +0.000 NA
BRANCH   7   9
ATOM      9  C   UNL     1      -2.445  -1.095   2.302  0.00  0.00    +0.000 A 
ATOM     10  C   UNL     1      -2.933  -2.123   1.478  0.00  0.00    +0.000 A 
ATOM     11  C   UNL     1      -2.550  -3.449   1.705  0.00  0.00    +0.000 A 
ATOM     12  C   UNL     1      -1.695  -3.758   2.766  0.00  0.00    +0.000 A 
ATOM     13  C   UNL     1      -1.234  -2.745   3.611  0.00  0.00    +0.000 A 
ATOM     14  C   UNL     1      -1.617  -1.419   3.388  0.00  0.00    +0.000 A 
ENDBRANCH   7   9
BRANCH   7  16
ATOM     15  H   UNL     1      -3.926   0.450   3.894  0.00  0.00    +0.000 HD
ATOM     16  O   UNL     1      -3.636   0.938   3.054  0.00  0.00    +0.000 OA
ENDBRANCH   7  16
ENDBRANCH   1   8
BRANCH   3  17
ATOM     17  O   UNL     1       2.054   0.485  -0.652  0.00  0.00    +0.000 OA
ATOM     18  H   UNL     1       2.228   1.462  -0.641  0.00  0.00    +0.000 HD
ENDBRANCH   3  17
BRANCH   6  19
ATOM     19  O   UNL     1      -3.325   1.133  -1.676  0.00  0.00    +0.000 OA
ATOM     20  C   UNL     1      -3.735   2.087  -2.632  0.00  0.00    +0.000 C 
ENDBRANCH   6  19
BRANCH   2  21
ATOM     21  O   UNL     1       0.093   2.041   0.650  0.00  0.00    +0.000 OA
BRANCH  21  22
ATOM     22  S   UNL     1       0.685   2.182   2.236  0.00  0.00    +0.000 S 
ATOM     23  O   UNL     1       0.931   3.636   2.518  0.00  0.00    +0.000 OA
ATOM     24  O   UNL     1      -0.331   1.671   3.217  0.00  0.00    +0.000 OA
ATOM     25  C   UNL     1       2.224   1.307   2.457  0.00  0.00    +0.000 C 
ENDBRANCH  21  22
ENDBRANCH   2  21
BRANCH   4  26
ATOM     26  C   UNL     1       1.017   0.671  -3.417  0.00  0.00    +0.000 C 
BRANCH  26  27
ATOM     27  O   UNL     1       0.773  -0.666  -3.764  0.00  0.00    +0.000 OA
ATOM     28  H   UNL     1       1.455  -1.216  -3.297  0.00  0.00    +0.000 HD
ENDBRANCH  26  27
ENDBRANCH   4  26
TORSDOF 9
