REMARK  Name = 54758653
REMARK  8 active torsions:
REMARK  status: ('A' for Active; 'I' for Inactive)
REMARK    1  A    between atoms: C_1  and  C_2
REMARK    2  A    between atoms: N_4  and  C_5
REMARK    3  A    between atoms: C_6  and  O_7
REMARK    4  A    between atoms: C_9  and  C_10
REMARK    5  A    between atoms: C_10  and  O_11
REMARK    6  A    between atoms: O_11  and  P_12
REMARK    7  A    between atoms: C_16  and  O_17
REMARK    8  A    between atoms: C_18  and  O_19
REMARK                            x       y       z     vdW  Elec       q    Type
REMARK                         _______ _______ _______ _____ _____    ______ ____
ROOT
ATOM      1  C   UNL     1      -0.251  -0.367  -1.299  0.00  0.00    +0.000 C 
ATOM      2  C   UNL     1       0.772  -1.475  -0.906  0.00  0.00    +0.000 C 
ATOM      3  O   UNL     1       0.946  -1.611   0.501  0.00  0.00    +0.000 OA
ATOM      4  C   UNL     1       1.000  -0.351   1.146  0.00  0.00    +0.000 C 
ATOM      5  C   UNL     1      -0.403   0.328   1.123  0.00  0.00    +0.000 C 
ATOM      6  C   UNL     1      -1.211  -0.104  -0.123  0.00  0.00    +0.000 C 
ENDROOT
BRANCH   1  10
ATOM      7  C   UNL     1      -2.495  -0.183  -4.484  0.00  0.00    +0.000 C 
ATOM      8  C   UNL     1      -1.722   0.246  -3.280  0.00  0.00    +0.000 C 
ATOM      9  O   UNL     1      -1.706   1.464  -2.952  0.00  0.00    +0.000 OA
ATOM     10  N   UNL     1      -0.996  -0.725  -2.514  0.00  0.00    +0.000 N 
ATOM     11  H   UNL     1      -0.986  -1.710  -2.863  0.00  0.00    +0.000 HD
ENDBRANCH   1  10
BRANCH   2  12
ATOM     12  O   UNL     1       2.008  -1.224  -1.523  0.00  0.00    +0.000 OA
ATOM     13  H   UNL     1       2.582  -2.011  -1.336  0.00  0.00    +0.000 HD
ENDBRANCH   2  12
BRANCH   5  14
ATOM     14  O   UNL     1      -0.247   1.725   1.102  0.00  0.00    +0.000 OA
ATOM     15  H   UNL     1      -0.208   2.031   2.045  0.00  0.00    +0.000 HD
ENDBRANCH   5  14
BRANCH   6  16
ATOM     16  O   UNL     1      -1.942  -1.268   0.176  0.00  0.00    +0.000 OA
ATOM     17  H   UNL     1      -2.683  -1.322  -0.483  0.00  0.00    +0.000 HD
ENDBRANCH   6  16
BRANCH   4  18
ATOM     18  C   UNL     1       1.504  -0.561   2.579  0.00  0.00    +0.000 C 
BRANCH  18  19
ATOM     19  O   UNL     1       1.690   0.686   3.207  0.00  0.00    +0.000 OA
BRANCH  19  20
ATOM     20  P   UNL     1       2.217   0.408   4.803  0.00  0.00    +0.000 P 
ATOM     21  O   UNL     1       2.435   1.738   5.488  0.00  0.00    +0.000 OA
ATOM     22  O   UNL     1       3.674  -0.453   4.794  0.00  0.00    +0.000 OA
ATOM     23  O   UNL     1       1.048  -0.468   5.658  0.00  0.00    +0.000 OA
ENDBRANCH  19  20
ENDBRANCH  18  19
ENDBRANCH   4  18
TORSDOF 7
