REMARK  Name = ZINC000616591357
REMARK  6 active torsions:
REMARK  status: ('A' for Active; 'I' for Inactive)
REMARK    1  A    between atoms: C_1  and  O_2
REMARK    2  A    between atoms: O_2  and  C_3
REMARK    3  A    between atoms: C_8  and  C_9
REMARK    4  A    between atoms: C_17  and  O_18
REMARK    5  A    between atoms: C_19  and  N_20
REMARK    6  A    between atoms: C_21  and  C_22
REMARK                            x       y       z     vdW  Elec       q    Type
REMARK                         _______ _______ _______ _____ _____    ______ ____
ROOT
ATOM      1  C   UNL     1      -1.849  -0.155   2.006  0.00  0.00    +0.000 C 
ATOM      2  O   UNL     1      -0.513  -0.466   2.381  0.00  0.00    +0.000 OA
ATOM      3  C   UNL     1       0.231  -0.851   1.240  0.00  0.00    +0.000 C 
ATOM      4  C   UNL     1       1.629  -1.312   1.639  0.00  0.00    +0.000 C 
ATOM      5  O   UNL     1       2.394  -1.592   0.482  0.00  0.00    +0.000 OA
ATOM      6  C   UNL     1       2.494  -0.431  -0.331  0.00  0.00    +0.000 C 
ATOM      7  O   UNL     1       1.217  -0.023  -0.803  0.00  0.00    +0.000 OA
ATOM      8  C   UNL     1       0.405   0.344   0.294  0.00  0.00    +0.000 C 
ATOM      9  C   UNL     1      -0.975   0.815  -0.182  0.00  0.00    +0.000 C 
ATOM     10  C   UNL     1      -1.874   1.069   1.053  0.00  0.00    +0.000 C 
ENDROOT
BRANCH   6  11
ATOM     11  C   UNL     1       3.357  -0.760  -1.520  0.00  0.00    +0.000 A 
ATOM     12  C   UNL     1       4.590  -0.112  -1.718  0.00  0.00    +0.000 A 
ATOM     13  C   UNL     1       5.386  -0.432  -2.823  0.00  0.00    +0.000 A 
ATOM     14  C   UNL     1       4.961  -1.401  -3.735  0.00  0.00    +0.000 A 
ATOM     15  C   UNL     1       3.740  -2.054  -3.545  0.00  0.00    +0.000 A 
ATOM     16  C   UNL     1       2.941  -1.737  -2.442  0.00  0.00    +0.000 A 
ENDBRANCH   6  11
BRANCH  10  17
ATOM     17  N   UNL     1      -3.248   1.375   0.637  0.00  0.00    +0.000 N 
ATOM     18  C   UNL     1      -3.611   2.636   0.060  0.00  0.00    +0.000 C 
ATOM     19  C   UNL     1      -5.018   2.874  -0.383  0.00  0.00    +0.000 C 
ATOM     20  O   UNL     1      -2.754   3.551  -0.072  0.00  0.00    +0.000 OA
ATOM     21  H   UNL     1      -4.000   0.663   0.780  0.00  0.00    +0.000 HD
ENDBRANCH  10  17
BRANCH   1  23
ATOM     22  C   UNL     1      -2.913  -0.996   3.885  0.00  0.00    +0.000 C 
ATOM     23  O   UNL     1      -2.589   0.175   3.166  0.00  0.00    +0.000 OA
ENDBRANCH   1  23
BRANCH   9  24
ATOM     24  O   UNL     1      -1.546  -0.159  -1.021  0.00  0.00    +0.000 OA
ATOM     25  H   UNL     1      -2.201   0.308  -1.603  0.00  0.00    +0.000 HD
ENDBRANCH   9  24
TORSDOF 4
