REMARK  Name = 45934204
REMARK  11 active torsions:
REMARK  status: ('A' for Active; 'I' for Inactive)
REMARK    1  A    between atoms: O_2  and  C_3
REMARK    2  A    between atoms: C_3  and  C_35
REMARK    3  A    between atoms: N_4  and  C_5
REMARK    4  A    between atoms: C_7  and  O_9
REMARK    5  A    between atoms: C_12  and  C_14
REMARK    6  A    between atoms: C_14  and  O_17
REMARK    7  A    between atoms: C_19  and  O_21
REMARK    8  A    between atoms: C_23  and  O_25
REMARK    9  A    between atoms: O_25  and  C_26
REMARK   10  A    between atoms: C_26  and  C_28
REMARK   11  A    between atoms: C_26  and  C_31
REMARK                            x       y       z     vdW  Elec       q    Type
REMARK                         _______ _______ _______ _____ _____    ______ ____
ROOT
ATOM      1  C   UNL     1       0.193  -0.968  -0.665  0.00  0.00    +0.000 C 
ATOM      2  C   UNL     1      -0.347  -1.551  -1.986  0.00  0.00    +0.000 C 
ATOM      3  O   UNL     1      -0.331  -0.561  -2.998  0.00  0.00    +0.000 OA
ATOM      4  C   UNL     1      -1.240   0.484  -2.695  0.00  0.00    +0.000 C 
ATOM      5  C   UNL     1      -0.783   1.232  -1.418  0.00  0.00    +0.000 C 
ATOM      6  C   UNL     1      -0.666   0.240  -0.245  0.00  0.00    +0.000 C 
ENDROOT
BRANCH   1   8
ATOM      7  C   UNL     1       1.019  -2.225   1.310  0.00  0.00    +0.000 C 
ATOM      8  N   UNL     1       0.138  -2.001   0.376  0.00  0.00    +0.000 NA
ATOM      9  C   UNL     1       2.296  -1.438   1.419  0.00  0.00    +0.000 C 
BRANCH   7  11
ATOM     10  H   UNL     1       1.420  -3.472   2.962  0.00  0.00    +0.000 HD
ATOM     11  O   UNL     1       0.768  -3.248   2.220  0.00  0.00    +0.000 OA
ENDBRANCH   7  11
ENDBRANCH   1   8
BRANCH   2  12
ATOM     12  O   UNL     1       0.477  -2.608  -2.402  0.00  0.00    +0.000 OA
ATOM     13  H   UNL     1       0.193  -3.417  -1.901  0.00  0.00    +0.000 HD
ENDBRANCH   2  12
BRANCH   5  14
ATOM     14  O   UNL     1      -1.714   2.230  -1.082  0.00  0.00    +0.000 OA
ATOM     15  H   UNL     1      -1.329   3.101  -1.365  0.00  0.00    +0.000 HD
ENDBRANCH   5  14
BRANCH   4  16
ATOM     16  C   UNL     1      -1.298   1.425  -3.910  0.00  0.00    +0.000 C 
BRANCH  16  17
ATOM     17  O   UNL     1      -2.339   2.356  -3.785  0.00  0.00    +0.000 OA
ATOM     18  H   UNL     1      -3.183   1.865  -3.966  0.00  0.00    +0.000 HD
ENDBRANCH  16  17
ENDBRANCH   4  16
BRANCH   6  19
ATOM     19  O   UNL     1      -0.043   0.887   0.855  0.00  0.00    +0.000 OA
BRANCH  19  20
ATOM     20  C   UNL     1      -0.972   1.271   1.855  0.00  0.00    +0.000 C 
ATOM     21  C   UNL     1      -1.167   0.131   2.858  0.00  0.00    +0.000 C 
BRANCH  20  22
ATOM     22  C   UNL     1      -0.428   2.471   2.568  0.00  0.00    +0.000 C 
ATOM     23  O   UNL     1      -1.190   3.427   2.873  0.00  0.00    +0.000 OA
ATOM     24  O   UNL     1       0.912   2.519   2.935  0.00  0.00    +0.000 OA
ENDBRANCH  20  22
ENDBRANCH  19  20
ENDBRANCH   6  19
TORSDOF 9
