REMARK  Name = ZINC000616583781
REMARK  11 active torsions:
REMARK  status: ('A' for Active; 'I' for Inactive)
REMARK    1  A    between atoms: C_1  and  C_2
REMARK    2  A    between atoms: C_2  and  C_3
REMARK    3  A    between atoms: C_3  and  C_4
REMARK    4  A    between atoms: C_4  and  O_5
REMARK    5  A    between atoms: O_5  and  C_6
REMARK    6  A    between atoms: C_8  and  C_9
REMARK    7  A    between atoms: C_9  and  O_10
REMARK    8  A    between atoms: C_11  and  O_12
REMARK    9  A    between atoms: C_13  and  O_14
REMARK   10  A    between atoms: C_15  and  N_16
REMARK   11  A    between atoms: C_17  and  C_18
REMARK                            x       y       z     vdW  Elec       q    Type
REMARK                         _______ _______ _______ _____ _____    ______ ____
ROOT
ATOM      1  C   UNL     1      -0.213  -0.137   0.273  0.00  0.00    +0.000 C 
ATOM      2  O   UNL     1       0.921   0.712   0.236  0.00  0.00    +0.000 OA
ATOM      3  C   UNL     1       2.112  -0.035   0.451  0.00  0.00    +0.000 C 
ATOM      4  C   UNL     1       2.216  -1.289  -0.476  0.00  0.00    +0.000 C 
ATOM      5  C   UNL     1       1.160  -1.210  -1.596  0.00  0.00    +0.000 C 
ATOM      6  C   UNL     1      -0.266  -0.995  -1.016  0.00  0.00    +0.000 C 
ENDROOT
BRANCH   6   7
ATOM      7  N   UNL     1      -0.936  -2.273  -0.736  0.00  0.00    +0.000 N 
ATOM      8  C   UNL     1      -2.362  -2.384  -0.631  0.00  0.00    +0.000 C 
ATOM      9  C   UNL     1      -2.982  -3.694  -0.269  0.00  0.00    +0.000 C 
ATOM     10  O   UNL     1      -3.102  -1.391  -0.871  0.00  0.00    +0.000 OA
ATOM     11  H   UNL     1      -0.365  -3.131  -0.563  0.00  0.00    +0.000 HD
ENDBRANCH   6   7
BRANCH   4  12
ATOM     12  O   UNL     1       2.022  -2.450   0.294  0.00  0.00    +0.000 OA
ATOM     13  H   UNL     1       2.412  -3.208  -0.215  0.00  0.00    +0.000 HD
ENDBRANCH   4  12
BRANCH   5  14
ATOM     14  O   UNL     1       1.223  -2.354  -2.409  0.00  0.00    +0.000 OA
ATOM     15  H   UNL     1       0.688  -2.155  -3.221  0.00  0.00    +0.000 HD
ENDBRANCH   5  14
BRANCH   1  16
ATOM     16  O   UNL     1      -1.383   0.655   0.336  0.00  0.00    +0.000 OA
BRANCH  16  17
ATOM     17  C   UNL     1      -1.569   1.155   1.645  0.00  0.00    +0.000 C 
BRANCH  17  18
ATOM     18  C   UNL     1      -2.746   2.131   1.659  0.00  0.00    +0.000 C 
BRANCH  18  20
ATOM     19  C   UNL     1      -3.629   4.354   0.854  0.00  0.00    +0.000 C 
ATOM     20  C   UNL     1      -2.456   3.378   0.814  0.00  0.00    +0.000 C 
ENDBRANCH  18  20
ENDBRANCH  17  18
ENDBRANCH  16  17
ENDBRANCH   1  16
BRANCH   3  21
ATOM     21  C   UNL     1       3.314   0.904   0.262  0.00  0.00    +0.000 C 
BRANCH  21  22
ATOM     22  O   UNL     1       3.384   1.375  -1.057  0.00  0.00    +0.000 OA
ATOM     23  H   UNL     1       2.713   2.103  -1.138  0.00  0.00    +0.000 HD
ENDBRANCH  21  22
ENDBRANCH   3  21
TORSDOF 9
