REMARK  Name = 22833605
REMARK  9 active torsions:
REMARK  status: ('A' for Active; 'I' for Inactive)
REMARK    1  A    between atoms: C_1  and  C_2
REMARK    2  A    between atoms: C_2  and  O_3
REMARK    3  A    between atoms: C_2  and  C_15
REMARK    4  A    between atoms: O_3  and  C_4
REMARK    5  A    between atoms: C_5  and  O_6
REMARK    6  A    between atoms: C_7  and  C_8
REMARK    7  A    between atoms: C_8  and  O_9
REMARK    8  A    between atoms: C_11  and  O_12
REMARK    9  A    between atoms: C_13  and  N_14
REMARK                            x       y       z     vdW  Elec       q    Type
REMARK                         _______ _______ _______ _____ _____    ______ ____
ROOT
ATOM      1  C   UNL     1      -0.105   0.377   0.697  0.00  0.00    +0.000 C 
ATOM      2  C   UNL     1       0.796   1.120  -0.309  0.00  0.00    +0.000 C 
ATOM      3  C   UNL     1       1.506   0.099  -1.233  0.00  0.00    +0.000 C 
ATOM      4  O   UNL     1       2.273  -0.814  -0.465  0.00  0.00    +0.000 OA
ATOM      5  C   UNL     1       1.435  -1.606   0.360  0.00  0.00    +0.000 C 
ATOM      6  C   UNL     1       0.719  -0.716   1.404  0.00  0.00    +0.000 C 
ENDROOT
BRANCH   6   7
ATOM      7  N   UNL     1      -0.141  -1.505   2.292  0.00  0.00    +0.000 NA
ATOM      8  H   UNL     1       0.463  -2.103   2.901  0.00  0.00    +0.000 HD
ATOM      9  H   UNL     1      -0.740  -2.147   1.724  0.00  0.00    +0.000 HD
ENDBRANCH   6   7
BRANCH   2  10
ATOM     10  O   UNL     1       0.016   2.010  -1.069  0.00  0.00    +0.000 OA
ATOM     11  H   UNL     1       0.573   2.811  -1.248  0.00  0.00    +0.000 HD
ENDBRANCH   2  10
BRANCH   5  12
ATOM     12  O   UNL     1       2.226  -2.550   1.029  0.00  0.00    +0.000 OA
ATOM     13  H   UNL     1       2.580  -3.163   0.333  0.00  0.00    +0.000 HD
ENDBRANCH   5  12
BRANCH   1  14
ATOM     14  O   UNL     1      -1.198  -0.226   0.014  0.00  0.00    +0.000 OA
BRANCH  14  16
ATOM     15  C   UNL     1      -3.145   0.022   1.425  0.00  0.00    +0.000 C 
ATOM     16  C   UNL     1      -2.404   0.502   0.175  0.00  0.00    +0.000 C 
BRANCH  16  17
ATOM     17  C   UNL     1      -3.262   0.270  -1.032  0.00  0.00    +0.000 C 
ATOM     18  O   UNL     1      -3.915   1.220  -1.538  0.00  0.00    +0.000 OA
ATOM     19  O   UNL     1      -3.375  -1.005  -1.574  0.00  0.00    +0.000 OA
ENDBRANCH  16  17
ENDBRANCH  14  16
ENDBRANCH   1  14
BRANCH   3  20
ATOM     20  C   UNL     1       2.439   0.788  -2.241  0.00  0.00    +0.000 C 
BRANCH  20  21
ATOM     21  O   UNL     1       3.487   1.451  -1.586  0.00  0.00    +0.000 OA
ATOM     22  H   UNL     1       3.190   2.387  -1.439  0.00  0.00    +0.000 HD
ENDBRANCH  20  21
ENDBRANCH   3  20
TORSDOF 8
