REMARK  Name = 24779679
REMARK  12 active torsions:
REMARK  status: ('A' for Active; 'I' for Inactive)
REMARK    1  A    between atoms: O_2  and  C_3
REMARK    2  A    between atoms: C_3  and  C_40
REMARK    3  A    between atoms: N_4  and  C_5
REMARK    4  A    between atoms: C_7  and  O_9
REMARK    5  A    between atoms: O_9  and  C_10
REMARK    6  A    between atoms: N_12  and  C_14
REMARK    7  A    between atoms: C_14  and  C_17
REMARK    8  A    between atoms: C_17  and  C_20
REMARK    9  A    between atoms: C_25  and  C_27
REMARK   10  A    between atoms: C_27  and  O_30
REMARK   11  A    between atoms: C_32  and  O_34
REMARK   12  A    between atoms: C_36  and  O_38
REMARK                            x       y       z     vdW  Elec       q    Type
REMARK                         _______ _______ _______ _____ _____    ______ ____
ROOT
ATOM      1  C   UNL     1       1.003  -1.999   0.883  0.00  0.00    +0.000 C 
ATOM      2  C   UNL     1       1.870  -1.191  -0.106  0.00  0.00    +0.000 C 
ATOM      3  O   UNL     1       2.979  -0.598   0.552  0.00  0.00    +0.000 OA
ATOM      4  C   UNL     1       2.570   0.337   1.539  0.00  0.00    +0.000 C 
ATOM      5  C   UNL     1       1.752  -0.371   2.651  0.00  0.00    +0.000 C 
ATOM      6  C   UNL     1       0.540  -1.099   2.036  0.00  0.00    +0.000 C 
ENDROOT
BRANCH   1   8
ATOM      7  C   UNL     1      -0.134  -3.582  -0.596  0.00  0.00    +0.000 C 
ATOM      8  N   UNL     1      -0.168  -2.558   0.203  0.00  0.00    +0.000 NA
ATOM      9  C   UNL     1      -1.399  -4.062  -1.230  0.00  0.00    +0.000 C 
BRANCH   7  11
ATOM     10  H   UNL     1       1.094  -5.067  -1.444  0.00  0.00    +0.000 HD
ATOM     11  O   UNL     1       1.062  -4.257  -0.836  0.00  0.00    +0.000 OA
ENDBRANCH   7  11
ENDBRANCH   1   8
BRANCH   5  12
ATOM     12  O   UNL     1       1.327   0.539   3.636  0.00  0.00    +0.000 OA
ATOM     13  H   UNL     1       0.761   1.222   3.191  0.00  0.00    +0.000 HD
ENDBRANCH   5  12
BRANCH   6  14
ATOM     14  O   UNL     1      -0.093  -1.887   3.012  0.00  0.00    +0.000 OA
ATOM     15  H   UNL     1      -0.655  -1.275   3.555  0.00  0.00    +0.000 HD
ENDBRANCH   6  14
BRANCH   2  16
ATOM     16  O   UNL     1       1.083  -0.210  -0.789  0.00  0.00    +0.000 OA
BRANCH  16  17
ATOM     17  C   UNL     1       1.576   0.565  -1.842  0.00  0.00    +0.000 C 
ATOM     18  O   UNL     1       2.759   0.407  -2.254  0.00  0.00    +0.000 OA
ATOM     19  N   UNL     1       0.726   1.542  -2.448  0.00  0.00    +0.000 N 
ATOM     20  H   UNL     1      -0.251   1.633  -2.087  0.00  0.00    +0.000 HD
BRANCH  19  21
ATOM     21  C   UNL     1       1.191   2.386  -3.549  0.00  0.00    +0.000 C 
BRANCH  21  22
ATOM     22  C   UNL     1       0.119   3.395  -3.980  0.00  0.00    +0.000 C 
ATOM     23  C   UNL     1      -0.101   4.483  -2.930  0.00  0.00    +0.000 C 
ENDBRANCH  21  22
ENDBRANCH  19  21
ENDBRANCH  16  17
ENDBRANCH   2  16
BRANCH   4  24
ATOM     24  C   UNL     1       3.836   0.999   2.110  0.00  0.00    +0.000 C 
BRANCH  24  25
ATOM     25  O   UNL     1       3.514   2.073   2.953  0.00  0.00    +0.000 OA
ATOM     26  H   UNL     1       3.231   2.821   2.365  0.00  0.00    +0.000 HD
ENDBRANCH  24  25
ENDBRANCH   4  24
TORSDOF 10
