REMARK  Name = 7067772
REMARK  9 active torsions:
REMARK  status: ('A' for Active; 'I' for Inactive)
REMARK    1  A    between atoms: O_2  and  C_3
REMARK    2  A    between atoms: N_4  and  C_5
REMARK    3  A    between atoms: C_7  and  O_9
REMARK    4  A    between atoms: C_12  and  C_14
REMARK    5  A    between atoms: C_14  and  O_17
REMARK    6  A    between atoms: C_19  and  O_21
REMARK    7  A    between atoms: C_23  and  O_25
REMARK    8  A    between atoms: N_27  and  N_28
REMARK    9  A    between atoms: N_27  and  C_30
REMARK                            x       y       z     vdW  Elec       q    Type
REMARK                         _______ _______ _______ _____ _____    ______ ____
ROOT
ATOM      1  C   UNL     1       0.321  -0.149  -0.353  0.00  0.00    +0.000 C 
ATOM      2  C   UNL     1       1.491   0.744   0.110  0.00  0.00    +0.000 C 
ATOM      3  O   UNL     1       2.566  -0.054   0.571  0.00  0.00    +0.000 OA
ATOM      4  C   UNL     1       2.196  -0.770   1.738  0.00  0.00    +0.000 C 
ATOM      5  C   UNL     1       1.079  -1.790   1.410  0.00  0.00    +0.000 C 
ATOM      6  C   UNL     1      -0.129  -1.054   0.813  0.00  0.00    +0.000 C 
ENDROOT
BRANCH   1   8
ATOM      7  C   UNL     1      -1.683   0.361  -1.674  0.00  0.00    +0.000 C 
ATOM      8  N   UNL     1      -0.788   0.702  -0.793  0.00  0.00    +0.000 NA
ATOM      9  N   UNL     1      -2.734   1.289  -2.002  0.00  0.00    +0.000 N 
ATOM     10  C   UNL     1      -3.638   1.032  -3.127  0.00  0.00    +0.000 C 
BRANCH   7  12
ATOM     11  H   UNL     1      -2.314  -1.228  -2.933  0.00  0.00    +0.000 HD
ATOM     12  O   UNL     1      -1.613  -0.894  -2.285  0.00  0.00    +0.000 OA
ENDBRANCH   7  12
BRANCH   9  13
ATOM     13  N   UNL     1      -2.920   2.412  -1.173  0.00  0.00    +0.000 NA
ATOM     14  O   UNL     1      -3.856   3.217  -1.356  0.00  0.00    +0.000 OA
ENDBRANCH   9  13
ENDBRANCH   1   8
BRANCH   2  15
ATOM     15  O   UNL     1       1.953   1.509  -0.973  0.00  0.00    +0.000 OA
ATOM     16  H   UNL     1       1.353   2.296  -1.053  0.00  0.00    +0.000 HD
ENDBRANCH   2  15
BRANCH   5  17
ATOM     17  O   UNL     1       0.671  -2.459   2.577  0.00  0.00    +0.000 OA
ATOM     18  H   UNL     1       1.196  -3.300   2.631  0.00  0.00    +0.000 HD
ENDBRANCH   5  17
BRANCH   6  19
ATOM     19  O   UNL     1      -1.063  -2.002   0.362  0.00  0.00    +0.000 OA
ATOM     20  H   UNL     1      -1.963  -1.597   0.465  0.00  0.00    +0.000 HD
ENDBRANCH   6  19
BRANCH   4  21
ATOM     21  C   UNL     1       3.449  -1.454   2.307  0.00  0.00    +0.000 C 
BRANCH  21  22
ATOM     22  O   UNL     1       4.028  -2.313   1.361  0.00  0.00    +0.000 OA
ATOM     23  H   UNL     1       3.645  -3.215   1.516  0.00  0.00    +0.000 HD
ENDBRANCH  21  22
ENDBRANCH   4  21
TORSDOF 8
