REMARK  Name = 6420074
REMARK  8 active torsions:
REMARK  status: ('A' for Active; 'I' for Inactive)
REMARK    1  A    between atoms: C_1  and  N_2
REMARK    2  A    between atoms: N_2  and  N_3
REMARK    3  A    between atoms: N_7  and  C_8
REMARK    4  A    between atoms: C_9  and  O_10
REMARK    5  A    between atoms: C_12  and  C_13
REMARK    6  A    between atoms: C_13  and  O_14
REMARK    7  A    between atoms: C_15  and  O_16
REMARK    8  A    between atoms: C_17  and  O_18
REMARK                            x       y       z     vdW  Elec       q    Type
REMARK                         _______ _______ _______ _____ _____    ______ ____
ROOT
ATOM      1  C   UNL     1       0.276  -0.281  -0.644  0.00  0.00    +0.000 C 
ATOM      2  C   UNL     1       0.811  -0.169  -2.090  0.00  0.00    +0.000 C 
ATOM      3  O   UNL     1      -0.108   0.505  -2.939  0.00  0.00    +0.000 OA
ATOM      4  C   UNL     1      -1.344  -0.187  -3.032  0.00  0.00    +0.000 C 
ATOM      5  C   UNL     1      -2.041  -0.263  -1.653  0.00  0.00    +0.000 C 
ATOM      6  C   UNL     1      -1.113  -0.951  -0.631  0.00  0.00    +0.000 C 
ENDROOT
BRANCH   1  11
ATOM      7  C   UNL     1       0.289   2.856   3.289  0.00  0.00    +0.000 C 
ATOM      8  N   UNL     1      -0.181   2.534   1.946  0.00  0.00    +0.000 N 
ATOM      9  C   UNL     1       0.073   1.229   1.394  0.00  0.00    +0.000 C 
ATOM     10  O   UNL     1       0.220   0.243   2.168  0.00  0.00    +0.000 OA
ATOM     11  N   UNL     1       0.203   1.049  -0.024  0.00  0.00    +0.000 N 
ATOM     12  H   UNL     1       0.317   1.899  -0.621  0.00  0.00    +0.000 HD
BRANCH   8  13
ATOM     13  N   UNL     1      -1.018   3.459   1.296  0.00  0.00    +0.000 NA
ATOM     14  O   UNL     1      -1.675   3.153   0.280  0.00  0.00    +0.000 OA
ENDBRANCH   8  13
ENDBRANCH   1  11
BRANCH   2  15
ATOM     15  O   UNL     1       1.141  -1.437  -2.600  0.00  0.00    +0.000 OA
ATOM     16  H   UNL     1       1.570  -1.281  -3.481  0.00  0.00    +0.000 HD
ENDBRANCH   2  15
BRANCH   5  17
ATOM     17  O   UNL     1      -3.249  -0.972  -1.764  0.00  0.00    +0.000 OA
ATOM     18  H   UNL     1      -3.768  -0.780  -0.940  0.00  0.00    +0.000 HD
ENDBRANCH   5  17
BRANCH   6  19
ATOM     19  O   UNL     1      -0.973  -2.317  -0.934  0.00  0.00    +0.000 OA
ATOM     20  H   UNL     1      -1.768  -2.781  -0.561  0.00  0.00    +0.000 HD
ENDBRANCH   6  19
BRANCH   4  21
ATOM     21  C   UNL     1      -2.228   0.530  -4.066  0.00  0.00    +0.000 C 
BRANCH  21  22
ATOM     22  O   UNL     1      -2.519   1.843  -3.664  0.00  0.00    +0.000 OA
ATOM     23  H   UNL     1      -1.717   2.390  -3.870  0.00  0.00    +0.000 HD
ENDBRANCH  21  22
ENDBRANCH   4  21
TORSDOF 7
