REMARK  Name = 90659182
REMARK  10 active torsions:
REMARK  status: ('A' for Active; 'I' for Inactive)
REMARK    1  A    between atoms: O_2  and  C_3
REMARK    2  A    between atoms: C_3  and  C_32
REMARK    3  A    between atoms: N_4  and  C_5
REMARK    4  A    between atoms: C_7  and  O_9
REMARK    5  A    between atoms: C_12  and  C_14
REMARK    6  A    between atoms: C_14  and  O_17
REMARK    7  A    between atoms: C_19  and  O_21
REMARK    8  A    between atoms: O_21  and  C_22
REMARK    9  A    between atoms: C_22  and  C_24
REMARK   10  A    between atoms: C_28  and  O_30
REMARK                            x       y       z     vdW  Elec       q    Type
REMARK                         _______ _______ _______ _____ _____    ______ ____
ROOT
ATOM      1  C   UNL     1      -0.534  -0.228   1.554  0.00  0.00    +0.000 C 
ATOM      2  C   UNL     1       0.373  -1.473   1.336  0.00  0.00    +0.000 C 
ATOM      3  O   UNL     1       0.594  -1.771  -0.039  0.00  0.00    +0.000 OA
ATOM      4  C   UNL     1      -0.612  -1.708  -0.781  0.00  0.00    +0.000 C 
ATOM      5  C   UNL     1      -1.112  -0.236  -0.900  0.00  0.00    +0.000 C 
ATOM      6  C   UNL     1      -0.587   0.620   0.271  0.00  0.00    +0.000 C 
ENDROOT
BRANCH   1   8
ATOM      7  C   UNL     1      -0.168   0.273   3.921  0.00  0.00    +0.000 C 
ATOM      8  N   UNL     1      -0.047   0.591   2.667  0.00  0.00    +0.000 NA
ATOM      9  C   UNL     1       0.394   1.179   4.969  0.00  0.00    +0.000 C 
BRANCH   7  11
ATOM     10  H   UNL     1      -0.879  -1.179   5.271  0.00  0.00    +0.000 HD
ATOM     11  O   UNL     1      -0.794  -0.916   4.296  0.00  0.00    +0.000 OA
ENDBRANCH   7  11
ENDBRANCH   1   8
BRANCH   2  12
ATOM     12  O   UNL     1      -0.173  -2.590   1.989  0.00  0.00    +0.000 OA
ATOM     13  H   UNL     1       0.503  -3.313   1.923  0.00  0.00    +0.000 HD
ENDBRANCH   2  12
BRANCH   6  14
ATOM     14  O   UNL     1       0.696   1.105  -0.046  0.00  0.00    +0.000 OA
ATOM     15  H   UNL     1       0.845   1.916   0.506  0.00  0.00    +0.000 HD
ENDBRANCH   6  14
BRANCH   4  16
ATOM     16  C   UNL     1      -0.378  -2.353  -2.152  0.00  0.00    +0.000 C 
BRANCH  16  17
ATOM     17  O   UNL     1       0.637  -1.677  -2.844  0.00  0.00    +0.000 OA
ATOM     18  H   UNL     1       0.727  -2.137  -3.719  0.00  0.00    +0.000 HD
ENDBRANCH  16  17
ENDBRANCH   4  16
BRANCH   5  19
ATOM     19  O   UNL     1      -2.542  -0.212  -0.878  0.00  0.00    +0.000 OA
BRANCH  19  20
ATOM     20  C   UNL     1      -3.346  -0.316  -2.018  0.00  0.00    +0.000 C 
ATOM     21  O   UNL     1      -2.840  -0.290  -3.173  0.00  0.00    +0.000 OA
ATOM     22  C   UNL     1      -4.827  -0.383  -1.865  0.00  0.00    +0.000 C 
ENDBRANCH  19  20
ENDBRANCH   5  19
TORSDOF 8
