REMARK  Name = 7067772
REMARK  9 active torsions:
REMARK  status: ('A' for Active; 'I' for Inactive)
REMARK    1  A    between atoms: O_2  and  C_3
REMARK    2  A    between atoms: N_4  and  C_6
REMARK    3  A    between atoms: C_8  and  O_10
REMARK    4  A    between atoms: C_13  and  C_15
REMARK    5  A    between atoms: C_15  and  O_18
REMARK    6  A    between atoms: C_20  and  O_22
REMARK    7  A    between atoms: C_24  and  O_26
REMARK    8  A    between atoms: N_28  and  N_29
REMARK    9  A    between atoms: N_28  and  C_31
REMARK                            x       y       z     vdW  Elec       q    Type
REMARK                         _______ _______ _______ _____ _____    ______ ____
ROOT
ATOM      1  C   UNL     1       1.043   0.125  -0.718  0.00  0.00    +0.000 C 
ATOM      2  C   UNL     1       0.019   0.738   0.290  0.00  0.00    +0.000 C 
ATOM      3  O   UNL     1       0.526   0.811   1.616  0.00  0.00    +0.000 OA
ATOM      4  C   UNL     1       1.070  -0.435   2.006  0.00  0.00    +0.000 C 
ATOM      5  C   UNL     1       2.431  -0.653   1.298  0.00  0.00    +0.000 C 
ATOM      6  C   UNL     1       2.455   0.038  -0.093  0.00  0.00    +0.000 C 
ENDROOT
BRANCH   1   8
ATOM      7  C   UNL     1      -0.545  -1.340  -2.055  0.00  0.00    +0.000 C 
ATOM      8  N   UNL     1       0.589  -1.197  -1.175  0.00  0.00    +0.000 N 
ATOM      9  H   UNL     1       1.143  -2.039  -0.905  0.00  0.00    +0.000 HD
ATOM     10  N   UNL     1      -0.982  -2.531  -2.397  0.00  0.00    +0.000 N 
ATOM     11  C   UNL     1      -2.131  -2.688  -3.304  0.00  0.00    +0.000 C 
BRANCH   7  13
ATOM     12  H   UNL     1      -1.969  -0.157  -3.133  0.00  0.00    +0.000 HD
ATOM     13  O   UNL     1      -1.161  -0.172  -2.526  0.00  0.00    +0.000 OA
ENDBRANCH   7  13
BRANCH  10  14
ATOM     14  N   UNL     1      -0.347  -3.675  -1.871  0.00  0.00    +0.000 NA
ATOM     15  O   UNL     1      -0.725  -4.833  -2.146  0.00  0.00    +0.000 OA
ENDBRANCH  10  14
ENDBRANCH   1   8
BRANCH   2  16
ATOM     16  O   UNL     1      -0.312   2.033  -0.133  0.00  0.00    +0.000 OA
ATOM     17  H   UNL     1      -1.052   2.341   0.452  0.00  0.00    +0.000 HD
ENDBRANCH   2  16
BRANCH   5  18
ATOM     18  O   UNL     1       2.664  -2.032   1.164  0.00  0.00    +0.000 OA
ATOM     19  H   UNL     1       3.634  -2.144   0.985  0.00  0.00    +0.000 HD
ENDBRANCH   5  18
BRANCH   6  20
ATOM     20  O   UNL     1       2.967   1.341   0.035  0.00  0.00    +0.000 OA
ATOM     21  H   UNL     1       3.953   1.258   0.121  0.00  0.00    +0.000 HD
ENDBRANCH   6  20
BRANCH   4  22
ATOM     22  C   UNL     1       1.220  -0.448   3.535  0.00  0.00    +0.000 C 
BRANCH  22  23
ATOM     23  O   UNL     1       1.736  -1.674   3.979  0.00  0.00    +0.000 OA
ATOM     24  H   UNL     1       0.997  -2.334   3.915  0.00  0.00    +0.000 HD
ENDBRANCH  22  23
ENDBRANCH   4  22
TORSDOF 8
