REMARK  Name = 441038
REMARK  9 active torsions:
REMARK  status: ('A' for Active; 'I' for Inactive)
REMARK    1  A    between atoms: C_1  and  C_2
REMARK    2  A    between atoms: C_2  and  O_3
REMARK    3  A    between atoms: C_2  and  C_15
REMARK    4  A    between atoms: O_3  and  C_4
REMARK    5  A    between atoms: C_5  and  O_6
REMARK    6  A    between atoms: C_7  and  C_8
REMARK    7  A    between atoms: C_8  and  O_9
REMARK    8  A    between atoms: C_11  and  O_12
REMARK    9  A    between atoms: C_13  and  N_14
REMARK                            x       y       z     vdW  Elec       q    Type
REMARK                         _______ _______ _______ _____ _____    ______ ____
ROOT
ATOM      1  C   UNL     1      -0.338   0.711  -0.331  0.00  0.00    +0.000 C 
ATOM      2  C   UNL     1       0.310  -0.667  -0.585  0.00  0.00    +0.000 C 
ATOM      3  C   UNL     1       1.379  -0.548  -1.696  0.00  0.00    +0.000 C 
ATOM      4  O   UNL     1       0.791  -0.040  -2.881  0.00  0.00    +0.000 OA
ATOM      5  C   UNL     1       0.342   1.288  -2.693  0.00  0.00    +0.000 C 
ATOM      6  C   UNL     1      -0.816   1.318  -1.668  0.00  0.00    +0.000 C 
ENDROOT
BRANCH   6   7
ATOM      7  N   UNL     1      -1.276   2.695  -1.458  0.00  0.00    +0.000 NA
ATOM      8  H   UNL     1      -2.091   2.674  -0.806  0.00  0.00    +0.000 HD
ATOM      9  H   UNL     1      -1.663   3.059  -2.359  0.00  0.00    +0.000 HD
ENDBRANCH   6   7
BRANCH   2  10
ATOM     10  O   UNL     1       0.906  -1.136   0.598  0.00  0.00    +0.000 OA
ATOM     11  H   UNL     1       0.212  -1.645   1.091  0.00  0.00    +0.000 HD
ENDBRANCH   2  10
BRANCH   5  12
ATOM     12  O   UNL     1      -0.114   1.766  -3.933  0.00  0.00    +0.000 OA
ATOM     13  H   UNL     1       0.101   2.734  -3.977  0.00  0.00    +0.000 HD
ENDBRANCH   5  12
BRANCH   1  14
ATOM     14  O   UNL     1      -1.459   0.555   0.530  0.00  0.00    +0.000 OA
BRANCH  14  16
ATOM     15  C   UNL     1      -2.071   0.127   2.806  0.00  0.00    +0.000 C 
ATOM     16  C   UNL     1      -1.159   0.917   1.868  0.00  0.00    +0.000 C 
BRANCH  16  17
ATOM     17  C   UNL     1      -1.371   2.392   2.066  0.00  0.00    +0.000 C 
ATOM     18  O   UNL     1      -2.504   2.906   1.872  0.00  0.00    +0.000 OA
ATOM     19  O   UNL     1      -0.309   3.199   2.454  0.00  0.00    +0.000 OA
ENDBRANCH  16  17
ENDBRANCH  14  16
ENDBRANCH   1  14
BRANCH   3  20
ATOM     20  C   UNL     1       2.000  -1.915  -2.028  0.00  0.00    +0.000 C 
BRANCH  20  21
ATOM     21  O   UNL     1       2.770  -2.400  -0.960  0.00  0.00    +0.000 OA
ATOM     22  H   UNL     1       3.612  -1.875  -0.956  0.00  0.00    +0.000 HD
ENDBRANCH  20  21
ENDBRANCH   3  20
TORSDOF 8
