REMARK  Name = 3052142
REMARK  16 active torsions:
REMARK  status: ('A' for Active; 'I' for Inactive)
REMARK    1  A    between atoms: O_2  and  C_3
REMARK    2  A    between atoms: C_3  and  N_7
REMARK    3  A    between atoms: N_7  and  C_9
REMARK    4  A    between atoms: C_11  and  O_13
REMARK    5  A    between atoms: O_13  and  C_14
REMARK    6  A    between atoms: C_14  and  C_16
REMARK    7  A    between atoms: C_21  and  C_23
REMARK    8  A    between atoms: C_23  and  O_26
REMARK    9  A    between atoms: O_26  and  C_27
REMARK   10  A    between atoms: C_27  and  C_29
REMARK   11  A    between atoms: C_33  and  O_35
REMARK   12  A    between atoms: O_35  and  C_36
REMARK   13  A    between atoms: C_36  and  C_38
REMARK   14  A    between atoms: C_42  and  O_44
REMARK   15  A    between atoms: O_44  and  C_45
REMARK   16  A    between atoms: C_45  and  C_47
REMARK                            x       y       z     vdW  Elec       q    Type
REMARK                         _______ _______ _______ _____ _____    ______ ____
ROOT
ATOM      1  C   UNL     1      -0.954  -0.317  -0.230  0.00  0.00    +0.000 C 
ATOM      2  C   UNL     1       0.079  -1.215   0.492  0.00  0.00    +0.000 C 
ATOM      3  O   UNL     1       1.065  -0.419   1.127  0.00  0.00    +0.000 OA
ATOM      4  C   UNL     1       1.821   0.300   0.167  0.00  0.00    +0.000 C 
ATOM      5  C   UNL     1       0.926   1.341  -0.544  0.00  0.00    +0.000 C 
ATOM      6  C   UNL     1      -0.233   0.608  -1.236  0.00  0.00    +0.000 C 
ENDROOT
BRANCH   1   7
ATOM      7  N   UNL     1      -1.946  -1.140  -0.928  0.00  0.00    +0.000 N 
ATOM      8  H   UNL     1      -1.613  -1.701  -1.744  0.00  0.00    +0.000 HD
BRANCH   7   9
ATOM      9  C   UNL     1      -3.326  -1.242  -0.522  0.00  0.00    +0.000 C 
ATOM     10  C   UNL     1      -4.271  -1.634  -1.381  0.00  0.00    +0.000 C 
ATOM     11 CL   UNL     1      -3.945  -2.024  -3.063  0.00  0.00    +0.000 Cl
BRANCH   9  13
ATOM     12  H   UNL     1      -3.050  -0.771   1.529  0.00  0.00    +0.000 HD
ATOM     13  O   UNL     1      -3.713  -0.955   0.788  0.00  0.00    +0.000 OA
ENDBRANCH   9  13
ENDBRANCH   7   9
ENDBRANCH   1   7
BRANCH   2  14
ATOM     14  O   UNL     1      -0.574  -1.987   1.502  0.00  0.00    +0.000 OA
BRANCH  14  15
ATOM     15  C   UNL     1      -1.171  -3.232   1.273  0.00  0.00    +0.000 C 
ATOM     16  O   UNL     1      -1.058  -3.811   0.158  0.00  0.00    +0.000 OA
ATOM     17  C   UNL     1      -1.907  -3.905   2.380  0.00  0.00    +0.000 C 
ENDBRANCH  14  15
ENDBRANCH   2  14
BRANCH   4  18
ATOM     18  C   UNL     1       3.016   0.961   0.868  0.00  0.00    +0.000 C 
BRANCH  18  19
ATOM     19  O   UNL     1       3.877  -0.028   1.431  0.00  0.00    +0.000 OA
BRANCH  19  20
ATOM     20  C   UNL     1       4.775  -0.789   0.676  0.00  0.00    +0.000 C 
ATOM     21  O   UNL     1       4.895  -0.605  -0.566  0.00  0.00    +0.000 OA
ATOM     22  C   UNL     1       5.573  -1.858   1.342  0.00  0.00    +0.000 C 
ENDBRANCH  19  20
ENDBRANCH  18  19
ENDBRANCH   4  18
BRANCH   5  23
ATOM     23  O   UNL     1       0.393   2.279   0.397  0.00  0.00    +0.000 OA
BRANCH  23  24
ATOM     24  C   UNL     1       0.936   3.546   0.635  0.00  0.00    +0.000 C 
ATOM     25  O   UNL     1       1.954   3.945   0.006  0.00  0.00    +0.000 OA
ATOM     26  C   UNL     1       0.331   4.415   1.684  0.00  0.00    +0.000 C 
ENDBRANCH  23  24
ENDBRANCH   5  23
BRANCH   6  27
ATOM     27  O   UNL     1      -1.146   1.574  -1.762  0.00  0.00    +0.000 OA
BRANCH  27  28
ATOM     28  C   UNL     1      -1.927   1.369  -2.905  0.00  0.00    +0.000 C 
ATOM     29  O   UNL     1      -1.753   0.356  -3.635  0.00  0.00    +0.000 OA
ATOM     30  C   UNL     1      -2.962   2.374  -3.279  0.00  0.00    +0.000 C 
ENDBRANCH  27  28
ENDBRANCH   6  27
TORSDOF 12
