REMARK  Name = 9816401
REMARK  9 active torsions:
REMARK  status: ('A' for Active; 'I' for Inactive)
REMARK    1  A    between atoms: C_1  and  C_2
REMARK    2  A    between atoms: C_2  and  O_3
REMARK    3  A    between atoms: C_2  and  C_15
REMARK    4  A    between atoms: O_3  and  C_4
REMARK    5  A    between atoms: C_5  and  O_6
REMARK    6  A    between atoms: C_7  and  C_8
REMARK    7  A    between atoms: C_8  and  O_9
REMARK    8  A    between atoms: C_11  and  O_12
REMARK    9  A    between atoms: C_13  and  N_14
REMARK                            x       y       z     vdW  Elec       q    Type
REMARK                         _______ _______ _______ _____ _____    ______ ____
ROOT
ATOM      1  C   UNL     1       0.308  -0.023   0.192  0.00  0.00    +0.000 C 
ATOM      2  C   UNL     1      -0.284  -1.275  -0.483  0.00  0.00    +0.000 C 
ATOM      3  C   UNL     1      -1.743  -1.000  -0.918  0.00  0.00    +0.000 C 
ATOM      4  O   UNL     1      -2.535  -0.612   0.195  0.00  0.00    +0.000 OA
ATOM      5  C   UNL     1      -2.077   0.600   0.769  0.00  0.00    +0.000 C 
ATOM      6  C   UNL     1      -0.638   0.445   1.314  0.00  0.00    +0.000 C 
ENDROOT
BRANCH   6   7
ATOM      7  N   UNL     1      -0.168   1.709   1.887  0.00  0.00    +0.000 NA
ATOM      8  H   UNL     1      -0.837   2.002   2.635  0.00  0.00    +0.000 HD
ATOM      9  H   UNL     1       0.738   1.531   2.377  0.00  0.00    +0.000 HD
ENDBRANCH   6   7
BRANCH   2  10
ATOM     10  O   UNL     1       0.496  -1.607  -1.605  0.00  0.00    +0.000 OA
ATOM     11  H   UNL     1       0.553  -2.597  -1.641  0.00  0.00    +0.000 HD
ENDBRANCH   2  10
BRANCH   5  12
ATOM     12  O   UNL     1      -2.171   1.655  -0.160  0.00  0.00    +0.000 OA
ATOM     13  H   UNL     1      -2.226   2.498   0.361  0.00  0.00    +0.000 HD
ENDBRANCH   5  12
BRANCH   1  14
ATOM     14  O   UNL     1       1.570  -0.347   0.761  0.00  0.00    +0.000 OA
BRANCH  14  16
ATOM     15  C   UNL     1       3.851  -0.814   0.205  0.00  0.00    +0.000 C 
ATOM     16  C   UNL     1       2.648   0.090  -0.051  0.00  0.00    +0.000 C 
BRANCH  16  17
ATOM     17  C   UNL     1       2.996   1.515   0.275  0.00  0.00    +0.000 C 
ATOM     18  O   UNL     1       3.307   1.844   1.450  0.00  0.00    +0.000 OA
ATOM     19  O   UNL     1       2.975   2.480  -0.724  0.00  0.00    +0.000 OA
ENDBRANCH  16  17
ENDBRANCH  14  16
ENDBRANCH   1  14
BRANCH   3  20
ATOM     20  C   UNL     1      -2.372  -2.255  -1.542  0.00  0.00    +0.000 C 
BRANCH  20  21
ATOM     21  O   UNL     1      -3.708  -2.011  -1.892  0.00  0.00    +0.000 OA
ATOM     22  H   UNL     1      -3.690  -1.455  -2.714  0.00  0.00    +0.000 HD
ENDBRANCH  20  21
ENDBRANCH   3  20
TORSDOF 8
