REMARK  Name = 90659182
REMARK  10 active torsions:
REMARK  status: ('A' for Active; 'I' for Inactive)
REMARK    1  A    between atoms: O_2  and  C_3
REMARK    2  A    between atoms: C_3  and  C_32
REMARK    3  A    between atoms: N_4  and  C_5
REMARK    4  A    between atoms: C_7  and  O_9
REMARK    5  A    between atoms: C_12  and  C_14
REMARK    6  A    between atoms: C_14  and  O_17
REMARK    7  A    between atoms: C_19  and  O_21
REMARK    8  A    between atoms: O_21  and  C_22
REMARK    9  A    between atoms: C_22  and  C_24
REMARK   10  A    between atoms: C_28  and  O_30
REMARK                            x       y       z     vdW  Elec       q    Type
REMARK                         _______ _______ _______ _____ _____    ______ ____
ROOT
ATOM      1  C   UNL     1       1.301  -0.445   0.790  0.00  0.00    +0.000 C 
ATOM      2  C   UNL     1       1.161  -1.793   0.047  0.00  0.00    +0.000 C 
ATOM      3  O   UNL     1       0.362  -1.653  -1.118  0.00  0.00    +0.000 OA
ATOM      4  C   UNL     1      -0.968  -1.262  -0.804  0.00  0.00    +0.000 C 
ATOM      5  C   UNL     1      -0.995   0.131  -0.133  0.00  0.00    +0.000 C 
ATOM      6  C   UNL     1      -0.099   0.108   1.124  0.00  0.00    +0.000 C 
ENDROOT
BRANCH   1   8
ATOM      7  C   UNL     1       3.322   0.503  -0.216  0.00  0.00    +0.000 C 
ATOM      8  N   UNL     1       2.034   0.512  -0.045  0.00  0.00    +0.000 NA
ATOM      9  C   UNL     1       3.954   1.538  -1.090  0.00  0.00    +0.000 C 
BRANCH   7  11
ATOM     10  H   UNL     1       5.125  -0.440   0.322  0.00  0.00    +0.000 HD
ATOM     11  O   UNL     1       4.119  -0.437   0.436  0.00  0.00    +0.000 OA
ENDBRANCH   7  11
ENDBRANCH   1   8
BRANCH   2  12
ATOM     12  O   UNL     1       0.640  -2.791   0.892  0.00  0.00    +0.000 OA
ATOM     13  H   UNL     1       1.353  -3.014   1.546  0.00  0.00    +0.000 HD
ENDBRANCH   2  12
BRANCH   6  14
ATOM     14  O   UNL     1      -0.014   1.373   1.732  0.00  0.00    +0.000 OA
ATOM     15  H   UNL     1       0.316   2.019   1.055  0.00  0.00    +0.000 HD
ENDBRANCH   6  14
BRANCH   4  16
ATOM     16  C   UNL     1      -1.786  -1.247  -2.104  0.00  0.00    +0.000 C 
BRANCH  16  17
ATOM     17  O   UNL     1      -1.758  -2.509  -2.715  0.00  0.00    +0.000 OA
ATOM     18  H   UNL     1      -2.371  -3.090  -2.193  0.00  0.00    +0.000 HD
ENDBRANCH  16  17
ENDBRANCH   4  16
BRANCH   5  19
ATOM     19  O   UNL     1      -2.339   0.447   0.237  0.00  0.00    +0.000 OA
BRANCH  19  20
ATOM     20  C   UNL     1      -2.824   1.752   0.379  0.00  0.00    +0.000 C 
ATOM     21  O   UNL     1      -2.107   2.746   0.082  0.00  0.00    +0.000 OA
ATOM     22  C   UNL     1      -4.230   1.966   0.823  0.00  0.00    +0.000 C 
ENDBRANCH  19  20
ENDBRANCH   5  19
TORSDOF 8
