REMARK  Name = 12302999
REMARK  6 active torsions:
REMARK  status: ('A' for Active; 'I' for Inactive)
REMARK    1  A    between atoms: N_1  and  C_2
REMARK    2  A    between atoms: C_3  and  O_4
REMARK    3  A    between atoms: C_6  and  C_7
REMARK    4  A    between atoms: C_7  and  O_8
REMARK    5  A    between atoms: C_9  and  O_10
REMARK    6  A    between atoms: C_11  and  O_12
REMARK                            x       y       z     vdW  Elec       q    Type
REMARK                         _______ _______ _______ _____ _____    ______ ____
ROOT
ATOM      1  C   UNL     1       0.407   0.383  -0.718  0.00  0.00    +0.000 C 
ATOM      2  C   UNL     1       1.462  -0.474  -1.451  0.00  0.00    +0.000 C 
ATOM      3  O   UNL     1       1.857  -1.591  -0.667  0.00  0.00    +0.000 OA
ATOM      4  C   UNL     1       2.485  -1.194   0.544  0.00  0.00    +0.000 C 
ATOM      5  C   UNL     1       1.499  -0.405   1.442  0.00  0.00    +0.000 C 
ATOM      6  C   UNL     1       0.947   0.803   0.670  0.00  0.00    +0.000 C 
ENDROOT
BRANCH   1   7
ATOM      7  N   UNL     1      -0.870  -0.344  -0.619  0.00  0.00    +0.000 N 
ATOM      8  H   UNL     1      -1.230  -0.551  -1.579  0.00  0.00    +0.000 HD
ATOM      9  H   UNL     1      -0.755  -1.246  -0.104  0.00  0.00    +0.000 HD
ATOM     10  H   UNL     1      -1.586   0.243  -0.134  0.00  0.00    +0.000 HD
ENDBRANCH   1   7
BRANCH   2  11
ATOM     11  O   UNL     1       2.569   0.313  -1.815  0.00  0.00    +0.000 OA
ATOM     12  H   UNL     1       3.157  -0.268  -2.365  0.00  0.00    +0.000 HD
ENDBRANCH   2  11
BRANCH   5  13
ATOM     13  O   UNL     1       2.159   0.064   2.592  0.00  0.00    +0.000 OA
ATOM     14  H   UNL     1       1.929  -0.550   3.337  0.00  0.00    +0.000 HD
ENDBRANCH   5  13
BRANCH   6  15
ATOM     15  O   UNL     1      -0.051   1.433   1.432  0.00  0.00    +0.000 OA
ATOM     16  H   UNL     1      -0.205   2.323   1.021  0.00  0.00    +0.000 HD
ENDBRANCH   6  15
BRANCH   4  17
ATOM     17  C   UNL     1       2.989  -2.467   1.247  0.00  0.00    +0.000 C 
BRANCH  17  18
ATOM     18  O   UNL     1       3.828  -2.155   2.327  0.00  0.00    +0.000 OA
ATOM     19  H   UNL     1       4.698  -1.875   1.940  0.00  0.00    +0.000 HD
ENDBRANCH  17  18
ENDBRANCH   4  17
TORSDOF 6
