REMARK  Name = 6713972
REMARK  8 active torsions:
REMARK  status: ('A' for Active; 'I' for Inactive)
REMARK    1  A    between atoms: O_2  and  N_3
REMARK    2  A    between atoms: N_4  and  C_31
REMARK    3  A    between atoms: N_7  and  C_9
REMARK    4  A    between atoms: C_11  and  O_13
REMARK    5  A    between atoms: C_16  and  C_18
REMARK    6  A    between atoms: C_18  and  O_21
REMARK    7  A    between atoms: C_23  and  O_25
REMARK    8  A    between atoms: C_27  and  O_29
REMARK                            x       y       z     vdW  Elec       q    Type
REMARK                         _______ _______ _______ _____ _____    ______ ____
ROOT
ATOM      1  C   UNL     1       0.021   1.201  -0.582  0.00  0.00    +0.000 C 
ATOM      2  C   UNL     1      -1.010   1.974   0.278  0.00  0.00    +0.000 C 
ATOM      3  O   UNL     1      -1.746   1.099   1.119  0.00  0.00    +0.000 OA
ATOM      4  C   UNL     1      -2.499   0.155   0.373  0.00  0.00    +0.000 C 
ATOM      5  C   UNL     1      -1.558  -0.766  -0.444  0.00  0.00    +0.000 C 
ATOM      6  C   UNL     1      -0.675   0.081  -1.379  0.00  0.00    +0.000 C 
ENDROOT
BRANCH   1  11
ATOM      7  N   UNL     1       2.967  -0.756   1.784  0.00  0.00    +0.000 NA
ATOM      8  N   UNL     1       3.316  -0.433   0.597  0.00  0.00    +0.000 N 
ATOM      9  C   UNL     1       2.344   0.209  -0.256  0.00  0.00    +0.000 C 
ATOM     10  O   UNL     1       2.601   0.396  -1.478  0.00  0.00    +0.000 OA
ATOM     11  N   UNL     1       1.075   0.637   0.272  0.00  0.00    +0.000 N 
ATOM     12  H   UNL     1       0.909   0.573   1.302  0.00  0.00    +0.000 HD
ATOM     13  C   UNL     1       4.667  -0.728   0.097  0.00  0.00    +0.000 C 
BRANCH   7  15
ATOM     14  H   UNL     1       4.741  -1.674   2.468  0.00  0.00    +0.000 HD
ATOM     15  O   UNL     1       3.794  -1.394   2.689  0.00  0.00    +0.000 OA
ENDBRANCH   7  15
ENDBRANCH   1  11
BRANCH   2  16
ATOM     16  O   UNL     1      -1.878   2.740  -0.521  0.00  0.00    +0.000 OA
ATOM     17  H   UNL     1      -1.346   3.497  -0.882  0.00  0.00    +0.000 HD
ENDBRANCH   2  16
BRANCH   5  18
ATOM     18  O   UNL     1      -2.301  -1.679  -1.214  0.00  0.00    +0.000 OA
ATOM     19  H   UNL     1      -2.312  -2.541  -0.721  0.00  0.00    +0.000 HD
ENDBRANCH   5  18
BRANCH   6  20
ATOM     20  O   UNL     1      -1.450   0.653  -2.405  0.00  0.00    +0.000 OA
ATOM     21  H   UNL     1      -1.554  -0.036  -3.111  0.00  0.00    +0.000 HD
ENDBRANCH   6  20
BRANCH   4  22
ATOM     22  C   UNL     1      -3.352  -0.652   1.367  0.00  0.00    +0.000 C 
BRANCH  22  23
ATOM     23  O   UNL     1      -4.306  -1.436   0.703  0.00  0.00    +0.000 OA
ATOM     24  H   UNL     1      -5.022  -0.818   0.401  0.00  0.00    +0.000 HD
ENDBRANCH  22  23
ENDBRANCH   4  22
TORSDOF 7
