REMARK  Name = 449462
REMARK  6 active torsions:
REMARK  status: ('A' for Active; 'I' for Inactive)
REMARK    1  A    between atoms: N_1  and  C_2
REMARK    2  A    between atoms: C_3  and  O_4
REMARK    3  A    between atoms: C_6  and  C_7
REMARK    4  A    between atoms: C_7  and  O_8
REMARK    5  A    between atoms: C_9  and  O_10
REMARK    6  A    between atoms: C_11  and  O_12
REMARK                            x       y       z     vdW  Elec       q    Type
REMARK                         _______ _______ _______ _____ _____    ______ ____
ROOT
ATOM      1  C   UNL     1       2.216  -0.438  -0.870  0.00  0.00    +0.000 C 
ATOM      2  C   UNL     1       0.883  -1.099  -0.434  0.00  0.00    +0.000 C 
ATOM      3  O   UNL     1      -0.154  -0.135  -0.375  0.00  0.00    +0.000 OA
ATOM      4  C   UNL     1       0.109   0.824   0.635  0.00  0.00    +0.000 C 
ATOM      5  C   UNL     1       1.352   1.661   0.259  0.00  0.00    +0.000 C 
ATOM      6  C   UNL     1       2.561   0.723   0.094  0.00  0.00    +0.000 C 
ENDROOT
BRANCH   1   7
ATOM      7  N   UNL     1       3.305  -1.425  -0.903  0.00  0.00    +0.000 N 
ATOM      8  H   UNL     1       3.087  -2.179  -1.593  0.00  0.00    +0.000 HD
ATOM      9  H   UNL     1       3.442  -1.853   0.042  0.00  0.00    +0.000 HD
ATOM     10  H   UNL     1       4.195  -0.971  -1.208  0.00  0.00    +0.000 HD
ENDBRANCH   1   7
BRANCH   2  11
ATOM     11  O   UNL     1       0.511  -2.071  -1.377  0.00  0.00    +0.000 OA
ATOM     12  H   UNL     1       0.865  -2.943  -1.061  0.00  0.00    +0.000 HD
ENDBRANCH   2  11
BRANCH   5  13
ATOM     13  O   UNL     1       1.110   2.359  -0.938  0.00  0.00    +0.000 OA
ATOM     14  H   UNL     1       1.701   3.156  -0.934  0.00  0.00    +0.000 HD
ENDBRANCH   5  13
BRANCH   6  15
ATOM     15  O   UNL     1       3.656   1.457  -0.395  0.00  0.00    +0.000 OA
ATOM     16  H   UNL     1       4.473   1.080   0.024  0.00  0.00    +0.000 HD
ENDBRANCH   6  15
BRANCH   4  17
ATOM     17  C   UNL     1      -1.139   1.703   0.810  0.00  0.00    +0.000 C 
BRANCH  17  18
ATOM     18  O   UNL     1      -0.979   2.587   1.888  0.00  0.00    +0.000 OA
ATOM     19  H   UNL     1      -0.611   3.431   1.517  0.00  0.00    +0.000 HD
ENDBRANCH  17  18
ENDBRANCH   4  17
TORSDOF 6
