REMARK  Name = 134695375
REMARK  8 active torsions:
REMARK  status: ('A' for Active; 'I' for Inactive)
REMARK    1  A    between atoms: O_2  and  N_3
REMARK    2  A    between atoms: N_4  and  C_31
REMARK    3  A    between atoms: N_7  and  C_9
REMARK    4  A    between atoms: C_11  and  O_13
REMARK    5  A    between atoms: C_16  and  C_18
REMARK    6  A    between atoms: C_18  and  O_21
REMARK    7  A    between atoms: C_23  and  O_25
REMARK    8  A    between atoms: C_27  and  O_29
REMARK                            x       y       z     vdW  Elec       q    Type
REMARK                         _______ _______ _______ _____ _____    ______ ____
ROOT
ATOM      1  C   UNL     1      -0.526   0.729  -0.060  0.00  0.00    +0.000 C 
ATOM      2  C   UNL     1      -0.436   2.225  -0.438  0.00  0.00    +0.000 C 
ATOM      3  O   UNL     1       0.912   2.633  -0.630  0.00  0.00    +0.000 OA
ATOM      4  C   UNL     1       1.679   2.475   0.554  0.00  0.00    +0.000 C 
ATOM      5  C   UNL     1       1.773   0.985   0.948  0.00  0.00    +0.000 C 
ATOM      6  C   UNL     1       0.351   0.436   1.172  0.00  0.00    +0.000 C 
ENDROOT
BRANCH   1  11
ATOM      7  N   UNL     1      -4.564  -0.492   0.617  0.00  0.00    +0.000 NA
ATOM      8  N   UNL     1      -4.237  -0.201  -0.583  0.00  0.00    +0.000 N 
ATOM      9  C   UNL     1      -2.867   0.145  -0.872  0.00  0.00    +0.000 C 
ATOM     10  O   UNL     1      -2.489   0.263  -2.070  0.00  0.00    +0.000 OA
ATOM     11  N   UNL     1      -1.921   0.347   0.194  0.00  0.00    +0.000 N 
ATOM     12  H   UNL     1      -2.233   0.207   1.181  0.00  0.00    +0.000 HD
ATOM     13  C   UNL     1      -5.219  -0.308  -1.670  0.00  0.00    +0.000 C 
BRANCH   7  15
ATOM     14  H   UNL     1      -6.065  -1.107   1.914  0.00  0.00    +0.000 HD
ATOM     15  O   UNL     1      -5.841  -0.884   0.953  0.00  0.00    +0.000 OA
ENDBRANCH   7  15
ENDBRANCH   1  11
BRANCH   2  16
ATOM     16  O   UNL     1      -1.077   3.024   0.525  0.00  0.00    +0.000 OA
ATOM     17  H   UNL     1      -1.078   3.949   0.166  0.00  0.00    +0.000 HD
ENDBRANCH   2  16
BRANCH   5  18
ATOM     18  O   UNL     1       2.422   0.262  -0.070  0.00  0.00    +0.000 OA
ATOM     19  H   UNL     1       2.795  -0.556   0.350  0.00  0.00    +0.000 HD
ENDBRANCH   5  18
BRANCH   6  20
ATOM     20  O   UNL     1       0.390  -0.948   1.403  0.00  0.00    +0.000 OA
ATOM     21  H   UNL     1       0.750  -1.075   2.320  0.00  0.00    +0.000 HD
ENDBRANCH   6  20
BRANCH   4  22
ATOM     22  C   UNL     1       3.077   3.071   0.329  0.00  0.00    +0.000 C 
BRANCH  22  23
ATOM     23  O   UNL     1       2.990   4.455   0.123  0.00  0.00    +0.000 OA
ATOM     24  H   UNL     1       2.723   4.588  -0.824  0.00  0.00    +0.000 HD
ENDBRANCH  22  23
ENDBRANCH   4  22
TORSDOF 7
