REMARK  Name = 2733335
REMARK  9 active torsions:
REMARK  status: ('A' for Active; 'I' for Inactive)
REMARK    1  A    between atoms: O_2  and  C_3
REMARK    2  A    between atoms: N_4  and  C_5
REMARK    3  A    between atoms: C_7  and  O_9
REMARK    4  A    between atoms: C_12  and  C_14
REMARK    5  A    between atoms: C_14  and  O_17
REMARK    6  A    between atoms: C_19  and  O_21
REMARK    7  A    between atoms: C_23  and  O_25
REMARK    8  A    between atoms: N_27  and  N_28
REMARK    9  A    between atoms: N_27  and  C_30
REMARK                            x       y       z     vdW  Elec       q    Type
REMARK                         _______ _______ _______ _____ _____    ______ ____
ROOT
ATOM      1  C   UNL     1      -0.852   0.705  -0.043  0.00  0.00    +0.000 C 
ATOM      2  C   UNL     1      -1.318   2.158  -0.254  0.00  0.00    +0.000 C 
ATOM      3  O   UNL     1      -0.236   2.992  -0.633  0.00  0.00    +0.000 OA
ATOM      4  C   UNL     1       0.338   2.615  -1.879  0.00  0.00    +0.000 C 
ATOM      5  C   UNL     1       0.839   1.146  -1.887  0.00  0.00    +0.000 C 
ATOM      6  C   UNL     1      -0.223   0.167  -1.342  0.00  0.00    +0.000 C 
ENDROOT
BRANCH   1   8
ATOM      7  C   UNL     1       0.486  -0.393   1.732  0.00  0.00    +0.000 C 
ATOM      8  N   UNL     1       0.113   0.661   1.060  0.00  0.00    +0.000 NA
ATOM      9  N   UNL     1       1.468  -0.264   2.772  0.00  0.00    +0.000 N 
ATOM     10  C   UNL     1       2.084   1.034   3.070  0.00  0.00    +0.000 C 
BRANCH   7  12
ATOM     11  H   UNL     1      -0.752  -1.835   0.763  0.00  0.00    +0.000 HD
ATOM     12  O   UNL     1      -0.047  -1.659   1.467  0.00  0.00    +0.000 OA
ENDBRANCH   7  12
BRANCH   9  13
ATOM     13  N   UNL     1       1.933  -1.436   3.395  0.00  0.00    +0.000 NA
ATOM     14  O   UNL     1       2.853  -1.409   4.239  0.00  0.00    +0.000 OA
ENDBRANCH   9  13
ENDBRANCH   1   8
BRANCH   2  15
ATOM     15  O   UNL     1      -1.854   2.657   0.944  0.00  0.00    +0.000 OA
ATOM     16  H   UNL     1      -2.737   2.222   1.071  0.00  0.00    +0.000 HD
ENDBRANCH   2  15
BRANCH   5  17
ATOM     17  O   UNL     1       1.998   1.041  -1.098  0.00  0.00    +0.000 OA
ATOM     18  H   UNL     1       2.751   1.398  -1.638  0.00  0.00    +0.000 HD
ENDBRANCH   5  17
BRANCH   6  19
ATOM     19  O   UNL     1      -1.234  -0.044  -2.294  0.00  0.00    +0.000 OA
ATOM     20  H   UNL     1      -0.852  -0.631  -2.998  0.00  0.00    +0.000 HD
ENDBRANCH   6  19
BRANCH   4  21
ATOM     21  C   UNL     1      -0.558   2.967  -3.087  0.00  0.00    +0.000 C 
BRANCH  21  22
ATOM     22  O   UNL     1      -0.928   4.319  -3.044  0.00  0.00    +0.000 OA
ATOM     23  H   UNL     1      -1.700   4.383  -2.424  0.00  0.00    +0.000 HD
ENDBRANCH  21  22
ENDBRANCH   4  21
TORSDOF 8
