REMARK  Name = 447448
REMARK  10 active torsions:
REMARK  status: ('A' for Active; 'I' for Inactive)
REMARK    1  A    between atoms: O_2  and  C_3
REMARK    2  A    between atoms: C_3  and  C_27
REMARK    3  A    between atoms: N_4  and  C_5
REMARK    4  A    between atoms: C_7  and  O_9
REMARK    5  A    between atoms: C_12  and  C_14
REMARK    6  A    between atoms: C_14  and  O_17
REMARK    7  A    between atoms: C_19  and  O_21
REMARK    8  A    between atoms: C_23  and  O_25
REMARK    9  A    between atoms: C_27  and  C_30
REMARK   10  A    between atoms: C_30  and  C_33
REMARK                            x       y       z     vdW  Elec       q    Type
REMARK                         _______ _______ _______ _____ _____    ______ ____
ROOT
ATOM      1  C   UNL     1       0.081   0.618  -0.105  0.00  0.00    +0.000 C 
ATOM      2  C   UNL     1       1.140   0.481  -1.220  0.00  0.00    +0.000 C 
ATOM      3  O   UNL     1       2.105  -0.502  -0.877  0.00  0.00    +0.000 OA
ATOM      4  C   UNL     1       2.855  -0.098   0.257  0.00  0.00    +0.000 C 
ATOM      5  C   UNL     1       1.939  -0.011   1.501  0.00  0.00    +0.000 C 
ATOM      6  C   UNL     1       0.786   0.970   1.218  0.00  0.00    +0.000 C 
ENDROOT
BRANCH   1   8
ATOM      7  C   UNL     1      -2.060   1.573  -0.946  0.00  0.00    +0.000 C 
ATOM      8  N   UNL     1      -0.864   1.690  -0.439  0.00  0.00    +0.000 NA
BRANCH   7  10
ATOM      9  H   UNL     1      -2.416   3.645  -1.004  0.00  0.00    +0.000 HD
ATOM     10  O   UNL     1      -2.799   2.727  -1.195  0.00  0.00    +0.000 OA
ENDBRANCH   7  10
BRANCH   7  11
ATOM     11  C   UNL     1      -2.710   0.245  -1.236  0.00  0.00    +0.000 C 
BRANCH  11  12
ATOM     12  C   UNL     1      -3.416  -0.293   0.013  0.00  0.00    +0.000 C 
ATOM     13  C   UNL     1      -4.059  -1.650  -0.259  0.00  0.00    +0.000 C 
ENDBRANCH  11  12
ENDBRANCH   7  11
ENDBRANCH   1   8
BRANCH   2  14
ATOM     14  O   UNL     1       0.527   0.128  -2.432  0.00  0.00    +0.000 OA
ATOM     15  H   UNL     1       0.276  -0.831  -2.365  0.00  0.00    +0.000 HD
ENDBRANCH   2  14
BRANCH   5  16
ATOM     16  O   UNL     1       2.665   0.453   2.611  0.00  0.00    +0.000 OA
ATOM     17  H   UNL     1       2.956  -0.345   3.125  0.00  0.00    +0.000 HD
ENDBRANCH   5  16
BRANCH   6  18
ATOM     18  O   UNL     1      -0.129   0.989   2.286  0.00  0.00    +0.000 OA
ATOM     19  H   UNL     1      -0.512   0.077   2.373  0.00  0.00    +0.000 HD
ENDBRANCH   6  18
BRANCH   4  20
ATOM     20  C   UNL     1       3.986  -1.113   0.480  0.00  0.00    +0.000 C 
BRANCH  20  21
ATOM     21  O   UNL     1       4.827  -1.162  -0.642  0.00  0.00    +0.000 OA
ATOM     22  H   UNL     1       4.394  -1.767  -1.300  0.00  0.00    +0.000 HD
ENDBRANCH  20  21
ENDBRANCH   4  20
TORSDOF 9
