REMARK  Name = 2801971
REMARK  10 active torsions:
REMARK  status: ('A' for Active; 'I' for Inactive)
REMARK    1  A    between atoms: O_2  and  C_3
REMARK    2  A    between atoms: C_3  and  C_40
REMARK    3  A    between atoms: N_4  and  C_5
REMARK    4  A    between atoms: C_7  and  O_9
REMARK    5  A    between atoms: O_9  and  C_10
REMARK    6  A    between atoms: C_10  and  C_13
REMARK    7  A    between atoms: C_25  and  C_27
REMARK    8  A    between atoms: C_27  and  O_30
REMARK    9  A    between atoms: C_32  and  O_34
REMARK   10  A    between atoms: C_36  and  O_38
REMARK                            x       y       z     vdW  Elec       q    Type
REMARK                         _______ _______ _______ _____ _____    ______ ____
ROOT
ATOM      1  C   UNL     1       1.058  -0.073  -1.492  0.00  0.00    +0.000 C 
ATOM      2  C   UNL     1       0.283  -0.176  -0.160  0.00  0.00    +0.000 C 
ATOM      3  O   UNL     1      -0.447  -1.391  -0.081  0.00  0.00    +0.000 OA
ATOM      4  C   UNL     1      -1.427  -1.490  -1.102  0.00  0.00    +0.000 C 
ATOM      5  C   UNL     1      -0.750  -1.516  -2.494  0.00  0.00    +0.000 C 
ATOM      6  C   UNL     1       0.093  -0.248  -2.678  0.00  0.00    +0.000 C 
ENDROOT
BRANCH   1   8
ATOM      7  C   UNL     1       2.803   1.634  -1.003  0.00  0.00    +0.000 C 
ATOM      8  N   UNL     1       1.718   1.234  -1.603  0.00  0.00    +0.000 NA
ATOM      9  C   UNL     1       3.590   0.758  -0.066  0.00  0.00    +0.000 C 
BRANCH   7  11
ATOM     10  H   UNL     1       4.049   3.316  -0.757  0.00  0.00    +0.000 HD
ATOM     11  O   UNL     1       3.230   2.942  -1.221  0.00  0.00    +0.000 OA
ENDBRANCH   7  11
ENDBRANCH   1   8
BRANCH   5  12
ATOM     12  O   UNL     1      -1.720  -1.563  -3.511  0.00  0.00    +0.000 OA
ATOM     13  H   UNL     1      -1.799  -2.510  -3.798  0.00  0.00    +0.000 HD
ENDBRANCH   5  12
BRANCH   6  14
ATOM     14  O   UNL     1       0.819  -0.350  -3.877  0.00  0.00    +0.000 OA
ATOM     15  H   UNL     1       1.057   0.574  -4.152  0.00  0.00    +0.000 HD
ENDBRANCH   6  14
BRANCH   2  16
ATOM     16  O   UNL     1      -0.574   0.948  -0.005  0.00  0.00    +0.000 OA
BRANCH  16  17
ATOM     17  C   UNL     1      -0.789   1.239   1.361  0.00  0.00    +0.000 C 
BRANCH  17  18
ATOM     18  C   UNL     1       0.339   2.077   1.904  0.00  0.00    +0.000 A 
ATOM     19  C   UNL     1       0.642   3.314   1.313  0.00  0.00    +0.000 A 
ATOM     20  C   UNL     1       1.714   4.077   1.785  0.00  0.00    +0.000 A 
ATOM     21  C   UNL     1       2.488   3.612   2.852  0.00  0.00    +0.000 A 
ATOM     22  C   UNL     1       2.189   2.385   3.450  0.00  0.00    +0.000 A 
ATOM     23  C   UNL     1       1.118   1.618   2.979  0.00  0.00    +0.000 A 
ENDBRANCH  17  18
ENDBRANCH  16  17
ENDBRANCH   2  16
BRANCH   4  24
ATOM     24  C   UNL     1      -2.241  -2.766  -0.848  0.00  0.00    +0.000 C 
BRANCH  24  25
ATOM     25  O   UNL     1      -3.395  -2.778  -1.643  0.00  0.00    +0.000 OA
ATOM     26  H   UNL     1      -3.858  -3.632  -1.444  0.00  0.00    +0.000 HD
ENDBRANCH  24  25
ENDBRANCH   4  24
TORSDOF 9
