REMARK  Name = 441038
REMARK  9 active torsions:
REMARK  status: ('A' for Active; 'I' for Inactive)
REMARK    1  A    between atoms: C_1  and  C_2
REMARK    2  A    between atoms: C_2  and  O_3
REMARK    3  A    between atoms: C_2  and  C_15
REMARK    4  A    between atoms: O_3  and  C_4
REMARK    5  A    between atoms: C_5  and  O_6
REMARK    6  A    between atoms: C_7  and  C_8
REMARK    7  A    between atoms: C_8  and  O_9
REMARK    8  A    between atoms: C_11  and  O_12
REMARK    9  A    between atoms: C_13  and  N_14
REMARK                            x       y       z     vdW  Elec       q    Type
REMARK                         _______ _______ _______ _____ _____    ______ ____
ROOT
ATOM      1  C   UNL     1      -0.100   0.072  -0.065  0.00  0.00    +0.000 C 
ATOM      2  C   UNL     1      -0.378   1.348   0.748  0.00  0.00    +0.000 C 
ATOM      3  C   UNL     1      -0.117   2.594  -0.132  0.00  0.00    +0.000 C 
ATOM      4  O   UNL     1       1.221   2.592  -0.600  0.00  0.00    +0.000 OA
ATOM      5  C   UNL     1       1.444   1.498  -1.472  0.00  0.00    +0.000 C 
ATOM      6  C   UNL     1       1.306   0.161  -0.707  0.00  0.00    +0.000 C 
ENDROOT
BRANCH   6   7
ATOM      7  N   UNL     1       1.546  -0.980  -1.603  0.00  0.00    +0.000 N 
ATOM      8  H   UNL     1       2.494  -0.906  -2.036  0.00  0.00    +0.000 HD
ATOM      9  H   UNL     1       0.825  -1.012  -2.360  0.00  0.00    +0.000 HD
ATOM     10  H   UNL     1       1.521  -1.873  -1.059  0.00  0.00    +0.000 HD
ENDBRANCH   6   7
BRANCH   2  11
ATOM     11  O   UNL     1      -1.715   1.332   1.181  0.00  0.00    +0.000 OA
ATOM     12  H   UNL     1      -1.737   1.747   2.082  0.00  0.00    +0.000 HD
ENDBRANCH   2  11
BRANCH   5  13
ATOM     13  O   UNL     1       2.743   1.601  -1.991  0.00  0.00    +0.000 OA
ATOM     14  H   UNL     1       2.752   2.410  -2.567  0.00  0.00    +0.000 HD
ENDBRANCH   5  13
BRANCH   1  15
ATOM     15  O   UNL     1      -0.153  -1.041   0.818  0.00  0.00    +0.000 OA
BRANCH  15  17
ATOM     16  C   UNL     1      -2.435  -1.851   0.719  0.00  0.00    +0.000 C 
ATOM     17  C   UNL     1      -0.974  -2.087   0.324  0.00  0.00    +0.000 C 
BRANCH  17  18
ATOM     18  C   UNL     1      -0.503  -3.379   0.921  0.00  0.00    +0.000 C 
ATOM     19  O   UNL     1      -0.416  -4.413   0.208  0.00  0.00    +0.000 OA
ATOM     20  O   UNL     1      -0.196  -3.451   2.274  0.00  0.00    +0.000 OA
ENDBRANCH  17  18
ENDBRANCH  15  17
ENDBRANCH   1  15
BRANCH   3  21
ATOM     21  C   UNL     1      -0.357   3.897   0.642  0.00  0.00    +0.000 C 
BRANCH  21  22
ATOM     22  O   UNL     1       0.510   3.982   1.740  0.00  0.00    +0.000 OA
ATOM     23  H   UNL     1       0.297   4.838   2.194  0.00  0.00    +0.000 HD
ENDBRANCH  21  22
ENDBRANCH   3  21
TORSDOF 8
