REMARK  Name = 18897
REMARK  6 active torsions:
REMARK  status: ('A' for Active; 'I' for Inactive)
REMARK    1  A    between atoms: N_1  and  C_2
REMARK    2  A    between atoms: C_3  and  O_4
REMARK    3  A    between atoms: C_5  and  O_6
REMARK    4  A    between atoms: C_7  and  C_8
REMARK    5  A    between atoms: C_8  and  O_9
REMARK    6  A    between atoms: C_11  and  O_12
REMARK                            x       y       z     vdW  Elec       q    Type
REMARK                         _______ _______ _______ _____ _____    ______ ____
ROOT
ATOM      1  C   UNL     1      -1.706   0.063  -0.188  0.00  0.00    +0.000 C 
ATOM      2  C   UNL     1      -0.813  -1.019  -0.842  0.00  0.00    +0.000 C 
ATOM      3  C   UNL     1       0.601  -1.039  -0.211  0.00  0.00    +0.000 C 
ATOM      4  C   UNL     1       1.168   0.396  -0.067  0.00  0.00    +0.000 C 
ATOM      5  O   UNL     1       0.262   1.226   0.642  0.00  0.00    +0.000 OA
ATOM      6  C   UNL     1      -0.934   1.402  -0.094  0.00  0.00    +0.000 C 
ENDROOT
BRANCH   1   7
ATOM      7  N   UNL     1      -2.124  -0.376   1.149  0.00  0.00    +0.000 NA
ATOM      8  H   UNL     1      -2.666  -1.265   1.053  0.00  0.00    +0.000 HD
ATOM      9  H   UNL     1      -2.804   0.320   1.532  0.00  0.00    +0.000 HD
ENDBRANCH   1   7
BRANCH   2  10
ATOM     10  O   UNL     1      -0.764  -0.861  -2.241  0.00  0.00    +0.000 OA
ATOM     11  H   UNL     1      -0.282  -0.022  -2.448  0.00  0.00    +0.000 HD
ENDBRANCH   2  10
BRANCH   3  12
ATOM     12  O   UNL     1       1.468  -1.820  -0.993  0.00  0.00    +0.000 OA
ATOM     13  H   UNL     1       1.213  -2.767  -0.844  0.00  0.00    +0.000 HD
ENDBRANCH   3  12
BRANCH   6  14
ATOM     14  O   UNL     1      -1.716   2.369   0.556  0.00  0.00    +0.000 OA
ATOM     15  H   UNL     1      -2.443   2.621  -0.071  0.00  0.00    +0.000 HD
ENDBRANCH   6  14
BRANCH   4  16
ATOM     16  C   UNL     1       2.509   0.391   0.680  0.00  0.00    +0.000 C 
BRANCH  16  17
ATOM     17  O   UNL     1       2.338  -0.066   1.994  0.00  0.00    +0.000 OA
ATOM     18  H   UNL     1       3.237  -0.045   2.412  0.00  0.00    +0.000 HD
ENDBRANCH  16  17
ENDBRANCH   4  16
TORSDOF 6
