REMARK  Name = 439174
REMARK  8 active torsions:
REMARK  status: ('A' for Active; 'I' for Inactive)
REMARK    1  A    between atoms: O_2  and  C_3
REMARK    2  A    between atoms: C_3  and  C_27
REMARK    3  A    between atoms: N_4  and  C_5
REMARK    4  A    between atoms: C_7  and  O_9
REMARK    5  A    between atoms: C_12  and  C_14
REMARK    6  A    between atoms: C_14  and  O_17
REMARK    7  A    between atoms: C_19  and  O_21
REMARK    8  A    between atoms: C_23  and  O_25
REMARK                            x       y       z     vdW  Elec       q    Type
REMARK                         _______ _______ _______ _____ _____    ______ ____
ROOT
ATOM      1  C   UNL     1       0.372  -0.528   0.421  0.00  0.00    +0.000 C 
ATOM      2  C   UNL     1      -0.458  -0.221   1.681  0.00  0.00    +0.000 C 
ATOM      3  O   UNL     1      -1.740   0.285   1.340  0.00  0.00    +0.000 OA
ATOM      4  C   UNL     1      -1.650   1.516   0.636  0.00  0.00    +0.000 C 
ATOM      5  C   UNL     1      -0.909   1.321  -0.709  0.00  0.00    +0.000 C 
ATOM      6  C   UNL     1       0.487   0.737  -0.452  0.00  0.00    +0.000 C 
ENDROOT
BRANCH   1   8
ATOM      7  C   UNL     1       2.395  -1.957   0.278  0.00  0.00    +0.000 C 
ATOM      8  N   UNL     1       1.704  -0.993   0.821  0.00  0.00    +0.000 NA
ATOM      9  C   UNL     1       1.874  -2.785  -0.860  0.00  0.00    +0.000 C 
BRANCH   7  11
ATOM     10  H   UNL     1       4.048  -1.724   1.558  0.00  0.00    +0.000 HD
ATOM     11  O   UNL     1       3.658  -2.251   0.785  0.00  0.00    +0.000 OA
ENDBRANCH   7  11
ENDBRANCH   1   8
BRANCH   2  12
ATOM     12  O   UNL     1       0.228   0.661   2.536  0.00  0.00    +0.000 OA
ATOM     13  H   UNL     1      -0.313   0.721   3.367  0.00  0.00    +0.000 HD
ENDBRANCH   2  12
BRANCH   5  14
ATOM     14  O   UNL     1      -0.767   2.554  -1.370  0.00  0.00    +0.000 OA
ATOM     15  H   UNL     1      -1.513   2.626  -2.021  0.00  0.00    +0.000 HD
ENDBRANCH   5  14
BRANCH   6  16
ATOM     16  O   UNL     1       1.087   0.428  -1.683  0.00  0.00    +0.000 OA
ATOM     17  H   UNL     1       2.069   0.448  -1.539  0.00  0.00    +0.000 HD
ENDBRANCH   6  16
BRANCH   4  18
ATOM     18  C   UNL     1      -3.072   2.046   0.403  0.00  0.00    +0.000 C 
BRANCH  18  19
ATOM     19  O   UNL     1      -3.723   2.253   1.629  0.00  0.00    +0.000 OA
ATOM     20  H   UNL     1      -4.085   1.373   1.914  0.00  0.00    +0.000 HD
ENDBRANCH  18  19
ENDBRANCH   4  18
TORSDOF 7
