REMARK  Name = 112106
REMARK  9 active torsions:
REMARK  status: ('A' for Active; 'I' for Inactive)
REMARK    1  A    between atoms: O_2  and  C_3
REMARK    2  A    between atoms: C_3  and  C_43
REMARK    3  A    between atoms: N_4  and  C_5
REMARK    4  A    between atoms: C_7  and  O_9
REMARK    5  A    between atoms: O_9  and  C_10
REMARK    6  A    between atoms: C_28  and  C_30
REMARK    7  A    between atoms: C_30  and  O_33
REMARK    8  A    between atoms: C_35  and  O_37
REMARK    9  A    between atoms: C_39  and  O_41
REMARK                            x       y       z     vdW  Elec       q    Type
REMARK                         _______ _______ _______ _____ _____    ______ ____
ROOT
ATOM      1  C   UNL     1      -1.804  -0.609   0.065  0.00  0.00    +0.000 C 
ATOM      2  C   UNL     1      -0.645   0.234  -0.494  0.00  0.00    +0.000 C 
ATOM      3  O   UNL     1      -0.752   1.573  -0.042  0.00  0.00    +0.000 OA
ATOM      4  C   UNL     1      -1.902   2.192  -0.593  0.00  0.00    +0.000 C 
ATOM      5  C   UNL     1      -3.188   1.498  -0.073  0.00  0.00    +0.000 C 
ATOM      6  C   UNL     1      -3.144  -0.010  -0.399  0.00  0.00    +0.000 C 
ENDROOT
BRANCH   1   8
ATOM      7  C   UNL     1      -1.895  -3.081   0.244  0.00  0.00    +0.000 C 
ATOM      8  N   UNL     1      -1.676  -1.985  -0.427  0.00  0.00    +0.000 NA
ATOM      9  C   UNL     1      -2.291  -3.077   1.692  0.00  0.00    +0.000 C 
BRANCH   7  11
ATOM     10  H   UNL     1      -1.460  -4.360  -1.367  0.00  0.00    +0.000 HD
ATOM     11  O   UNL     1      -1.735  -4.308  -0.393  0.00  0.00    +0.000 OA
ENDBRANCH   7  11
ENDBRANCH   1   8
BRANCH   5  12
ATOM     12  O   UNL     1      -4.343   2.090  -0.616  0.00  0.00    +0.000 OA
ATOM     13  H   UNL     1      -4.290   2.002  -1.603  0.00  0.00    +0.000 HD
ENDBRANCH   5  12
BRANCH   6  14
ATOM     14  O   UNL     1      -4.203  -0.669   0.245  0.00  0.00    +0.000 OA
ATOM     15  H   UNL     1      -5.018  -0.504  -0.298  0.00  0.00    +0.000 HD
ENDBRANCH   6  14
BRANCH   2  16
ATOM     16  O   UNL     1       0.584  -0.316  -0.022  0.00  0.00    +0.000 OA
BRANCH  16  17
ATOM     17  C   UNL     1       1.867   0.112  -0.406  0.00  0.00    +0.000 A 
ATOM     18  C   UNL     1       2.053   1.151  -1.341  0.00  0.00    +0.000 A 
ATOM     19  C   UNL     1       3.337   1.558  -1.704  0.00  0.00    +0.000 A 
ATOM     20  C   UNL     1       4.457   0.940  -1.147  0.00  0.00    +0.000 A 
ATOM     21  C   UNL     1       4.300  -0.096  -0.218  0.00  0.00    +0.000 A 
ATOM     22  C   UNL     1       5.424  -0.721   0.344  0.00  0.00    +0.000 A 
ATOM     23  C   UNL     1       5.265  -1.754   1.270  0.00  0.00    +0.000 A 
ATOM     24  C   UNL     1       3.986  -2.172   1.642  0.00  0.00    +0.000 A 
ATOM     25  C   UNL     1       2.857  -1.560   1.093  0.00  0.00    +0.000 A 
ATOM     26  C   UNL     1       2.997  -0.516   0.158  0.00  0.00    +0.000 A 
ENDBRANCH  16  17
ENDBRANCH   2  16
BRANCH   4  27
ATOM     27  C   UNL     1      -1.879   3.681  -0.225  0.00  0.00    +0.000 C 
BRANCH  27  28
ATOM     28  O   UNL     1      -1.860   3.841   1.167  0.00  0.00    +0.000 OA
ATOM     29  H   UNL     1      -1.846   4.820   1.331  0.00  0.00    +0.000 HD
ENDBRANCH  27  28
ENDBRANCH   4  27
TORSDOF 8
