REMARK  Name = 254124
REMARK  8 active torsions:
REMARK  status: ('A' for Active; 'I' for Inactive)
REMARK    1  A    between atoms: C_1  and  O_2
REMARK    2  A    between atoms: O_2  and  C_3
REMARK    3  A    between atoms: C_5  and  C_6
REMARK    4  A    between atoms: C_6  and  O_7
REMARK    5  A    between atoms: C_8  and  O_9
REMARK    6  A    between atoms: C_10  and  O_11
REMARK    7  A    between atoms: C_12  and  N_13
REMARK    8  A    between atoms: C_14  and  C_15
REMARK                            x       y       z     vdW  Elec       q    Type
REMARK                         _______ _______ _______ _____ _____    ______ ____
ROOT
ATOM      1  C   UNL     1      -0.000   0.929   0.346  0.00  0.00    +0.000 C 
ATOM      2  O   UNL     1       1.376   0.797   0.673  0.00  0.00    +0.000 OA
ATOM      3  C   UNL     1       2.067   0.093  -0.346  0.00  0.00    +0.000 C 
ATOM      4  C   UNL     1       1.571  -1.370  -0.412  0.00  0.00    +0.000 C 
ATOM      5  C   UNL     1       0.054  -1.373  -0.689  0.00  0.00    +0.000 C 
ATOM      6  C   UNL     1      -0.672  -0.459   0.315  0.00  0.00    +0.000 C 
ENDROOT
BRANCH   6   7
ATOM      7  N   UNL     1      -2.083  -0.324  -0.061  0.00  0.00    +0.000 N 
ATOM      8  C   UNL     1      -3.149  -0.326   0.899  0.00  0.00    +0.000 C 
ATOM      9  C   UNL     1      -4.553  -0.081   0.451  0.00  0.00    +0.000 C 
ATOM     10  O   UNL     1      -2.909  -0.503   2.124  0.00  0.00    +0.000 OA
ATOM     11  H   UNL     1      -2.314  -0.085  -1.053  0.00  0.00    +0.000 HD
ENDBRANCH   6   7
BRANCH   1  13
ATOM     12  C   UNL     1      -0.325   3.073   1.161  0.00  0.00    +0.000 C 
ATOM     13  O   UNL     1      -0.637   1.709   1.340  0.00  0.00    +0.000 OA
ENDBRANCH   1  13
BRANCH   4  14
ATOM     14  O   UNL     1       1.844  -2.022   0.804  0.00  0.00    +0.000 OA
ATOM     15  H   UNL     1       1.881  -2.994   0.609  0.00  0.00    +0.000 HD
ENDBRANCH   4  14
BRANCH   5  16
ATOM     16  O   UNL     1      -0.462  -2.676  -0.597  0.00  0.00    +0.000 OA
ATOM     17  H   UNL     1      -0.152  -3.164  -1.404  0.00  0.00    +0.000 HD
ENDBRANCH   5  16
BRANCH   3  18
ATOM     18  C   UNL     1       3.571   0.169  -0.060  0.00  0.00    +0.000 C 
BRANCH  18  19
ATOM     19  O   UNL     1       4.292  -0.445  -1.094  0.00  0.00    +0.000 OA
ATOM     20  H   UNL     1       5.250  -0.366  -0.845  0.00  0.00    +0.000 HD
ENDBRANCH  18  19
ENDBRANCH   3  18
TORSDOF 6
