REMARK  Name = 82313
REMARK  7 active torsions:
REMARK  status: ('A' for Active; 'I' for Inactive)
REMARK    1  A    between atoms: C_1  and  C_2
REMARK    2  A    between atoms: N_4  and  C_5
REMARK    3  A    between atoms: C_6  and  O_7
REMARK    4  A    between atoms: C_9  and  C_10
REMARK    5  A    between atoms: C_10  and  O_11
REMARK    6  A    between atoms: C_12  and  O_13
REMARK    7  A    between atoms: C_14  and  O_15
REMARK                            x       y       z     vdW  Elec       q    Type
REMARK                         _______ _______ _______ _____ _____    ______ ____
ROOT
ATOM      1  C   UNL     1       0.320  -0.628  -0.890  0.00  0.00    +0.000 C 
ATOM      2  C   UNL     1       0.042   0.630  -1.748  0.00  0.00    +0.000 C 
ATOM      3  O   UNL     1      -1.344   0.747  -2.019  0.00  0.00    +0.000 OA
ATOM      4  C   UNL     1      -2.113   1.022  -0.849  0.00  0.00    +0.000 C 
ATOM      5  C   UNL     1      -1.485   0.526   0.487  0.00  0.00    +0.000 C 
ATOM      6  C   UNL     1      -0.735  -0.794   0.235  0.00  0.00    +0.000 C 
ENDROOT
BRANCH   1  10
ATOM      7  C   UNL     1       0.961  -4.248  -2.191  0.00  0.00    +0.000 C 
ATOM      8  C   UNL     1       1.049  -3.022  -1.342  0.00  0.00    +0.000 C 
ATOM      9  O   UNL     1       1.731  -3.046  -0.281  0.00  0.00    +0.000 OA
ATOM     10  N   UNL     1       0.340  -1.836  -1.725  0.00  0.00    +0.000 N 
ATOM     11  H   UNL     1      -0.256  -1.871  -2.583  0.00  0.00    +0.000 HD
ENDBRANCH   1  10
BRANCH   2  12
ATOM     12  O   UNL     1       0.749   0.550  -2.957  0.00  0.00    +0.000 OA
ATOM     13  H   UNL     1       0.605   1.414  -3.424  0.00  0.00    +0.000 HD
ENDBRANCH   2  12
BRANCH   5  14
ATOM     14  O   UNL     1      -2.504   0.332   1.436  0.00  0.00    +0.000 OA
ATOM     15  H   UNL     1      -2.086   0.408   2.333  0.00  0.00    +0.000 HD
ENDBRANCH   5  14
BRANCH   6  16
ATOM     16  O   UNL     1      -0.096  -1.219   1.413  0.00  0.00    +0.000 OA
ATOM     17  H   UNL     1      -0.768  -1.719   1.946  0.00  0.00    +0.000 HD
ENDBRANCH   6  16
BRANCH   4  18
ATOM     18  C   UNL     1      -2.494   2.509  -0.796  0.00  0.00    +0.000 C 
BRANCH  18  19
ATOM     19  O   UNL     1      -1.351   3.311  -0.681  0.00  0.00    +0.000 OA
ATOM     20  H   UNL     1      -1.675   4.248  -0.652  0.00  0.00    +0.000 HD
ENDBRANCH  18  19
ENDBRANCH   4  18
TORSDOF 6
