REMARK  Name = 99461
REMARK  15 active torsions:
REMARK  status: ('A' for Active; 'I' for Inactive)
REMARK    1  A    between atoms: C_1  and  C_2
REMARK    2  A    between atoms: N_4  and  C_5
REMARK    3  A    between atoms: C_6  and  O_7
REMARK    4  A    between atoms: O_7  and  C_8
REMARK    5  A    between atoms: C_8  and  C_9
REMARK    6  A    between atoms: C_12  and  C_13
REMARK    7  A    between atoms: C_13  and  O_14
REMARK    8  A    between atoms: O_14  and  C_15
REMARK    9  A    between atoms: C_15  and  C_16
REMARK   10  A    between atoms: C_18  and  O_19
REMARK   11  A    between atoms: O_19  and  C_20
REMARK   12  A    between atoms: C_20  and  C_21
REMARK   13  A    between atoms: C_23  and  O_24
REMARK   14  A    between atoms: O_24  and  C_25
REMARK   15  A    between atoms: C_25  and  C_26
REMARK                            x       y       z     vdW  Elec       q    Type
REMARK                         _______ _______ _______ _____ _____    ______ ____
ROOT
ATOM      1  C   UNL     1      -0.084  -0.222  -0.965  0.00  0.00    +0.000 C 
ATOM      2  C   UNL     1       1.027  -1.046  -0.291  0.00  0.00    +0.000 C 
ATOM      3  O   UNL     1       0.645  -1.400   1.027  0.00  0.00    +0.000 OA
ATOM      4  C   UNL     1       0.533  -0.243   1.838  0.00  0.00    +0.000 C 
ATOM      5  C   UNL     1      -0.620   0.659   1.338  0.00  0.00    +0.000 C 
ATOM      6  C   UNL     1      -0.376   1.042  -0.133  0.00  0.00    +0.000 C 
ENDROOT
BRANCH   1  10
ATOM      7  C   UNL     1      -0.064   0.461  -4.807  0.00  0.00    +0.000 C 
ATOM      8  C   UNL     1      -0.516  -0.028  -3.470  0.00  0.00    +0.000 C 
ATOM      9  O   UNL     1      -1.657  -0.552  -3.355  0.00  0.00    +0.000 OA
ATOM     10  N   UNL     1       0.327   0.147  -2.323  0.00  0.00    +0.000 N 
ATOM     11  H   UNL     1       1.240   0.641  -2.448  0.00  0.00    +0.000 HD
ENDBRANCH   1  10
BRANCH   2  12
ATOM     12  O   UNL     1       1.237  -2.237  -1.046  0.00  0.00    +0.000 OA
BRANCH  12  13
ATOM     13  C   UNL     1       2.257  -3.150  -0.760  0.00  0.00    +0.000 C 
ATOM     14  C   UNL     1       2.414  -4.365  -1.608  0.00  0.00    +0.000 C 
ATOM     15  O   UNL     1       3.071  -2.934   0.179  0.00  0.00    +0.000 OA
ENDBRANCH  12  13
ENDBRANCH   2  12
BRANCH   4  16
ATOM     16  C   UNL     1       0.306  -0.685   3.288  0.00  0.00    +0.000 C 
BRANCH  16  17
ATOM     17  O   UNL     1      -0.884  -1.462   3.390  0.00  0.00    +0.000 OA
BRANCH  17  18
ATOM     18  C   UNL     1      -1.339  -1.991   4.600  0.00  0.00    +0.000 C 
ATOM     19  C   UNL     1      -2.608  -2.772   4.630  0.00  0.00    +0.000 C 
ATOM     20  O   UNL     1      -0.709  -1.781   5.673  0.00  0.00    +0.000 OA
ENDBRANCH  17  18
ENDBRANCH  16  17
ENDBRANCH   4  16
BRANCH   5  21
ATOM     21  O   UNL     1      -0.682   1.838   2.144  0.00  0.00    +0.000 OA
BRANCH  21  22
ATOM     22  C   UNL     1      -1.836   2.615   2.300  0.00  0.00    +0.000 C 
ATOM     23  C   UNL     1      -1.774   3.861   3.115  0.00  0.00    +0.000 C 
ATOM     24  O   UNL     1      -2.937   2.247   1.807  0.00  0.00    +0.000 OA
ENDBRANCH  21  22
ENDBRANCH   5  21
BRANCH   6  25
ATOM     25  O   UNL     1      -1.534   1.706  -0.643  0.00  0.00    +0.000 OA
BRANCH  25  26
ATOM     26  C   UNL     1      -1.497   2.673  -1.655  0.00  0.00    +0.000 C 
ATOM     27  C   UNL     1      -2.774   3.253  -2.159  0.00  0.00    +0.000 C 
ATOM     28  O   UNL     1      -0.399   3.092  -2.112  0.00  0.00    +0.000 OA
ENDBRANCH  25  26
ENDBRANCH   6  25
TORSDOF 10
