REMARK  Name = ZINC000001471333
REMARK  9 active torsions:
REMARK  status: ('A' for Active; 'I' for Inactive)
REMARK    1  A    between atoms: C_1  and  C_2
REMARK    2  A    between atoms: N_4  and  C_5
REMARK    3  A    between atoms: C_6  and  O_7
REMARK    4  A    between atoms: O_7  and  C_8
REMARK    5  A    between atoms: C_11  and  C_12
REMARK    6  A    between atoms: C_16  and  C_17
REMARK    7  A    between atoms: C_17  and  O_18
REMARK    8  A    between atoms: C_19  and  O_20
REMARK    9  A    between atoms: C_21  and  O_22
REMARK                            x       y       z     vdW  Elec       q    Type
REMARK                         _______ _______ _______ _____ _____    ______ ____
ROOT
ATOM      1  C   UNL     1      -0.532  -1.001  -1.214  0.00  0.00    +0.000 C 
ATOM      2  C   UNL     1       0.934  -0.536  -1.040  0.00  0.00    +0.000 C 
ATOM      3  O   UNL     1       1.793  -1.402  -1.761  0.00  0.00    +0.000 OA
ATOM      4  C   UNL     1       1.778  -2.712  -1.215  0.00  0.00    +0.000 C 
ATOM      5  C   UNL     1       0.373  -3.344  -1.395  0.00  0.00    +0.000 C 
ATOM      6  C   UNL     1      -0.688  -2.455  -0.726  0.00  0.00    +0.000 C 
ENDROOT
BRANCH   1  10
ATOM      7  C   UNL     1      -3.167   1.750  -0.354  0.00  0.00    +0.000 C 
ATOM      8  C   UNL     1      -2.346   0.794  -1.156  0.00  0.00    +0.000 C 
ATOM      9  O   UNL     1      -2.403   0.835  -2.415  0.00  0.00    +0.000 OA
ATOM     10  N   UNL     1      -1.456  -0.118  -0.494  0.00  0.00    +0.000 N 
ATOM     11  H   UNL     1      -1.405  -0.081   0.549  0.00  0.00    +0.000 HD
ENDBRANCH   1  10
BRANCH   5  12
ATOM     12  O   UNL     1       0.326  -4.626  -0.819  0.00  0.00    +0.000 OA
ATOM     13  H   UNL     1       0.473  -5.282  -1.549  0.00  0.00    +0.000 HD
ENDBRANCH   5  12
BRANCH   6  14
ATOM     14  O   UNL     1      -0.543  -2.526   0.672  0.00  0.00    +0.000 OA
ATOM     15  H   UNL     1      -1.453  -2.471   1.065  0.00  0.00    +0.000 HD
ENDBRANCH   6  14
BRANCH   2  16
ATOM     16  O   UNL     1       1.093   0.777  -1.585  0.00  0.00    +0.000 OA
BRANCH  16  17
ATOM     17  C   UNL     1       0.783   1.993  -0.952  0.00  0.00    +0.000 A 
ATOM     18  C   UNL     1       0.704   3.142  -1.748  0.00  0.00    +0.000 A 
ATOM     19  C   UNL     1       0.382   4.379  -1.184  0.00  0.00    +0.000 A 
ATOM     20  C   UNL     1       0.128   4.485   0.191  0.00  0.00    +0.000 A 
ATOM     21  C   UNL     1      -0.186   5.818   0.802  0.00  0.00    +0.000 C 
ATOM     22  C   UNL     1       0.238   3.345   0.999  0.00  0.00    +0.000 A 
ATOM     23  C   UNL     1       0.560   2.106   0.435  0.00  0.00    +0.000 A 
ENDBRANCH  16  17
ENDBRANCH   2  16
BRANCH   4  24
ATOM     24  C   UNL     1       2.861  -3.533  -1.928  0.00  0.00    +0.000 C 
BRANCH  24  25
ATOM     25  O   UNL     1       3.087  -4.738  -1.251  0.00  0.00    +0.000 OA
ATOM     26  H   UNL     1       3.778  -5.223  -1.774  0.00  0.00    +0.000 HD
ENDBRANCH  24  25
ENDBRANCH   4  24
TORSDOF 7
