REMARK  Name = ZINC000001471333
REMARK  10 active torsions:
REMARK  status: ('A' for Active; 'I' for Inactive)
REMARK    1  A    between atoms: O_2  and  C_3
REMARK    2  A    between atoms: C_3  and  C_40
REMARK    3  A    between atoms: N_4  and  C_5
REMARK    4  A    between atoms: C_7  and  O_9
REMARK    5  A    between atoms: O_9  and  C_10
REMARK    6  A    between atoms: C_15  and  C_16
REMARK    7  A    between atoms: C_25  and  C_27
REMARK    8  A    between atoms: C_27  and  O_30
REMARK    9  A    between atoms: C_32  and  O_34
REMARK   10  A    between atoms: C_36  and  O_38
REMARK                            x       y       z     vdW  Elec       q    Type
REMARK                         _______ _______ _______ _____ _____    ______ ____
ROOT
ATOM      1  C   UNL     1       0.247  -1.601   1.517  0.00  0.00    +0.000 C 
ATOM      2  C   UNL     1      -0.092  -0.162   1.094  0.00  0.00    +0.000 C 
ATOM      3  O   UNL     1       0.791   0.751   1.723  0.00  0.00    +0.000 OA
ATOM      4  C   UNL     1       0.586   0.761   3.126  0.00  0.00    +0.000 C 
ATOM      5  C   UNL     1       0.970  -0.617   3.725  0.00  0.00    +0.000 C 
ATOM      6  C   UNL     1       0.147  -1.731   3.050  0.00  0.00    +0.000 C 
ENDROOT
BRANCH   1   8
ATOM      7  C   UNL     1      -0.470  -3.814   0.762  0.00  0.00    +0.000 C 
ATOM      8  N   UNL     1      -0.670  -2.534   0.857  0.00  0.00    +0.000 NA
ATOM      9  C   UNL     1      -1.478  -4.665   0.058  0.00  0.00    +0.000 C 
BRANCH   7  11
ATOM     10  H   UNL     1       0.862  -5.387   1.189  0.00  0.00    +0.000 HD
ATOM     11  O   UNL     1       0.690  -4.393   1.275  0.00  0.00    +0.000 OA
ENDBRANCH   7  11
ENDBRANCH   1   8
BRANCH   5  12
ATOM     12  O   UNL     1       0.734  -0.640   5.111  0.00  0.00    +0.000 OA
ATOM     13  H   UNL     1       1.601  -0.466   5.561  0.00  0.00    +0.000 HD
ENDBRANCH   5  12
BRANCH   6  14
ATOM     14  O   UNL     1      -1.202  -1.650   3.445  0.00  0.00    +0.000 OA
ATOM     15  H   UNL     1      -1.282  -2.133   4.308  0.00  0.00    +0.000 HD
ENDBRANCH   6  14
BRANCH   2  16
ATOM     16  O   UNL     1       0.060  -0.051  -0.321  0.00  0.00    +0.000 OA
BRANCH  16  17
ATOM     17  C   UNL     1      -0.267   1.085  -1.077  0.00  0.00    +0.000 A 
ATOM     18  C   UNL     1      -0.035   1.053  -2.457  0.00  0.00    +0.000 A 
ATOM     19  C   UNL     1      -0.343   2.158  -3.256  0.00  0.00    +0.000 A 
ATOM     20  C   UNL     1      -0.904   3.309  -2.684  0.00  0.00    +0.000 A 
ATOM     21  C   UNL     1      -1.198   4.509  -3.535  0.00  0.00    +0.000 C 
ATOM     22  C   UNL     1      -1.123   3.353  -1.300  0.00  0.00    +0.000 A 
ATOM     23  C   UNL     1      -0.815   2.248  -0.500  0.00  0.00    +0.000 A 
ENDBRANCH  16  17
ENDBRANCH   2  16
BRANCH   4  24
ATOM     24  C   UNL     1       1.440   1.895   3.718  0.00  0.00    +0.000 C 
BRANCH  24  25
ATOM     25  O   UNL     1       1.116   2.128   5.062  0.00  0.00    +0.000 OA
ATOM     26  H   UNL     1       0.248   2.611   5.066  0.00  0.00    +0.000 HD
ENDBRANCH  24  25
ENDBRANCH   4  24
TORSDOF 8
