REMARK  Name = 54758653
REMARK  8 active torsions:
REMARK  status: ('A' for Active; 'I' for Inactive)
REMARK    1  A    between atoms: C_1  and  C_2
REMARK    2  A    between atoms: N_4  and  C_5
REMARK    3  A    between atoms: C_6  and  O_7
REMARK    4  A    between atoms: C_9  and  C_10
REMARK    5  A    between atoms: C_10  and  O_11
REMARK    6  A    between atoms: O_11  and  P_12
REMARK    7  A    between atoms: C_16  and  O_17
REMARK    8  A    between atoms: C_18  and  O_19
REMARK                            x       y       z     vdW  Elec       q    Type
REMARK                         _______ _______ _______ _____ _____    ______ ____
ROOT
ATOM      1  C   UNL     1       0.328   0.946  -0.891  0.00  0.00    +0.000 C 
ATOM      2  C   UNL     1      -0.372  -0.329  -1.402  0.00  0.00    +0.000 C 
ATOM      3  O   UNL     1      -0.929  -1.082  -0.333  0.00  0.00    +0.000 OA
ATOM      4  C   UNL     1       0.067  -1.541   0.569  0.00  0.00    +0.000 C 
ATOM      5  C   UNL     1       0.793  -0.342   1.238  0.00  0.00    +0.000 C 
ATOM      6  C   UNL     1       1.392   0.582   0.162  0.00  0.00    +0.000 C 
ENDROOT
BRANCH   1  10
ATOM      7  C   UNL     1      -1.567   4.179   0.203  0.00  0.00    +0.000 C 
ATOM      8  C   UNL     1      -0.571   3.295  -0.473  0.00  0.00    +0.000 C 
ATOM      9  O   UNL     1       0.363   3.811  -1.146  0.00  0.00    +0.000 OA
ATOM     10  N   UNL     1      -0.666   1.871  -0.330  0.00  0.00    +0.000 N 
ATOM     11  H   UNL     1      -1.419   1.489   0.287  0.00  0.00    +0.000 HD
ENDBRANCH   1  10
BRANCH   2  12
ATOM     12  O   UNL     1       0.514  -1.106  -2.168  0.00  0.00    +0.000 OA
ATOM     13  H   UNL     1      -0.024  -1.847  -2.552  0.00  0.00    +0.000 HD
ENDBRANCH   2  12
BRANCH   5  14
ATOM     14  O   UNL     1       1.798  -0.773   2.123  0.00  0.00    +0.000 OA
ATOM     15  H   UNL     1       2.446  -1.317   1.602  0.00  0.00    +0.000 HD
ENDBRANCH   5  14
BRANCH   6  16
ATOM     16  O   UNL     1       1.906   1.739   0.770  0.00  0.00    +0.000 OA
ATOM     17  H   UNL     1       2.495   2.176   0.101  0.00  0.00    +0.000 HD
ENDBRANCH   6  16
BRANCH   4  18
ATOM     18  C   UNL     1      -0.620  -2.430   1.615  0.00  0.00    +0.000 C 
BRANCH  18  19
ATOM     19  O   UNL     1       0.349  -3.094   2.393  0.00  0.00    +0.000 OA
BRANCH  19  20
ATOM     20  P   UNL     1      -0.453  -4.048   3.557  0.00  0.00    +0.000 P 
ATOM     21  O   UNL     1      -1.285  -5.111   2.876  0.00  0.00    +0.000 OA
ATOM     22  O   UNL     1      -1.451  -3.080   4.522  0.00  0.00    +0.000 OA
ATOM     23  O   UNL     1       0.701  -4.798   4.539  0.00  0.00    +0.000 OA
ENDBRANCH  19  20
ENDBRANCH  18  19
ENDBRANCH   4  18
TORSDOF 7
