REMARK  Name = 57339292
REMARK  10 active torsions:
REMARK  status: ('A' for Active; 'I' for Inactive)
REMARK    1  A    between atoms: N_1  and  C_2
REMARK    2  A    between atoms: C_3  and  O_4
REMARK    3  A    between atoms: O_4  and  C_5
REMARK    4  A    between atoms: C_5  and  C_6
REMARK    5  A    between atoms: C_5  and  C_10
REMARK    6  A    between atoms: C_6  and  C_7
REMARK    7  A    between atoms: C_14  and  C_15
REMARK    8  A    between atoms: C_15  and  O_16
REMARK    9  A    between atoms: C_17  and  O_18
REMARK   10  A    between atoms: C_19  and  O_20
REMARK                            x       y       z     vdW  Elec       q    Type
REMARK                         _______ _______ _______ _____ _____    ______ ____
ROOT
ATOM      1  C   UNL     1      -0.138   0.086  -2.106  0.00  0.00    +0.000 C 
ATOM      2  C   UNL     1       0.509  -0.597  -0.881  0.00  0.00    +0.000 C 
ATOM      3  O   UNL     1      -0.108  -0.171   0.327  0.00  0.00    +0.000 OA
ATOM      4  C   UNL     1       0.046   1.225   0.537  0.00  0.00    +0.000 C 
ATOM      5  C   UNL     1      -0.664   2.030  -0.577  0.00  0.00    +0.000 C 
ATOM      6  C   UNL     1      -0.090   1.620  -1.943  0.00  0.00    +0.000 C 
ENDROOT
BRANCH   1   7
ATOM      7  N   UNL     1       0.550  -0.319  -3.334  0.00  0.00    +0.000 NA
ATOM      8  H   UNL     1       0.461  -1.357  -3.433  0.00  0.00    +0.000 HD
ATOM      9  H   UNL     1       0.039   0.087  -4.151  0.00  0.00    +0.000 HD
ENDBRANCH   1   7
BRANCH   5  10
ATOM     10  O   UNL     1      -0.455   3.408  -0.392  0.00  0.00    +0.000 OA
ATOM     11  H   UNL     1      -1.225   3.753   0.130  0.00  0.00    +0.000 HD
ENDBRANCH   5  10
BRANCH   6  12
ATOM     12  O   UNL     1      -0.782   2.264  -2.985  0.00  0.00    +0.000 OA
ATOM     13  H   UNL     1      -1.728   1.962  -2.952  0.00  0.00    +0.000 HD
ENDBRANCH   6  12
BRANCH   2  14
ATOM     14  O   UNL     1       1.910  -0.362  -0.863  0.00  0.00    +0.000 OA
BRANCH  14  15
ATOM     15  C   UNL     1       2.568  -1.195   0.082  0.00  0.00    +0.000 C 
BRANCH  15  16
ATOM     16  C   UNL     1       3.259  -0.328   1.093  0.00  0.00    +0.000 C 
ATOM     17  O   UNL     1       3.969   0.644   0.720  0.00  0.00    +0.000 OA
ATOM     18  O   UNL     1       3.137  -0.607   2.448  0.00  0.00    +0.000 OA
ENDBRANCH  15  16
BRANCH  15  19
ATOM     19  C   UNL     1       3.605  -2.068  -0.639  0.00  0.00    +0.000 C 
BRANCH  19  20
ATOM     20  C   UNL     1       2.946  -3.012  -1.596  0.00  0.00    +0.000 C 
ATOM     21  O   UNL     1       2.385  -4.056  -1.171  0.00  0.00    +0.000 OA
ATOM     22  O   UNL     1       2.921  -2.721  -2.954  0.00  0.00    +0.000 OA
ENDBRANCH  19  20
ENDBRANCH  15  19
ENDBRANCH  14  15
ENDBRANCH   2  14
BRANCH   4  23
ATOM     23  C   UNL     1      -0.505   1.571   1.930  0.00  0.00    +0.000 C 
BRANCH  23  24
ATOM     24  O   UNL     1      -1.882   1.315   2.011  0.00  0.00    +0.000 OA
ATOM     25  H   UNL     1      -1.984   0.336   2.139  0.00  0.00    +0.000 HD
ENDBRANCH  23  24
ENDBRANCH   4  23
TORSDOF 10
