REMARK  Name = 24139
REMARK  8 active torsions:
REMARK  status: ('A' for Active; 'I' for Inactive)
REMARK    1  A    between atoms: C_1  and  C_2
REMARK    2  A    between atoms: C_2  and  O_3
REMARK    3  A    between atoms: N_4  and  C_5
REMARK    4  A    between atoms: C_6  and  O_7
REMARK    5  A    between atoms: C_9  and  C_10
REMARK    6  A    between atoms: C_10  and  O_11
REMARK    7  A    between atoms: C_12  and  O_13
REMARK    8  A    between atoms: C_14  and  O_15
REMARK                            x       y       z     vdW  Elec       q    Type
REMARK                         _______ _______ _______ _____ _____    ______ ____
ROOT
ATOM      1  C   UNL     1       0.661   0.212  -0.431  0.00  0.00    +0.000 C 
ATOM      2  C   UNL     1      -0.260  -0.316  -1.547  0.00  0.00    +0.000 C 
ATOM      3  O   UNL     1      -1.518   0.336  -1.498  0.00  0.00    +0.000 OA
ATOM      4  C   UNL     1      -2.210  -0.007  -0.309  0.00  0.00    +0.000 C 
ATOM      5  C   UNL     1      -1.444   0.529   0.925  0.00  0.00    +0.000 C 
ATOM      6  C   UNL     1      -0.006  -0.022   0.940  0.00  0.00    +0.000 C 
ENDROOT
BRANCH   1   9
ATOM      7  C   UNL     1       4.321  -0.824  -0.212  0.00  0.00    +0.000 C 
ATOM      8  C   UNL     1       3.077  -0.005  -0.083  0.00  0.00    +0.000 C 
ATOM      9  N   UNL     1       1.946  -0.490  -0.500  0.00  0.00    +0.000 NA
BRANCH   8  10
ATOM     10  O   UNL     1       3.147   1.284   0.447  0.00  0.00    +0.000 OA
ATOM     11  H   UNL     1       4.028   1.675   0.758  0.00  0.00    +0.000 HD
ENDBRANCH   8  10
ENDBRANCH   1   9
BRANCH   2  12
ATOM     12  O   UNL     1       0.336  -0.053  -2.789  0.00  0.00    +0.000 OA
ATOM     13  H   UNL     1      -0.230  -0.499  -3.471  0.00  0.00    +0.000 HD
ENDBRANCH   2  12
BRANCH   5  14
ATOM     14  O   UNL     1      -2.107   0.205   2.123  0.00  0.00    +0.000 OA
ATOM     15  H   UNL     1      -2.182  -0.784   2.168  0.00  0.00    +0.000 HD
ENDBRANCH   5  14
BRANCH   6  16
ATOM     16  O   UNL     1       0.720   0.625   1.954  0.00  0.00    +0.000 OA
ATOM     17  H   UNL     1       1.392  -0.023   2.291  0.00  0.00    +0.000 HD
ENDBRANCH   6  16
BRANCH   4  18
ATOM     18  C   UNL     1      -3.621   0.595  -0.376  0.00  0.00    +0.000 C 
BRANCH  18  19
ATOM     19  O   UNL     1      -4.302   0.123  -1.507  0.00  0.00    +0.000 OA
ATOM     20  H   UNL     1      -4.577  -0.810  -1.305  0.00  0.00    +0.000 HD
ENDBRANCH  18  19
ENDBRANCH   4  18
TORSDOF 7
