REMARK  Name = ZINC000003956714
REMARK  9 active torsions:
REMARK  status: ('A' for Active; 'I' for Inactive)
REMARK    1  A    between atoms: C_1  and  C_2
REMARK    2  A    between atoms: N_4  and  C_5
REMARK    3  A    between atoms: C_6  and  O_7
REMARK    4  A    between atoms: O_7  and  C_8
REMARK    5  A    between atoms: C_8  and  C_9
REMARK    6  A    between atoms: C_16  and  C_17
REMARK    7  A    between atoms: C_17  and  O_18
REMARK    8  A    between atoms: C_19  and  O_20
REMARK    9  A    between atoms: C_21  and  O_22
REMARK                            x       y       z     vdW  Elec       q    Type
REMARK                         _______ _______ _______ _____ _____    ______ ____
ROOT
ATOM      1  C   UNL     1      -0.766   1.516  -0.875  0.00  0.00    +0.000 C 
ATOM      2  C   UNL     1      -1.521   0.735   0.221  0.00  0.00    +0.000 C 
ATOM      3  O   UNL     1      -1.893   1.596   1.287  0.00  0.00    +0.000 OA
ATOM      4  C   UNL     1      -0.761   2.150   1.939  0.00  0.00    +0.000 C 
ATOM      5  C   UNL     1       0.023   3.073   0.973  0.00  0.00    +0.000 C 
ATOM      6  C   UNL     1       0.431   2.312  -0.305  0.00  0.00    +0.000 C 
ENDROOT
BRANCH   1  10
ATOM      7  C   UNL     1      -0.780  -0.761  -4.040  0.00  0.00    +0.000 C 
ATOM      8  C   UNL     1      -1.213   0.265  -3.044  0.00  0.00    +0.000 C 
ATOM      9  O   UNL     1      -2.352   0.795  -3.152  0.00  0.00    +0.000 OA
ATOM     10  N   UNL     1      -0.347   0.613  -1.954  0.00  0.00    +0.000 N 
ATOM     11  H   UNL     1       0.544   0.076  -1.854  0.00  0.00    +0.000 HD
ENDBRANCH   1  10
BRANCH   5  12
ATOM     12  O   UNL     1       1.177   3.578   1.599  0.00  0.00    +0.000 OA
ATOM     13  H   UNL     1       0.946   4.471   1.967  0.00  0.00    +0.000 HD
ENDBRANCH   5  12
BRANCH   6  14
ATOM     14  O   UNL     1       1.567   1.503  -0.098  0.00  0.00    +0.000 OA
ATOM     15  H   UNL     1       1.383   0.883   0.652  0.00  0.00    +0.000 HD
ENDBRANCH   6  14
BRANCH   2  16
ATOM     16  O   UNL     1      -0.747  -0.362   0.679  0.00  0.00    +0.000 OA
BRANCH  16  17
ATOM     17  C   UNL     1      -1.558  -1.273   1.391  0.00  0.00    +0.000 C 
BRANCH  17  18
ATOM     18  C   UNL     1      -0.671  -2.279   2.063  0.00  0.00    +0.000 A 
ATOM     19  C   UNL     1      -0.087  -1.982   3.306  0.00  0.00    +0.000 A 
ATOM     20  C   UNL     1       0.776  -2.899   3.914  0.00  0.00    +0.000 A 
ATOM     21  C   UNL     1       1.072  -4.110   3.281  0.00  0.00    +0.000 A 
ATOM     22  C   UNL     1       0.509  -4.403   2.036  0.00  0.00    +0.000 A 
ATOM     23  C   UNL     1      -0.354  -3.489   1.423  0.00  0.00    +0.000 A 
ENDBRANCH  17  18
ENDBRANCH  16  17
ENDBRANCH   2  16
BRANCH   4  24
ATOM     24  C   UNL     1      -1.249   2.933   3.167  0.00  0.00    +0.000 C 
BRANCH  24  25
ATOM     25  O   UNL     1      -1.919   2.079   4.055  0.00  0.00    +0.000 OA
ATOM     26  H   UNL     1      -2.847   1.982   3.716  0.00  0.00    +0.000 HD
ENDBRANCH  24  25
ENDBRANCH   4  24
TORSDOF 8
