REMARK  Name = 202260
REMARK  14 active torsions:
REMARK  status: ('A' for Active; 'I' for Inactive)
REMARK    1  A    between atoms: C_1  and  C_2
REMARK    2  A    between atoms: C_2  and  O_4
REMARK    3  A    between atoms: O_4  and  C_5
REMARK    4  A    between atoms: C_5  and  C_6
REMARK    5  A    between atoms: C_8  and  O_9
REMARK    6  A    between atoms: O_9  and  C_10
REMARK    7  A    between atoms: C_10  and  C_11
REMARK    8  A    between atoms: C_13  and  N_14
REMARK    9  A    between atoms: C_15  and  O_16
REMARK   10  A    between atoms: O_16  and  C_17
REMARK   11  A    between atoms: C_17  and  C_18
REMARK   12  A    between atoms: C_20  and  O_21
REMARK   13  A    between atoms: O_21  and  C_22
REMARK   14  A    between atoms: C_22  and  C_23
REMARK                            x       y       z     vdW  Elec       q    Type
REMARK                         _______ _______ _______ _____ _____    ______ ____
ROOT
ATOM      1  C   UNL     1      -1.173  -1.030  -1.510  0.00  0.00    +0.000 C 
ATOM      2  O   UNL     1      -0.997  -0.178  -2.628  0.00  0.00    +0.000 OA
ATOM      3  C   UNL     1       0.326   0.327  -2.671  0.00  0.00    +0.000 C 
ATOM      4  C   UNL     1       0.581   1.253  -1.455  0.00  0.00    +0.000 C 
ATOM      5  C   UNL     1       0.326   0.467  -0.149  0.00  0.00    +0.000 C 
ATOM      6  C   UNL     1      -1.047  -0.226  -0.199  0.00  0.00    +0.000 C 
ENDROOT
BRANCH   4   7
ATOM      7  N   UNL     1       1.954   1.765  -1.481  0.00  0.00    +0.000 NA
ATOM      8  H   UNL     1       2.093   2.393  -0.657  0.00  0.00    +0.000 HD
ATOM      9  H   UNL     1       2.057   2.397  -2.307  0.00  0.00    +0.000 HD
ENDBRANCH   4   7
BRANCH   1  10
ATOM     10  C   UNL     1      -2.546  -1.703  -1.623  0.00  0.00    +0.000 C 
BRANCH  10  11
ATOM     11  O   UNL     1      -3.579  -0.722  -1.649  0.00  0.00    +0.000 OA
BRANCH  11  13
ATOM     12  C   UNL     1      -5.957   0.029  -1.730  0.00  0.00    +0.000 C 
ATOM     13  C   UNL     1      -4.934  -1.054  -1.737  0.00  0.00    +0.000 C 
ATOM     14  O   UNL     1      -5.300  -2.260  -1.779  0.00  0.00    +0.000 OA
ENDBRANCH  11  13
ENDBRANCH  10  11
ENDBRANCH   1  10
BRANCH   3  15
ATOM     15  O   UNL     1       0.466   1.063  -3.887  0.00  0.00    +0.000 OA
BRANCH  15  16
ATOM     16  C   UNL     1       1.639   1.106  -4.651  0.00  0.00    +0.000 C 
ATOM     17  C   UNL     1       1.668   1.912  -5.904  0.00  0.00    +0.000 C 
ATOM     18  O   UNL     1       2.657   0.442  -4.314  0.00  0.00    +0.000 OA
ENDBRANCH  15  16
ENDBRANCH   3  15
BRANCH   5  19
ATOM     19  O   UNL     1       0.354   1.353   0.973  0.00  0.00    +0.000 OA
BRANCH  19  20
ATOM     20  C   UNL     1       1.441   1.481   1.846  0.00  0.00    +0.000 C 
ATOM     21  C   UNL     1       1.335   2.405   3.011  0.00  0.00    +0.000 C 
ATOM     22  O   UNL     1       2.486   0.794   1.688  0.00  0.00    +0.000 OA
ENDBRANCH  19  20
ENDBRANCH   5  19
BRANCH   6  23
ATOM     23  O   UNL     1      -1.185  -1.111   0.915  0.00  0.00    +0.000 OA
BRANCH  23  24
ATOM     24  C   UNL     1      -1.603  -0.704   2.187  0.00  0.00    +0.000 C 
ATOM     25  C   UNL     1      -1.644  -1.698   3.297  0.00  0.00    +0.000 C 
ATOM     26  O   UNL     1      -1.994   0.477   2.393  0.00  0.00    +0.000 OA
ENDBRANCH  23  24
ENDBRANCH   6  23
TORSDOF 10
