REMARK  Name = 312829
REMARK  16 active torsions:
REMARK  status: ('A' for Active; 'I' for Inactive)
REMARK    1  A    between atoms: O_2  and  C_3
REMARK    2  A    between atoms: C_3  and  C_47
REMARK    3  A    between atoms: N_4  and  C_5
REMARK    4  A    between atoms: C_7  and  O_9
REMARK    5  A    between atoms: O_9  and  C_10
REMARK    6  A    between atoms: C_10  and  C_12
REMARK    7  A    between atoms: C_17  and  C_19
REMARK    8  A    between atoms: C_19  and  O_22
REMARK    9  A    between atoms: O_22  and  C_23
REMARK   10  A    between atoms: C_23  and  C_25
REMARK   11  A    between atoms: C_29  and  O_31
REMARK   12  A    between atoms: O_31  and  C_32
REMARK   13  A    between atoms: C_32  and  C_34
REMARK   14  A    between atoms: C_38  and  O_40
REMARK   15  A    between atoms: O_40  and  C_41
REMARK   16  A    between atoms: C_41  and  C_43
REMARK                            x       y       z     vdW  Elec       q    Type
REMARK                         _______ _______ _______ _____ _____    ______ ____
ROOT
ATOM      1  C   UNL     1       1.581   0.090   0.969  0.00  0.00    +0.000 C 
ATOM      2  C   UNL     1       0.561   0.925   1.769  0.00  0.00    +0.000 C 
ATOM      3  O   UNL     1      -0.223   1.746   0.913  0.00  0.00    +0.000 OA
ATOM      4  C   UNL     1      -0.977   0.969  -0.004  0.00  0.00    +0.000 C 
ATOM      5  C   UNL     1      -0.041   0.192  -0.957  0.00  0.00    +0.000 C 
ATOM      6  C   UNL     1       0.874  -0.732  -0.128  0.00  0.00    +0.000 C 
ENDROOT
BRANCH   1   8
ATOM      7  C   UNL     1       3.438  -1.379   1.582  0.00  0.00    +0.000 C 
ATOM      8  N   UNL     1       2.321  -0.786   1.880  0.00  0.00    +0.000 NA
ATOM      9  C   UNL     1       4.102  -2.251   2.599  0.00  0.00    +0.000 C 
BRANCH   7  11
ATOM     10  H   UNL     1       4.920  -1.624   0.106  0.00  0.00    +0.000 HD
ATOM     11  O   UNL     1       4.040  -1.180   0.340  0.00  0.00    +0.000 OA
ENDBRANCH   7  11
ENDBRANCH   1   8
BRANCH   2  12
ATOM     12  O   UNL     1      -0.265   0.082   2.579  0.00  0.00    +0.000 OA
BRANCH  12  13
ATOM     13  C   UNL     1      -1.198   0.579   3.494  0.00  0.00    +0.000 C 
ATOM     14  O   UNL     1      -1.320   1.819   3.683  0.00  0.00    +0.000 OA
ATOM     15  C   UNL     1      -2.035  -0.373   4.277  0.00  0.00    +0.000 C 
ENDBRANCH  12  13
ENDBRANCH   2  12
BRANCH   4  16
ATOM     16  C   UNL     1      -1.917   1.904  -0.781  0.00  0.00    +0.000 C 
BRANCH  16  17
ATOM     17  O   UNL     1      -2.711   1.178  -1.720  0.00  0.00    +0.000 OA
BRANCH  17  18
ATOM     18  C   UNL     1      -3.781   0.356  -1.351  0.00  0.00    +0.000 C 
ATOM     19  O   UNL     1      -4.179   0.308  -0.156  0.00  0.00    +0.000 OA
ATOM     20  C   UNL     1      -4.496  -0.429  -2.398  0.00  0.00    +0.000 C 
ENDBRANCH  17  18
ENDBRANCH  16  17
ENDBRANCH   4  16
BRANCH   5  21
ATOM     21  O   UNL     1       0.747   1.114  -1.715  0.00  0.00    +0.000 OA
BRANCH  21  22
ATOM     22  C   UNL     1       1.441   0.763  -2.878  0.00  0.00    +0.000 C 
ATOM     23  O   UNL     1       1.376  -0.407  -3.342  0.00  0.00    +0.000 OA
ATOM     24  C   UNL     1       2.300   1.777  -3.553  0.00  0.00    +0.000 C 
ENDBRANCH  21  22
ENDBRANCH   5  21
BRANCH   6  25
ATOM     25  O   UNL     1       0.109  -1.780   0.475  0.00  0.00    +0.000 OA
BRANCH  25  26
ATOM     26  C   UNL     1      -0.408  -2.869  -0.234  0.00  0.00    +0.000 C 
ATOM     27  O   UNL     1      -0.133  -3.036  -1.454  0.00  0.00    +0.000 OA
ATOM     28  C   UNL     1      -1.249  -3.871   0.478  0.00  0.00    +0.000 C 
ENDBRANCH  25  26
ENDBRANCH   6  25
TORSDOF 11
