REMARK  Name = ZINC000004027857
REMARK  5 active torsions:
REMARK  status: ('A' for Active; 'I' for Inactive)
REMARK    1  A    between atoms: C_1  and  C_2
REMARK    2  A    between atoms: N_4  and  C_5
REMARK    3  A    between atoms: C_6  and  O_7
REMARK    4  A    between atoms: C_10  and  C_11
REMARK    5  A    between atoms: C_21  and  O_22
REMARK                            x       y       z     vdW  Elec       q    Type
REMARK                         _______ _______ _______ _____ _____    ______ ____
ROOT
ATOM      1  C   UNL     1      -0.299   0.941   1.481  0.00  0.00    +0.000 C 
ATOM      2  C   UNL     1      -0.065   1.594   0.102  0.00  0.00    +0.000 C 
ATOM      3  C   UNL     1      -0.284   0.543  -0.998  0.00  0.00    +0.000 C 
ATOM      4  O   UNL     1      -0.204   1.139  -2.279  0.00  0.00    +0.000 OA
ATOM      5  C   UNL     1      -0.419   0.180  -3.312  0.00  0.00    +0.000 C 
ATOM      6  O   UNL     1      -1.675  -0.484  -3.188  0.00  0.00    +0.000 OA
ATOM      7  C   UNL     1      -1.814  -1.121  -1.932  0.00  0.00    +0.000 C 
ATOM      8  C   UNL     1      -1.652  -0.114  -0.805  0.00  0.00    +0.000 C 
ATOM      9  O   UNL     1      -1.712  -0.768   0.450  0.00  0.00    +0.000 OA
ATOM     10  C   UNL     1      -1.654   0.189   1.498  0.00  0.00    +0.000 C 
ENDROOT
BRANCH   5  11
ATOM     11  C   UNL     1       0.754  -0.770  -3.514  0.00  0.00    +0.000 A 
ATOM     12  C   UNL     1       0.562  -2.023  -4.126  0.00  0.00    +0.000 A 
ATOM     13  C   UNL     1       1.649  -2.871  -4.363  0.00  0.00    +0.000 A 
ATOM     14  C   UNL     1       2.941  -2.467  -4.018  0.00  0.00    +0.000 A 
ATOM     15  C   UNL     1       3.150  -1.210  -3.447  0.00  0.00    +0.000 A 
ATOM     16  C   UNL     1       2.066  -0.359  -3.208  0.00  0.00    +0.000 A 
ENDBRANCH   5  11
BRANCH   1  20
ATOM     17  C   UNL     1       0.956   3.595   4.048  0.00  0.00    +0.000 C 
ATOM     18  C   UNL     1       0.975   2.547   2.984  0.00  0.00    +0.000 C 
ATOM     19  O   UNL     1       2.078   2.166   2.505  0.00  0.00    +0.000 OA
ATOM     20  N   UNL     1      -0.254   1.954   2.542  0.00  0.00    +0.000 N 
ATOM     21  H   UNL     1      -1.140   2.246   3.014  0.00  0.00    +0.000 HD
ENDBRANCH   1  20
BRANCH   2  22
ATOM     22  O   UNL     1      -0.946   2.678  -0.068  0.00  0.00    +0.000 OA
ATOM     23  H   UNL     1      -0.543   3.273  -0.752  0.00  0.00    +0.000 HD
ENDBRANCH   2  22
BRANCH  10  24
ATOM     24  O   UNL     1      -1.786  -0.476   2.724  0.00  0.00    +0.000 OA
ATOM     25  H   UNL     1      -2.706  -0.850   2.743  0.00  0.00    +0.000 HD
ENDBRANCH  10  24
TORSDOF 4
