REMARK  Name = 35717
REMARK  7 active torsions:
REMARK  status: ('A' for Active; 'I' for Inactive)
REMARK    1  A    between atoms: C_1  and  C_2
REMARK    2  A    between atoms: N_4  and  C_5
REMARK    3  A    between atoms: C_6  and  O_7
REMARK    4  A    between atoms: C_9  and  C_10
REMARK    5  A    between atoms: C_10  and  O_11
REMARK    6  A    between atoms: C_12  and  O_13
REMARK    7  A    between atoms: C_14  and  O_15
REMARK                            x       y       z     vdW  Elec       q    Type
REMARK                         _______ _______ _______ _____ _____    ______ ____
ROOT
ATOM      1  C   UNL     1      -0.888  -1.035  -0.325  0.00  0.00    +0.000 C 
ATOM      2  C   UNL     1      -0.856   0.432  -0.798  0.00  0.00    +0.000 C 
ATOM      3  O   UNL     1       0.443   0.988  -0.659  0.00  0.00    +0.000 OA
ATOM      4  C   UNL     1       1.406   0.330  -1.473  0.00  0.00    +0.000 C 
ATOM      5  C   UNL     1       1.494  -1.188  -1.155  0.00  0.00    +0.000 C 
ATOM      6  C   UNL     1       0.112  -1.869  -1.150  0.00  0.00    +0.000 C 
ENDROOT
BRANCH   1  10
ATOM      7  C   UNL     1      -0.514  -2.340   3.333  0.00  0.00    +0.000 C 
ATOM      8  C   UNL     1      -0.886  -2.291   1.887  0.00  0.00    +0.000 C 
ATOM      9  O   UNL     1      -1.502  -3.262   1.369  0.00  0.00    +0.000 OA
ATOM     10  N   UNL     1      -0.572  -1.129   1.107  0.00  0.00    +0.000 N 
ATOM     11  H   UNL     1      -0.120  -0.320   1.591  0.00  0.00    +0.000 HD
ENDBRANCH   1  10
BRANCH   2  12
ATOM     12  O   UNL     1      -1.757   1.177  -0.024  0.00  0.00    +0.000 OA
ATOM     13  H   UNL     1      -1.780   2.088  -0.419  0.00  0.00    +0.000 HD
ENDBRANCH   2  12
BRANCH   5  14
ATOM     14  O   UNL     1       2.362  -1.833  -2.051  0.00  0.00    +0.000 OA
ATOM     15  H   UNL     1       2.589  -2.712  -1.649  0.00  0.00    +0.000 HD
ENDBRANCH   5  14
BRANCH   6  16
ATOM     16  O   UNL     1      -0.354  -2.031  -2.466  0.00  0.00    +0.000 OA
ATOM     17  H   UNL     1      -1.089  -2.698  -2.431  0.00  0.00    +0.000 HD
ENDBRANCH   6  16
BRANCH   4  18
ATOM     18  C   UNL     1       1.234   0.687  -2.969  0.00  0.00    +0.000 C 
BRANCH  18  19
ATOM     19  O   UNL     1       2.437   0.481  -3.664  0.00  0.00    +0.000 OA
ATOM     20  H   UNL     1       2.317  -0.326  -4.229  0.00  0.00    +0.000 HD
ENDBRANCH  18  19
ENDBRANCH   4  18
TORSDOF 6
