REMARK  Name = 129618
REMARK  16 active torsions:
REMARK  status: ('A' for Active; 'I' for Inactive)
REMARK    1  A    between atoms: O_2  and  C_3
REMARK    2  A    between atoms: C_3  and  C_47
REMARK    3  A    between atoms: N_4  and  C_5
REMARK    4  A    between atoms: C_7  and  O_9
REMARK    5  A    between atoms: O_9  and  C_10
REMARK    6  A    between atoms: C_10  and  C_12
REMARK    7  A    between atoms: C_17  and  C_19
REMARK    8  A    between atoms: C_19  and  O_22
REMARK    9  A    between atoms: O_22  and  C_23
REMARK   10  A    between atoms: C_23  and  C_25
REMARK   11  A    between atoms: C_29  and  O_31
REMARK   12  A    between atoms: O_31  and  C_32
REMARK   13  A    between atoms: C_32  and  C_34
REMARK   14  A    between atoms: C_38  and  O_40
REMARK   15  A    between atoms: O_40  and  C_41
REMARK   16  A    between atoms: C_41  and  C_43
REMARK                            x       y       z     vdW  Elec       q    Type
REMARK                         _______ _______ _______ _____ _____    ______ ____
ROOT
ATOM      1  C   UNL     1      -1.160   0.543  -0.056  0.00  0.00    +0.000 C 
ATOM      2  C   UNL     1      -0.001   1.525   0.181  0.00  0.00    +0.000 C 
ATOM      3  O   UNL     1       1.108   1.174  -0.627  0.00  0.00    +0.000 OA
ATOM      4  C   UNL     1       1.642  -0.074  -0.220  0.00  0.00    +0.000 C 
ATOM      5  C   UNL     1       0.618  -1.203  -0.471  0.00  0.00    +0.000 C 
ATOM      6  C   UNL     1      -0.691  -0.889   0.278  0.00  0.00    +0.000 C 
ENDROOT
BRANCH   1   8
ATOM      7  C   UNL     1      -3.552   0.936   0.475  0.00  0.00    +0.000 C 
ATOM      8  N   UNL     1      -2.289   0.921   0.799  0.00  0.00    +0.000 NA
BRANCH   7  10
ATOM      9  H   UNL     1      -4.192   1.592   2.369  0.00  0.00    +0.000 HD
ATOM     10  O   UNL     1      -4.482   1.334   1.433  0.00  0.00    +0.000 OA
ENDBRANCH   7  10
BRANCH   7  11
ATOM     11  C   UNL     1      -4.032   0.581  -0.909  0.00  0.00    +0.000 C 
ATOM     12 CL   UNL     1      -5.801   0.352  -0.957  0.00  0.00    +0.000 Cl
ENDBRANCH   7  11
ENDBRANCH   1   8
BRANCH   2  13
ATOM     13  O   UNL     1      -0.429   2.839  -0.170  0.00  0.00    +0.000 OA
BRANCH  13  14
ATOM     14  C   UNL     1       0.365   3.973   0.022  0.00  0.00    +0.000 C 
ATOM     15  O   UNL     1       1.506   3.880   0.553  0.00  0.00    +0.000 OA
ATOM     16  C   UNL     1      -0.164   5.314  -0.358  0.00  0.00    +0.000 C 
ENDBRANCH  13  14
ENDBRANCH   2  13
BRANCH   4  17
ATOM     17  C   UNL     1       2.936  -0.328  -1.006  0.00  0.00    +0.000 C 
BRANCH  17  18
ATOM     18  O   UNL     1       3.845   0.760  -0.844  0.00  0.00    +0.000 OA
BRANCH  18  19
ATOM     19  C   UNL     1       4.582   0.982   0.324  0.00  0.00    +0.000 C 
ATOM     20  O   UNL     1       4.520   0.176   1.292  0.00  0.00    +0.000 OA
ATOM     21  C   UNL     1       5.418   2.212   0.440  0.00  0.00    +0.000 C 
ENDBRANCH  18  19
ENDBRANCH  17  18
ENDBRANCH   4  17
BRANCH   5  22
ATOM     22  O   UNL     1       1.159  -2.442  -0.006  0.00  0.00    +0.000 OA
BRANCH  22  23
ATOM     23  C   UNL     1       0.748  -3.696  -0.474  0.00  0.00    +0.000 C 
ATOM     24  O   UNL     1      -0.063  -3.796  -1.434  0.00  0.00    +0.000 OA
ATOM     25  C   UNL     1       1.329  -4.928   0.131  0.00  0.00    +0.000 C 
ENDBRANCH  22  23
ENDBRANCH   5  22
BRANCH   6  26
ATOM     26  O   UNL     1      -1.688  -1.839  -0.100  0.00  0.00    +0.000 OA
BRANCH  26  27
ATOM     27  C   UNL     1      -2.688  -2.307   0.761  0.00  0.00    +0.000 C 
ATOM     28  O   UNL     1      -2.745  -1.919   1.960  0.00  0.00    +0.000 OA
ATOM     29  C   UNL     1      -3.724  -3.241   0.239  0.00  0.00    +0.000 C 
ENDBRANCH  26  27
ENDBRANCH   6  26
TORSDOF 12
