REMARK  Name = 35717
REMARK  8 active torsions:
REMARK  status: ('A' for Active; 'I' for Inactive)
REMARK    1  A    between atoms: C_1  and  C_2
REMARK    2  A    between atoms: C_2  and  O_3
REMARK    3  A    between atoms: N_4  and  C_5
REMARK    4  A    between atoms: C_6  and  O_7
REMARK    5  A    between atoms: C_9  and  C_10
REMARK    6  A    between atoms: C_10  and  O_11
REMARK    7  A    between atoms: C_12  and  O_13
REMARK    8  A    between atoms: C_14  and  O_15
REMARK                            x       y       z     vdW  Elec       q    Type
REMARK                         _______ _______ _______ _____ _____    ______ ____
ROOT
ATOM      1  C   UNL     1      -0.935   0.579  -0.899  0.00  0.00    +0.000 C 
ATOM      2  C   UNL     1       0.456   0.592  -1.572  0.00  0.00    +0.000 C 
ATOM      3  O   UNL     1       1.481   0.818  -0.618  0.00  0.00    +0.000 OA
ATOM      4  C   UNL     1       1.560  -0.216   0.357  0.00  0.00    +0.000 C 
ATOM      5  C   UNL     1       0.221  -0.407   1.117  0.00  0.00    +0.000 C 
ATOM      6  C   UNL     1      -0.983  -0.533   0.159  0.00  0.00    +0.000 C 
ENDROOT
BRANCH   1   9
ATOM      7  C   UNL     1      -1.959   4.158  -0.082  0.00  0.00    +0.000 C 
ATOM      8  C   UNL     1      -1.729   2.900  -0.855  0.00  0.00    +0.000 C 
ATOM      9  N   UNL     1      -1.212   1.869  -0.258  0.00  0.00    +0.000 NA
BRANCH   8  10
ATOM     10  O   UNL     1      -2.108   2.831  -2.196  0.00  0.00    +0.000 OA
ATOM     11  H   UNL     1      -2.529   3.625  -2.663  0.00  0.00    +0.000 HD
ENDBRANCH   8  10
ENDBRANCH   1   9
BRANCH   2  12
ATOM     12  O   UNL     1       0.517   1.615  -2.530  0.00  0.00    +0.000 OA
ATOM     13  H   UNL     1      -0.017   1.312  -3.312  0.00  0.00    +0.000 HD
ENDBRANCH   2  12
BRANCH   5  14
ATOM     14  O   UNL     1       0.297  -1.516   1.976  0.00  0.00    +0.000 OA
ATOM     15  H   UNL     1      -0.462  -1.440   2.612  0.00  0.00    +0.000 HD
ENDBRANCH   5  14
BRANCH   6  16
ATOM     16  O   UNL     1      -0.992  -1.786  -0.477  0.00  0.00    +0.000 OA
ATOM     17  H   UNL     1      -1.375  -2.437   0.167  0.00  0.00    +0.000 HD
ENDBRANCH   6  16
BRANCH   4  18
ATOM     18  C   UNL     1       2.173  -1.520  -0.205  0.00  0.00    +0.000 C 
BRANCH  18  19
ATOM     19  O   UNL     1       3.384  -1.248  -0.858  0.00  0.00    +0.000 OA
ATOM     20  H   UNL     1       3.152  -0.950  -1.776  0.00  0.00    +0.000 HD
ENDBRANCH  18  19
ENDBRANCH   4  18
TORSDOF 7
