REMARK  Name = 57376616
REMARK  8 active torsions:
REMARK  status: ('A' for Active; 'I' for Inactive)
REMARK    1  A    between atoms: O_2  and  C_3
REMARK    2  A    between atoms: C_3  and  C_27
REMARK    3  A    between atoms: N_4  and  C_5
REMARK    4  A    between atoms: C_7  and  O_9
REMARK    5  A    between atoms: C_12  and  C_14
REMARK    6  A    between atoms: C_14  and  O_17
REMARK    7  A    between atoms: C_19  and  O_21
REMARK    8  A    between atoms: C_23  and  O_25
REMARK                            x       y       z     vdW  Elec       q    Type
REMARK                         _______ _______ _______ _____ _____    ______ ____
ROOT
ATOM      1  C   UNL     1      -1.163  -1.326   0.270  0.00  0.00    +0.000 C 
ATOM      2  C   UNL     1       0.133  -0.774   0.903  0.00  0.00    +0.000 C 
ATOM      3  O   UNL     1       1.209  -0.850  -0.019  0.00  0.00    +0.000 OA
ATOM      4  C   UNL     1       1.544  -2.204  -0.277  0.00  0.00    +0.000 C 
ATOM      5  C   UNL     1       0.377  -2.925  -1.007  0.00  0.00    +0.000 C 
ATOM      6  C   UNL     1      -0.929  -2.780  -0.197  0.00  0.00    +0.000 C 
ENDROOT
BRANCH   1   8
ATOM      7  C   UNL     1      -2.315   0.577  -0.766  0.00  0.00    +0.000 C 
ATOM      8  N   UNL     1      -1.589  -0.496  -0.862  0.00  0.00    +0.000 NA
ATOM      9  C   UNL     1      -2.680   1.330  -2.004  0.00  0.00    +0.000 C 
BRANCH   7  11
ATOM     10  H   UNL     1      -3.370   1.833   0.554  0.00  0.00    +0.000 HD
ATOM     11  O   UNL     1      -2.788   1.008   0.473  0.00  0.00    +0.000 OA
ENDBRANCH   7  11
ENDBRANCH   1   8
BRANCH   2  12
ATOM     12  O   UNL     1      -0.055   0.562   1.279  0.00  0.00    +0.000 OA
ATOM     13  H   UNL     1       0.767   0.837   1.763  0.00  0.00    +0.000 HD
ENDBRANCH   2  12
BRANCH   5  14
ATOM     14  O   UNL     1       0.211  -2.473  -2.332  0.00  0.00    +0.000 OA
ATOM     15  H   UNL     1       0.230  -1.482  -2.330  0.00  0.00    +0.000 HD
ENDBRANCH   5  14
BRANCH   6  16
ATOM     16  O   UNL     1      -2.017  -3.242  -0.957  0.00  0.00    +0.000 OA
ATOM     17  H   UNL     1      -2.774  -3.366  -0.327  0.00  0.00    +0.000 HD
ENDBRANCH   6  16
BRANCH   4  18
ATOM     18  C   UNL     1       2.845  -2.243  -1.092  0.00  0.00    +0.000 C 
BRANCH  18  19
ATOM     19  O   UNL     1       3.283  -3.564  -1.271  0.00  0.00    +0.000 OA
ATOM     20  H   UNL     1       2.877  -3.890  -2.116  0.00  0.00    +0.000 HD
ENDBRANCH  18  19
ENDBRANCH   4  18
TORSDOF 7
