REMARK  Name = 57339290
REMARK  12 active torsions:
REMARK  status: ('A' for Active; 'I' for Inactive)
REMARK    1  A    between atoms: O_2  and  C_3
REMARK    2  A    between atoms: C_3  and  C_37
REMARK    3  A    between atoms: N_4  and  C_5
REMARK    4  A    between atoms: C_7  and  O_9
REMARK    5  A    between atoms: O_9  and  C_10
REMARK    6  A    between atoms: C_10  and  C_12
REMARK    7  A    between atoms: C_10  and  C_15
REMARK    8  A    between atoms: C_15  and  C_18
REMARK    9  A    between atoms: C_22  and  C_24
REMARK   10  A    between atoms: C_24  and  O_27
REMARK   11  A    between atoms: C_29  and  O_31
REMARK   12  A    between atoms: C_33  and  O_35
REMARK                            x       y       z     vdW  Elec       q    Type
REMARK                         _______ _______ _______ _____ _____    ______ ____
ROOT
ATOM      1  C   UNL     1       1.280  -1.417  -0.921  0.00  0.00    +0.000 C 
ATOM      2  C   UNL     1       1.264  -0.023  -0.256  0.00  0.00    +0.000 C 
ATOM      3  O   UNL     1       0.406  -0.012   0.877  0.00  0.00    +0.000 OA
ATOM      4  C   UNL     1      -0.941  -0.286   0.522  0.00  0.00    +0.000 C 
ATOM      5  C   UNL     1      -1.069  -1.711  -0.066  0.00  0.00    +0.000 C 
ATOM      6  C   UNL     1      -0.151  -1.843  -1.288  0.00  0.00    +0.000 C 
ENDROOT
BRANCH   1   8
ATOM      7  C   UNL     1       3.389  -1.594  -2.213  0.00  0.00    +0.000 C 
ATOM      8  N   UNL     1       2.104  -1.394  -2.135  0.00  0.00    +0.000 NA
ATOM      9  C   UNL     1       4.228  -1.926  -1.008  0.00  0.00    +0.000 C 
BRANCH   7  11
ATOM     10  H   UNL     1       4.987  -1.665  -3.587  0.00  0.00    +0.000 HD
ATOM     11  O   UNL     1       3.993  -1.514  -3.465  0.00  0.00    +0.000 OA
ENDBRANCH   7  11
ENDBRANCH   1   8
BRANCH   5  12
ATOM     12  O   UNL     1      -2.394  -1.957  -0.466  0.00  0.00    +0.000 OA
ATOM     13  H   UNL     1      -2.844  -2.427   0.284  0.00  0.00    +0.000 HD
ENDBRANCH   5  12
BRANCH   6  14
ATOM     14  O   UNL     1      -0.159  -3.179  -1.724  0.00  0.00    +0.000 OA
ATOM     15  H   UNL     1       0.128  -3.175  -2.674  0.00  0.00    +0.000 HD
ENDBRANCH   6  14
BRANCH   2  16
ATOM     16  O   UNL     1       0.899   0.974  -1.199  0.00  0.00    +0.000 OA
BRANCH  16  17
ATOM     17  C   UNL     1       1.134   2.282  -0.695  0.00  0.00    +0.000 C 
BRANCH  17  18
ATOM     18  C   UNL     1      -0.158   3.045  -0.709  0.00  0.00    +0.000 C 
ATOM     19  O   UNL     1      -0.907   3.011  -1.721  0.00  0.00    +0.000 OA
ATOM     20  O   UNL     1      -0.522   3.816   0.388  0.00  0.00    +0.000 OA
ENDBRANCH  17  18
BRANCH  17  21
ATOM     21  C   UNL     1       2.160   3.000  -1.583  0.00  0.00    +0.000 C 
BRANCH  21  22
ATOM     22  C   UNL     1       3.494   2.322  -1.532  0.00  0.00    +0.000 C 
ATOM     23  O   UNL     1       4.209   2.405  -0.499  0.00  0.00    +0.000 OA
ATOM     24  O   UNL     1       3.941   1.584  -2.620  0.00  0.00    +0.000 OA
ENDBRANCH  21  22
ENDBRANCH  17  21
ENDBRANCH  16  17
ENDBRANCH   2  16
BRANCH   4  25
ATOM     25  C   UNL     1      -1.809  -0.129   1.775  0.00  0.00    +0.000 C 
BRANCH  25  26
ATOM     26  O   UNL     1      -1.661   1.166   2.290  0.00  0.00    +0.000 OA
ATOM     27  H   UNL     1      -2.232   1.208   3.100  0.00  0.00    +0.000 HD
ENDBRANCH  25  26
ENDBRANCH   4  25
TORSDOF 11
