REMARK  Name = 408523
REMARK  14 active torsions:
REMARK  status: ('A' for Active; 'I' for Inactive)
REMARK    1  A    between atoms: C_1  and  C_2
REMARK    2  A    between atoms: C_2  and  O_4
REMARK    3  A    between atoms: O_4  and  C_5
REMARK    4  A    between atoms: C_5  and  C_6
REMARK    5  A    between atoms: C_8  and  O_9
REMARK    6  A    between atoms: O_9  and  C_10
REMARK    7  A    between atoms: C_10  and  C_11
REMARK    8  A    between atoms: C_13  and  N_14
REMARK    9  A    between atoms: C_15  and  O_16
REMARK   10  A    between atoms: O_16  and  C_17
REMARK   11  A    between atoms: C_17  and  C_18
REMARK   12  A    between atoms: C_20  and  O_21
REMARK   13  A    between atoms: O_21  and  C_22
REMARK   14  A    between atoms: C_22  and  C_23
REMARK                            x       y       z     vdW  Elec       q    Type
REMARK                         _______ _______ _______ _____ _____    ______ ____
ROOT
ATOM      1  C   UNL     1      -0.701   0.196   0.536  0.00  0.00    +0.000 C 
ATOM      2  O   UNL     1       0.569   0.206   1.171  0.00  0.00    +0.000 OA
ATOM      3  C   UNL     1       1.625   0.139   0.222  0.00  0.00    +0.000 C 
ATOM      4  C   UNL     1       1.555  -1.168  -0.603  0.00  0.00    +0.000 C 
ATOM      5  C   UNL     1       0.174  -1.319  -1.276  0.00  0.00    +0.000 C 
ATOM      6  C   UNL     1      -0.934  -1.133  -0.220  0.00  0.00    +0.000 C 
ENDROOT
BRANCH   4   7
ATOM      7  N   UNL     1       2.643  -1.238  -1.589  0.00  0.00    +0.000 N 
ATOM      8  H   UNL     1       2.584  -0.450  -2.274  0.00  0.00    +0.000 HD
ATOM      9  H   UNL     1       2.591  -2.145  -2.107  0.00  0.00    +0.000 HD
ATOM     10  H   UNL     1       3.566  -1.194  -1.099  0.00  0.00    +0.000 HD
ENDBRANCH   4   7
BRANCH   1  11
ATOM     11  C   UNL     1      -1.789   0.447   1.588  0.00  0.00    +0.000 C 
BRANCH  11  12
ATOM     12  O   UNL     1      -1.681  -0.492   2.654  0.00  0.00    +0.000 OA
BRANCH  12  14
ATOM     13  C   UNL     1      -2.389  -1.534   4.808  0.00  0.00    +0.000 C 
ATOM     14  C   UNL     1      -2.568  -0.516   3.733  0.00  0.00    +0.000 C 
ATOM     15  O   UNL     1      -3.494   0.335   3.826  0.00  0.00    +0.000 OA
ENDBRANCH  12  14
ENDBRANCH  11  12
ENDBRANCH   1  11
BRANCH   3  16
ATOM     16  O   UNL     1       1.628   1.287  -0.631  0.00  0.00    +0.000 OA
BRANCH  16  17
ATOM     17  C   UNL     1       1.812   2.590  -0.157  0.00  0.00    +0.000 C 
ATOM     18  C   UNL     1       1.783   3.729  -1.118  0.00  0.00    +0.000 C 
ATOM     19  O   UNL     1       2.040   2.807   1.064  0.00  0.00    +0.000 OA
ENDBRANCH  16  17
ENDBRANCH   3  16
BRANCH   5  20
ATOM     20  O   UNL     1       0.032  -0.352  -2.320  0.00  0.00    +0.000 OA
BRANCH  20  21
ATOM     21  C   UNL     1      -0.941  -0.431  -3.322  0.00  0.00    +0.000 C 
ATOM     22  C   UNL     1      -1.063   0.676  -4.313  0.00  0.00    +0.000 C 
ATOM     23  O   UNL     1      -1.735  -1.409  -3.378  0.00  0.00    +0.000 OA
ENDBRANCH  20  21
ENDBRANCH   5  20
BRANCH   6  24
ATOM     24  O   UNL     1      -0.920  -2.225   0.703  0.00  0.00    +0.000 OA
BRANCH  24  25
ATOM     25  C   UNL     1      -1.445  -3.489   0.414  0.00  0.00    +0.000 C 
ATOM     26  C   UNL     1      -1.338  -4.575   1.428  0.00  0.00    +0.000 C 
ATOM     27  O   UNL     1      -1.978  -3.728  -0.704  0.00  0.00    +0.000 OA
ENDBRANCH  24  25
ENDBRANCH   6  24
TORSDOF 10
