REMARK  Name = 127132
REMARK  16 active torsions:
REMARK  status: ('A' for Active; 'I' for Inactive)
REMARK    1  A    between atoms: O_2  and  C_3
REMARK    2  A    between atoms: C_3  and  C_47
REMARK    3  A    between atoms: N_4  and  C_5
REMARK    4  A    between atoms: C_7  and  O_9
REMARK    5  A    between atoms: O_9  and  C_10
REMARK    6  A    between atoms: C_10  and  C_12
REMARK    7  A    between atoms: C_17  and  C_19
REMARK    8  A    between atoms: C_19  and  O_22
REMARK    9  A    between atoms: O_22  and  C_23
REMARK   10  A    between atoms: C_23  and  C_25
REMARK   11  A    between atoms: C_29  and  O_31
REMARK   12  A    between atoms: O_31  and  C_32
REMARK   13  A    between atoms: C_32  and  C_34
REMARK   14  A    between atoms: C_38  and  O_40
REMARK   15  A    between atoms: O_40  and  C_41
REMARK   16  A    between atoms: C_41  and  C_43
REMARK                            x       y       z     vdW  Elec       q    Type
REMARK                         _______ _______ _______ _____ _____    ______ ____
ROOT
ATOM      1  C   UNL     1      -1.532   0.271  -0.551  0.00  0.00    +0.000 C 
ATOM      2  C   UNL     1      -1.854   1.435   0.414  0.00  0.00    +0.000 C 
ATOM      3  O   UNL     1      -0.931   1.470   1.491  0.00  0.00    +0.000 OA
ATOM      4  C   UNL     1      -1.000   0.293   2.282  0.00  0.00    +0.000 C 
ATOM      5  C   UNL     1      -0.616  -0.959   1.454  0.00  0.00    +0.000 C 
ATOM      6  C   UNL     1      -1.530  -1.058   0.220  0.00  0.00    +0.000 C 
ENDROOT
BRANCH   1   8
ATOM      7  C   UNL     1      -0.002   1.311  -2.153  0.00  0.00    +0.000 C 
ATOM      8  N   UNL     1      -0.224   0.481  -1.178  0.00  0.00    +0.000 NA
ATOM      9  C   UNL     1       1.384   1.458  -2.692  0.00  0.00    +0.000 C 
BRANCH   7  11
ATOM     10  H   UNL     1      -0.870   2.741  -3.431  0.00  0.00    +0.000 HD
ATOM     11  O   UNL     1      -1.037   2.081  -2.681  0.00  0.00    +0.000 OA
ENDBRANCH   7  11
ENDBRANCH   1   8
BRANCH   2  12
ATOM     12  O   UNL     1      -3.196   1.353   0.905  0.00  0.00    +0.000 OA
BRANCH  12  13
ATOM     13  C   UNL     1      -4.324   1.634   0.125  0.00  0.00    +0.000 C 
ATOM     14  O   UNL     1      -4.204   2.072  -1.051  0.00  0.00    +0.000 OA
ATOM     15  C   UNL     1      -5.682   1.468   0.716  0.00  0.00    +0.000 C 
ENDBRANCH  12  13
ENDBRANCH   2  12
BRANCH   4  16
ATOM     16  C   UNL     1      -0.076   0.477   3.492  0.00  0.00    +0.000 C 
BRANCH  16  17
ATOM     17  O   UNL     1       1.274   0.638   3.064  0.00  0.00    +0.000 OA
BRANCH  17  18
ATOM     18  C   UNL     1       2.336   0.792   3.958  0.00  0.00    +0.000 C 
ATOM     19  O   UNL     1       2.131   0.832   5.202  0.00  0.00    +0.000 OA
ATOM     20  C   UNL     1       3.721   0.956   3.432  0.00  0.00    +0.000 C 
ENDBRANCH  17  18
ENDBRANCH  16  17
ENDBRANCH   4  16
BRANCH   5  21
ATOM     21  O   UNL     1      -0.775  -2.139   2.244  0.00  0.00    +0.000 OA
BRANCH  21  22
ATOM     22  C   UNL     1       0.283  -2.826   2.852  0.00  0.00    +0.000 C 
ATOM     23  O   UNL     1       1.476  -2.444   2.704  0.00  0.00    +0.000 OA
ATOM     24  C   UNL     1      -0.003  -4.059   3.638  0.00  0.00    +0.000 C 
ENDBRANCH  21  22
ENDBRANCH   5  21
BRANCH   6  25
ATOM     25  O   UNL     1      -1.085  -2.104  -0.649  0.00  0.00    +0.000 OA
BRANCH  25  26
ATOM     26  C   UNL     1      -1.398  -3.456  -0.466  0.00  0.00    +0.000 C 
ATOM     27  O   UNL     1      -2.212  -3.818   0.426  0.00  0.00    +0.000 OA
ATOM     28  C   UNL     1      -0.805  -4.474  -1.379  0.00  0.00    +0.000 C 
ENDBRANCH  25  26
ENDBRANCH   6  25
TORSDOF 11
