REMARK  Name = ZINC000015205949
REMARK  10 active torsions:
REMARK  status: ('A' for Active; 'I' for Inactive)
REMARK    1  A    between atoms: O_2  and  C_3
REMARK    2  A    between atoms: C_3  and  C_39
REMARK    3  A    between atoms: N_4  and  C_5
REMARK    4  A    between atoms: C_7  and  O_9
REMARK    5  A    between atoms: C_11  and  O_13
REMARK    6  A    between atoms: C_15  and  C_17
REMARK    7  A    between atoms: C_17  and  O_20
REMARK    8  A    between atoms: C_23  and  O_25
REMARK    9  A    between atoms: O_25  and  C_26
REMARK   10  A    between atoms: C_31  and  N_32
REMARK                            x       y       z     vdW  Elec       q    Type
REMARK                         _______ _______ _______ _____ _____    ______ ____
ROOT
ATOM      1  C   UNL     1      -1.534   2.079   0.884  0.00  0.00    +0.000 C 
ATOM      2  C   UNL     1      -0.614   3.307   0.950  0.00  0.00    +0.000 C 
ATOM      3  C   UNL     1       0.543   3.184  -0.062  0.00  0.00    +0.000 C 
ATOM      4  C   UNL     1       1.228   1.795   0.036  0.00  0.00    +0.000 C 
ATOM      5  O   UNL     1       0.291   0.725  -0.011  0.00  0.00    +0.000 OA
ATOM      6  C   UNL     1      -0.682   0.802   1.021  0.00  0.00    +0.000 C 
ENDROOT
BRANCH   1   8
ATOM      7  C   UNL     1      -3.428   1.500  -0.564  0.00  0.00    +0.000 C 
ATOM      8  N   UNL     1      -2.277   2.075  -0.381  0.00  0.00    +0.000 NA
ATOM      9  C   UNL     1      -4.078   1.568  -1.908  0.00  0.00    +0.000 C 
BRANCH   7  11
ATOM     10  H   UNL     1      -4.981   0.416   0.356  0.00  0.00    +0.000 HD
ATOM     11  O   UNL     1      -4.078   0.855   0.488  0.00  0.00    +0.000 OA
ENDBRANCH   7  11
ENDBRANCH   1   8
BRANCH   2  12
ATOM     12  O   UNL     1      -1.359   4.473   0.708  0.00  0.00    +0.000 OA
ATOM     13  H   UNL     1      -0.795   5.238   0.994  0.00  0.00    +0.000 HD
ENDBRANCH   2  12
BRANCH   3  14
ATOM     14  O   UNL     1       0.051   3.378  -1.365  0.00  0.00    +0.000 OA
ATOM     15  H   UNL     1       0.828   3.615  -1.936  0.00  0.00    +0.000 HD
ENDBRANCH   3  14
BRANCH   4  16
ATOM     16  C   UNL     1       2.202   1.675   1.227  0.00  0.00    +0.000 C 
BRANCH  16  17
ATOM     17  O   UNL     1       3.314   2.501   1.017  0.00  0.00    +0.000 OA
ATOM     18  H   UNL     1       3.907   2.370   1.802  0.00  0.00    +0.000 HD
ENDBRANCH  16  17
ENDBRANCH   4  16
BRANCH   6  19
ATOM     19  O   UNL     1      -1.536  -0.338   0.940  0.00  0.00    +0.000 OA
BRANCH  19  20
ATOM     20  C   UNL     1      -1.133  -1.667   1.143  0.00  0.00    +0.000 A 
ATOM     21  C   UNL     1       0.178  -2.014   1.517  0.00  0.00    +0.000 A 
ATOM     22  C   UNL     1       0.527  -3.355   1.706  0.00  0.00    +0.000 A 
ATOM     23  C   UNL     1      -0.424  -4.373   1.525  0.00  0.00    +0.000 A 
ATOM     24  C   UNL     1      -1.734  -4.020   1.153  0.00  0.00    +0.000 A 
ATOM     25  C   UNL     1      -2.081  -2.679   0.966  0.00  0.00    +0.000 A 
BRANCH  23  26
ATOM     26  N   UNL     1      -0.062  -5.752   1.720  0.00  0.00    +0.000 N 
ATOM     27  O   UNL     1      -0.903  -6.661   1.562  0.00  0.00    +0.000 OA
ATOM     28  O   UNL     1       1.221  -6.093   2.084  0.00  0.00    +0.000 OA
ENDBRANCH  23  26
ENDBRANCH  19  20
ENDBRANCH   6  19
TORSDOF 9
