REMARK  Name = ZINC000106381125
REMARK  12 active torsions:
REMARK  status: ('A' for Active; 'I' for Inactive)
REMARK    1  A    between atoms: C_1  and  C_2
REMARK    2  A    between atoms: C_2  and  C_3
REMARK    3  A    between atoms: C_3  and  C_4
REMARK    4  A    between atoms: C_3  and  C_5
REMARK    5  A    between atoms: C_3  and  O_6
REMARK    6  A    between atoms: O_6  and  C_7
REMARK    7  A    between atoms: C_9  and  C_10
REMARK    8  A    between atoms: C_10  and  O_11
REMARK    9  A    between atoms: C_12  and  O_13
REMARK   10  A    between atoms: C_14  and  O_15
REMARK   11  A    between atoms: C_16  and  N_17
REMARK   12  A    between atoms: C_18  and  C_19
REMARK                            x       y       z     vdW  Elec       q    Type
REMARK                         _______ _______ _______ _____ _____    ______ ____
ROOT
ATOM      1  C   UNL     1       0.078  -0.541  -0.016  0.00  0.00    +0.000 C 
ATOM      2  O   UNL     1       1.424  -0.892   0.258  0.00  0.00    +0.000 OA
ATOM      3  C   UNL     1       1.882  -1.888  -0.643  0.00  0.00    +0.000 C 
ATOM      4  C   UNL     1       1.919  -1.334  -2.088  0.00  0.00    +0.000 C 
ATOM      5  C   UNL     1       0.522  -0.826  -2.491  0.00  0.00    +0.000 C 
ATOM      6  C   UNL     1      -0.014   0.127  -1.401  0.00  0.00    +0.000 C 
ENDROOT
BRANCH   6   7
ATOM      7  N   UNL     1      -1.401   0.516  -1.684  0.00  0.00    +0.000 N 
ATOM      8  C   UNL     1      -1.877   1.861  -1.530  0.00  0.00    +0.000 C 
ATOM      9  C   UNL     1      -3.329   2.161  -1.709  0.00  0.00    +0.000 C 
ATOM     10  O   UNL     1      -1.087   2.789  -1.208  0.00  0.00    +0.000 OA
ATOM     11  H   UNL     1      -2.111  -0.235  -1.838  0.00  0.00    +0.000 HD
ENDBRANCH   6   7
BRANCH   4  12
ATOM     12  O   UNL     1       2.339  -2.338  -2.976  0.00  0.00    +0.000 OA
ATOM     13  H   UNL     1       2.590  -1.884  -3.823  0.00  0.00    +0.000 HD
ENDBRANCH   4  12
BRANCH   5  14
ATOM     14  O   UNL     1      -0.344  -1.923  -2.662  0.00  0.00    +0.000 OA
ATOM     15  H   UNL     1      -0.957  -1.700  -3.409  0.00  0.00    +0.000 HD
ENDBRANCH   5  14
BRANCH   1  16
ATOM     16  O   UNL     1      -0.344   0.405   0.954  0.00  0.00    +0.000 OA
BRANCH  16  17
ATOM     17  C   UNL     1      -1.037  -0.143   2.076  0.00  0.00    +0.000 C 
ATOM     18  C   UNL     1      -0.299  -1.345   2.726  0.00  0.00    +0.000 C 
ATOM     19  C   UNL     1      -2.471  -0.561   1.673  0.00  0.00    +0.000 C 
BRANCH  17  21
ATOM     20  C   UNL     1       0.171   1.593   3.564  0.00  0.00    +0.000 C 
ATOM     21  C   UNL     1      -1.171   0.999   3.121  0.00  0.00    +0.000 C 
ENDBRANCH  17  21
ENDBRANCH  16  17
ENDBRANCH   1  16
BRANCH   3  22
ATOM     22  C   UNL     1       3.269  -2.357  -0.184  0.00  0.00    +0.000 C 
BRANCH  22  23
ATOM     23  O   UNL     1       4.164  -1.279  -0.154  0.00  0.00    +0.000 OA
ATOM     24  H   UNL     1       5.033  -1.652   0.148  0.00  0.00    +0.000 HD
ENDBRANCH  22  23
ENDBRANCH   3  22
TORSDOF 8
