REMARK  Name = ZINC000013545464
REMARK  8 active torsions:
REMARK  status: ('A' for Active; 'I' for Inactive)
REMARK    1  A    between atoms: C_1  and  C_2
REMARK    2  A    between atoms: N_4  and  C_5
REMARK    3  A    between atoms: C_6  and  O_7
REMARK    4  A    between atoms: O_7  and  C_8
REMARK    5  A    between atoms: C_15  and  C_16
REMARK    6  A    between atoms: C_16  and  O_17
REMARK    7  A    between atoms: C_18  and  O_19
REMARK    8  A    between atoms: C_20  and  O_21
REMARK                            x       y       z     vdW  Elec       q    Type
REMARK                         _______ _______ _______ _____ _____    ______ ____
ROOT
ATOM      1  C   UNL     1       0.969  -0.293  -0.447  0.00  0.00    +0.000 C 
ATOM      2  C   UNL     1      -0.132  -0.489  -1.516  0.00  0.00    +0.000 C 
ATOM      3  O   UNL     1       0.357  -1.328  -2.548  0.00  0.00    +0.000 OA
ATOM      4  C   UNL     1       1.412  -0.703  -3.263  0.00  0.00    +0.000 C 
ATOM      5  C   UNL     1       2.632  -0.486  -2.326  0.00  0.00    +0.000 C 
ATOM      6  C   UNL     1       2.219   0.337  -1.088  0.00  0.00    +0.000 C 
ENDROOT
BRANCH   1  10
ATOM      7  C   UNL     1      -0.422   0.904   3.000  0.00  0.00    +0.000 C 
ATOM      8  C   UNL     1       0.165   0.012   1.956  0.00  0.00    +0.000 C 
ATOM      9  O   UNL     1       0.318  -1.214   2.205  0.00  0.00    +0.000 OA
ATOM     10  N   UNL     1       0.492   0.541   0.662  0.00  0.00    +0.000 N 
ATOM     11  H   UNL     1       0.292   1.551   0.480  0.00  0.00    +0.000 HD
ENDBRANCH   1  10
BRANCH   5  12
ATOM     12  O   UNL     1       3.713   0.125  -2.989  0.00  0.00    +0.000 OA
ATOM     13  H   UNL     1       3.374   0.941  -3.440  0.00  0.00    +0.000 HD
ENDBRANCH   5  12
BRANCH   6  14
ATOM     14  O   UNL     1       1.948   1.669  -1.454  0.00  0.00    +0.000 OA
ATOM     15  H   UNL     1       2.800   2.172  -1.378  0.00  0.00    +0.000 HD
ENDBRANCH   6  14
BRANCH   2  16
ATOM     16  O   UNL     1      -1.263  -1.143  -0.933  0.00  0.00    +0.000 OA
BRANCH  16  17
ATOM     17  C   UNL     1      -2.310  -0.536  -0.217  0.00  0.00    +0.000 A 
ATOM     18  C   UNL     1      -3.183  -1.370   0.495  0.00  0.00    +0.000 A 
ATOM     19  C   UNL     1      -4.237  -0.829   1.236  0.00  0.00    +0.000 A 
ATOM     20  C   UNL     1      -4.435   0.553   1.266  0.00  0.00    +0.000 A 
ATOM     21  C   UNL     1      -3.580   1.395   0.552  0.00  0.00    +0.000 A 
ATOM     22  C   UNL     1      -2.523   0.858  -0.191  0.00  0.00    +0.000 A 
ENDBRANCH  16  17
ENDBRANCH   2  16
BRANCH   4  23
ATOM     23  C   UNL     1       1.770  -1.606  -4.453  0.00  0.00    +0.000 C 
BRANCH  23  24
ATOM     24  O   UNL     1       2.618  -0.938  -5.350  0.00  0.00    +0.000 OA
ATOM     25  H   UNL     1       3.525  -1.324  -5.239  0.00  0.00    +0.000 HD
ENDBRANCH  23  24
ENDBRANCH   4  23
TORSDOF 7
