REMARK  Name = 54758613
REMARK  9 active torsions:
REMARK  status: ('A' for Active; 'I' for Inactive)
REMARK    1  A    between atoms: O_2  and  C_3
REMARK    2  A    between atoms: C_3  and  C_30
REMARK    3  A    between atoms: N_4  and  C_5
REMARK    4  A    between atoms: C_7  and  O_9
REMARK    5  A    between atoms: C_12  and  C_14
REMARK    6  A    between atoms: C_14  and  O_17
REMARK    7  A    between atoms: O_17  and  S_18
REMARK    8  A    between atoms: C_22  and  O_24
REMARK    9  A    between atoms: C_26  and  O_28
REMARK                            x       y       z     vdW  Elec       q    Type
REMARK                         _______ _______ _______ _____ _____    ______ ____
ROOT
ATOM      1  C   UNL     1      -1.061  -0.874  -0.869  0.00  0.00    +0.000 C 
ATOM      2  C   UNL     1      -1.431   0.409  -0.083  0.00  0.00    +0.000 C 
ATOM      3  O   UNL     1      -0.373   1.350  -0.142  0.00  0.00    +0.000 OA
ATOM      4  C   UNL     1       0.782   0.847   0.509  0.00  0.00    +0.000 C 
ATOM      5  C   UNL     1       1.339  -0.378  -0.250  0.00  0.00    +0.000 C 
ATOM      6  C   UNL     1       0.246  -1.463  -0.311  0.00  0.00    +0.000 C 
ENDROOT
BRANCH   1   8
ATOM      7  C   UNL     1      -3.155  -1.962  -1.530  0.00  0.00    +0.000 C 
ATOM      8  N   UNL     1      -2.122  -1.877  -0.746  0.00  0.00    +0.000 NA
ATOM      9  C   UNL     1      -4.184  -3.017  -1.280  0.00  0.00    +0.000 C 
BRANCH   7  11
ATOM     10  H   UNL     1      -4.134  -1.117  -3.192  0.00  0.00    +0.000 HD
ATOM     11  O   UNL     1      -3.324  -1.067  -2.586  0.00  0.00    +0.000 OA
ENDBRANCH   7  11
ENDBRANCH   1   8
BRANCH   2  12
ATOM     12  O   UNL     1      -2.568   1.002  -0.655  0.00  0.00    +0.000 OA
ATOM     13  H   UNL     1      -3.363   0.605  -0.212  0.00  0.00    +0.000 HD
ENDBRANCH   2  12
BRANCH   5  14
ATOM     14  O   UNL     1       1.724  -0.007  -1.551  0.00  0.00    +0.000 OA
ATOM     15  H   UNL     1       2.404  -0.666  -1.851  0.00  0.00    +0.000 HD
ENDBRANCH   5  14
BRANCH   6  16
ATOM     16  O   UNL     1       0.661  -2.535  -1.118  0.00  0.00    +0.000 OA
ATOM     17  H   UNL     1       1.350  -3.031  -0.602  0.00  0.00    +0.000 HD
ENDBRANCH   6  16
BRANCH   4  18
ATOM     18  C   UNL     1       1.824   1.968   0.634  0.00  0.00    +0.000 C 
BRANCH  18  19
ATOM     19  O   UNL     1       2.072   2.545  -0.626  0.00  0.00    +0.000 OA
BRANCH  19  20
ATOM     20  S   UNL     1       3.226   3.770  -0.436  0.00  0.00    +0.000 S 
ATOM     21  O   UNL     1       2.680   4.865   0.438  0.00  0.00    +0.000 OA
ATOM     22  O   UNL     1       3.554   4.341  -1.786  0.00  0.00    +0.000 OA
ATOM     23  O   UNL     1       4.631   3.149   0.246  0.00  0.00    +0.000 OA
ENDBRANCH  19  20
ENDBRANCH  18  19
ENDBRANCH   4  18
TORSDOF 8
