REMARK  Name = ZINC000106384102
REMARK  10 active torsions:
REMARK  status: ('A' for Active; 'I' for Inactive)
REMARK    1  A    between atoms: O_2  and  C_3
REMARK    2  A    between atoms: C_3  and  C_40
REMARK    3  A    between atoms: N_4  and  C_5
REMARK    4  A    between atoms: C_7  and  O_9
REMARK    5  A    between atoms: O_9  and  C_10
REMARK    6  A    between atoms: C_19  and  C_20
REMARK    7  A    between atoms: C_25  and  C_27
REMARK    8  A    between atoms: C_27  and  O_30
REMARK    9  A    between atoms: C_32  and  O_34
REMARK   10  A    between atoms: C_36  and  O_38
REMARK                            x       y       z     vdW  Elec       q    Type
REMARK                         _______ _______ _______ _____ _____    ______ ____
ROOT
ATOM      1  C   UNL     1      -0.348  -0.524   0.983  0.00  0.00    +0.000 C 
ATOM      2  C   UNL     1       0.772  -1.149   0.118  0.00  0.00    +0.000 C 
ATOM      3  O   UNL     1       0.316  -2.370  -0.437  0.00  0.00    +0.000 OA
ATOM      4  C   UNL     1       0.091  -3.339   0.574  0.00  0.00    +0.000 C 
ATOM      5  C   UNL     1      -1.072  -2.885   1.491  0.00  0.00    +0.000 C 
ATOM      6  C   UNL     1      -0.751  -1.508   2.099  0.00  0.00    +0.000 C 
ENDROOT
BRANCH   1   8
ATOM      7  C   UNL     1      -0.631   1.695   2.040  0.00  0.00    +0.000 C 
ATOM      8  N   UNL     1       0.112   0.740   1.561  0.00  0.00    +0.000 NA
ATOM      9  C   UNL     1       0.034   2.911   2.592  0.00  0.00    +0.000 C 
BRANCH   7  11
ATOM     10  H   UNL     1      -2.551   0.849   1.669  0.00  0.00    +0.000 HD
ATOM     11  O   UNL     1      -2.027   1.627   2.046  0.00  0.00    +0.000 OA
ENDBRANCH   7  11
ENDBRANCH   1   8
BRANCH   5  12
ATOM     12  O   UNL     1      -1.280  -3.812   2.528  0.00  0.00    +0.000 OA
ATOM     13  H   UNL     1      -2.038  -4.393   2.257  0.00  0.00    +0.000 HD
ENDBRANCH   5  12
BRANCH   6  14
ATOM     14  O   UNL     1       0.297  -1.617   3.033  0.00  0.00    +0.000 OA
ATOM     15  H   UNL     1      -0.109  -1.892   3.896  0.00  0.00    +0.000 HD
ENDBRANCH   6  14
BRANCH   2  16
ATOM     16  O   UNL     1       1.088  -0.275  -0.969  0.00  0.00    +0.000 OA
BRANCH  16  17
ATOM     17  C   UNL     1       1.915   0.865  -0.924  0.00  0.00    +0.000 A 
ATOM     18  C   UNL     1       2.755   1.152   0.172  0.00  0.00    +0.000 A 
ATOM     19  C   UNL     1       3.547   2.302   0.174  0.00  0.00    +0.000 A 
ATOM     20  C   UNL     1       3.520   3.174  -0.914  0.00  0.00    +0.000 A 
ATOM     21  C   UNL     1       2.703   2.898  -2.010  0.00  0.00    +0.000 A 
ATOM     22  C   UNL     1       1.902   1.744  -2.027  0.00  0.00    +0.000 A 
ATOM     23  C   UNL     1       1.013   1.463  -3.206  0.00  0.00    +0.000 C 
ENDBRANCH  16  17
ENDBRANCH   2  16
BRANCH   4  24
ATOM     24  C   UNL     1      -0.223  -4.677  -0.117  0.00  0.00    +0.000 C 
BRANCH  24  25
ATOM     25  O   UNL     1      -0.225  -5.737   0.801  0.00  0.00    +0.000 OA
ATOM     26  H   UNL     1       0.725  -5.929   1.017  0.00  0.00    +0.000 HD
ENDBRANCH  24  25
ENDBRANCH   4  24
TORSDOF 8
