REMARK  Name = ZINC000100656214
REMARK  10 active torsions:
REMARK  status: ('A' for Active; 'I' for Inactive)
REMARK    1  A    between atoms: O_2  and  C_3
REMARK    2  A    between atoms: C_3  and  C_40
REMARK    3  A    between atoms: N_4  and  C_5
REMARK    4  A    between atoms: C_7  and  O_9
REMARK    5  A    between atoms: C_11  and  O_13
REMARK    6  A    between atoms: C_15  and  C_17
REMARK    7  A    between atoms: C_17  and  O_20
REMARK    8  A    between atoms: C_23  and  O_25
REMARK    9  A    between atoms: O_25  and  C_26
REMARK   10  A    between atoms: C_26  and  C_29
REMARK                            x       y       z     vdW  Elec       q    Type
REMARK                         _______ _______ _______ _____ _____    ______ ____
ROOT
ATOM      1  C   UNL     1      -0.307   1.693   1.138  0.00  0.00    +0.000 C 
ATOM      2  C   UNL     1      -1.073   1.323   2.421  0.00  0.00    +0.000 C 
ATOM      3  C   UNL     1      -1.796  -0.025   2.224  0.00  0.00    +0.000 C 
ATOM      4  C   UNL     1      -0.811  -1.093   1.681  0.00  0.00    +0.000 C 
ATOM      5  O   UNL     1      -0.225  -0.639   0.473  0.00  0.00    +0.000 OA
ATOM      6  C   UNL     1       0.582   0.507   0.697  0.00  0.00    +0.000 C 
ENDROOT
BRANCH   1   8
ATOM      7  C   UNL     1       0.876   3.737   0.478  0.00  0.00    +0.000 C 
ATOM      8  N   UNL     1       0.509   2.885   1.388  0.00  0.00    +0.000 NA
ATOM      9  C   UNL     1       1.739   4.895   0.861  0.00  0.00    +0.000 C 
BRANCH   7  11
ATOM     10  H   UNL     1       0.786   4.222  -1.569  0.00  0.00    +0.000 HD
ATOM     11  O   UNL     1       0.491   3.570  -0.852  0.00  0.00    +0.000 OA
ENDBRANCH   7  11
ENDBRANCH   1   8
BRANCH   2  12
ATOM     12  O   UNL     1      -0.176   1.249   3.503  0.00  0.00    +0.000 OA
ATOM     13  H   UNL     1      -0.684   1.493   4.320  0.00  0.00    +0.000 HD
ENDBRANCH   2  12
BRANCH   3  14
ATOM     14  O   UNL     1      -2.422  -0.438   3.415  0.00  0.00    +0.000 OA
ATOM     15  H   UNL     1      -1.714  -0.734   4.045  0.00  0.00    +0.000 HD
ENDBRANCH   3  14
BRANCH   4  16
ATOM     16  C   UNL     1      -1.543  -2.413   1.403  0.00  0.00    +0.000 C 
BRANCH  16  17
ATOM     17  O   UNL     1      -0.641  -3.384   0.945  0.00  0.00    +0.000 OA
ATOM     18  H   UNL     1      -0.530  -3.234  -0.030  0.00  0.00    +0.000 HD
ENDBRANCH  16  17
ENDBRANCH   4  16
BRANCH   6  19
ATOM     19  O   UNL     1       1.219   0.846  -0.524  0.00  0.00    +0.000 OA
BRANCH  19  20
ATOM     20  C   UNL     1       2.488   0.229  -0.641  0.00  0.00    +0.000 C 
BRANCH  20  21
ATOM     21  C   UNL     1       2.364  -1.250  -0.900  0.00  0.00    +0.000 A 
ATOM     22  C   UNL     1       2.720  -2.179   0.092  0.00  0.00    +0.000 A 
ATOM     23  C   UNL     1       2.582  -3.550  -0.146  0.00  0.00    +0.000 A 
ATOM     24  C   UNL     1       2.082  -4.002  -1.371  0.00  0.00    +0.000 A 
ATOM     25  C   UNL     1       1.716  -3.082  -2.358  0.00  0.00    +0.000 A 
ATOM     26  C   UNL     1       1.853  -1.710  -2.124  0.00  0.00    +0.000 A 
ENDBRANCH  20  21
ENDBRANCH  19  20
ENDBRANCH   6  19
TORSDOF 9
