REMARK  Name = 52948856
REMARK  16 active torsions:
REMARK  status: ('A' for Active; 'I' for Inactive)
REMARK    1  A    between atoms: C_1  and  O_2
REMARK    2  A    between atoms: O_2  and  C_3
REMARK    3  A    between atoms: C_3  and  C_4
REMARK    4  A    between atoms: C_6  and  O_7
REMARK    5  A    between atoms: O_7  and  C_8
REMARK    6  A    between atoms: C_8  and  C_9
REMARK    7  A    between atoms: C_9  and  C_10
REMARK    8  A    between atoms: C_16  and  N_17
REMARK    9  A    between atoms: N_17  and  C_18
REMARK   10  A    between atoms: C_18  and  C_19
REMARK   11  A    between atoms: C_19  and  C_20
REMARK   12  A    between atoms: C_20  and  N_21
REMARK   13  A    between atoms: C_22  and  O_23
REMARK   14  A    between atoms: O_23  and  C_24
REMARK   15  A    between atoms: C_24  and  C_25
REMARK   16  A    between atoms: C_35  and  O_36
REMARK                            x       y       z     vdW  Elec       q    Type
REMARK                         _______ _______ _______ _____ _____    ______ ____
ROOT
ATOM      1  C   UNL     1      -1.897  -0.367  -3.834  0.00  0.00    +0.000 C 
ATOM      2  O   UNL     1      -1.704   0.875  -3.179  0.00  0.00    +0.000 OA
ATOM      3  C   UNL     1      -0.447   0.913  -2.525  0.00  0.00    +0.000 C 
ATOM      4  C   UNL     1      -0.405  -0.125  -1.391  0.00  0.00    +0.000 C 
ATOM      5  C   UNL     1      -0.674  -1.536  -1.961  0.00  0.00    +0.000 C 
ATOM      6  C   UNL     1      -1.963  -1.518  -2.802  0.00  0.00    +0.000 C 
ENDROOT
BRANCH   4   7
ATOM      7  N   UNL     1       0.912  -0.046  -0.719  0.00  0.00    +0.000 NA
ATOM      8  H   UNL     1       1.478  -0.910  -0.887  0.00  0.00    +0.000 HD
BRANCH   7   9
ATOM      9  C   UNL     1       0.779   0.162   0.728  0.00  0.00    +0.000 C 
BRANCH   9  10
ATOM     10  C   UNL     1       2.166   0.284   1.372  0.00  0.00    +0.000 C 
BRANCH  10  11
ATOM     11  C   UNL     1       2.076   0.611   2.866  0.00  0.00    +0.000 C 
BRANCH  11  12
ATOM     12  N   UNL     1       1.548  -0.527   3.614  0.00  0.00    +0.000 NA
ATOM     13  H   UNL     1       1.400  -0.215   4.601  0.00  0.00    +0.000 HD
ATOM     14  H   UNL     1       2.283  -1.271   3.647  0.00  0.00    +0.000 HD
ENDBRANCH  11  12
ENDBRANCH  10  11
ENDBRANCH   9  10
ENDBRANCH   7   9
ENDBRANCH   4   7
BRANCH   6  15
ATOM     15  O   UNL     1      -2.102  -2.746  -3.473  0.00  0.00    +0.000 OA
ATOM     16  H   UNL     1      -2.632  -3.343  -2.880  0.00  0.00    +0.000 HD
ENDBRANCH   6  15
BRANCH   1  17
ATOM     17  C   UNL     1      -3.184  -0.283  -4.672  0.00  0.00    +0.000 C 
BRANCH  17  19
ATOM     18  C   UNL     1      -4.816   1.220  -3.968  0.00  0.00    +0.000 C 
ATOM     19  O   UNL     1      -4.314  -0.092  -3.838  0.00  0.00    +0.000 OA
ENDBRANCH  17  19
ENDBRANCH   1  17
BRANCH   3  20
ATOM     20  O   UNL     1      -0.284   2.190  -1.941  0.00  0.00    +0.000 OA
BRANCH  20  21
ATOM     21  C   UNL     1       0.284   3.096  -2.865  0.00  0.00    +0.000 C 
BRANCH  21  22
ATOM     22  C   UNL     1       0.424   4.469  -2.207  0.00  0.00    +0.000 C 
BRANCH  22  23
ATOM     23  C   UNL     1       1.304   4.392  -0.986  0.00  0.00    +0.000 A 
ATOM     24  C   UNL     1       0.741   4.177   0.282  0.00  0.00    +0.000 A 
ATOM     25  C   UNL     1       1.563   4.041   1.403  0.00  0.00    +0.000 A 
ATOM     26  C   UNL     1       2.952   4.102   1.266  0.00  0.00    +0.000 A 
ATOM     27  C   UNL     1       3.521   4.308   0.007  0.00  0.00    +0.000 A 
ATOM     28  C   UNL     1       2.701   4.453  -1.117  0.00  0.00    +0.000 A 
ENDBRANCH  22  23
ENDBRANCH  21  22
ENDBRANCH  20  21
ENDBRANCH   3  20
BRANCH   5  29
ATOM     29  O   UNL     1      -0.835  -2.439  -0.877  0.00  0.00    +0.000 OA
BRANCH  29  30
ATOM     30  C   UNL     1       0.005  -3.564  -1.020  0.00  0.00    +0.000 C 
BRANCH  30  31
ATOM     31  C   UNL     1      -0.115  -4.413   0.211  0.00  0.00    +0.000 A 
ATOM     32  C   UNL     1      -1.012  -5.494   0.246  0.00  0.00    +0.000 A 
ATOM     33  C   UNL     1      -1.144  -6.267   1.404  0.00  0.00    +0.000 A 
ATOM     34  C   UNL     1      -0.390  -5.961   2.546  0.00  0.00    +0.000 A 
ATOM     35  C   UNL     1      -0.510  -6.735   3.712  0.00  0.00    +0.000 A 
ATOM     36  C   UNL     1       0.244  -6.418   4.845  0.00  0.00    +0.000 A 
ATOM     37  C   UNL     1       1.122  -5.330   4.824  0.00  0.00    +0.000 A 
ATOM     38  C   UNL     1       1.252  -4.552   3.669  0.00  0.00    +0.000 A 
ATOM     39  C   UNL     1       0.500  -4.859   2.524  0.00  0.00    +0.000 A 
ATOM     40  C   UNL     1       0.625  -4.089   1.359  0.00  0.00    +0.000 A 
ENDBRANCH  30  31
ENDBRANCH  29  30
ENDBRANCH   5  29
TORSDOF 15
