REMARK  Name = ZINC000100815672
REMARK  9 active torsions:
REMARK  status: ('A' for Active; 'I' for Inactive)
REMARK    1  A    between atoms: C_2  and  C_22
REMARK    2  A    between atoms: N_3  and  C_4
REMARK    3  A    between atoms: C_5  and  O_6
REMARK    4  A    between atoms: C_7  and  O_8
REMARK    5  A    between atoms: C_9  and  C_10
REMARK    6  A    between atoms: C_10  and  O_11
REMARK    7  A    between atoms: C_13  and  O_14
REMARK    8  A    between atoms: O_14  and  C_15
REMARK    9  A    between atoms: C_15  and  C_16
REMARK                            x       y       z     vdW  Elec       q    Type
REMARK                         _______ _______ _______ _____ _____    ______ ____
ROOT
ATOM      1  C   UNL     1      -1.730  -0.153  -0.150  0.00  0.00    +0.000 C 
ATOM      2  C   UNL     1      -1.860  -1.575  -0.730  0.00  0.00    +0.000 C 
ATOM      3  C   UNL     1      -0.465  -2.106  -1.109  0.00  0.00    +0.000 C 
ATOM      4  C   UNL     1       0.506  -1.939   0.087  0.00  0.00    +0.000 C 
ATOM      5  O   UNL     1       0.567  -0.577   0.479  0.00  0.00    +0.000 OA
ATOM      6  C   UNL     1      -0.685  -0.136   0.981  0.00  0.00    +0.000 C 
ENDROOT
BRANCH   1   9
ATOM      7  O   UNL     1      -2.860   2.452  -0.608  0.00  0.00    +0.000 OA
ATOM      8  C   UNL     1      -3.509   1.654   0.121  0.00  0.00    +0.000 C 
ATOM      9  N   UNL     1      -3.026   0.321   0.350  0.00  0.00    +0.000 N 
ATOM     10  H   UNL     1      -3.553  -0.279   1.025  0.00  0.00    +0.000 HD
BRANCH   8  11
ATOM     11  C   UNL     1      -4.781   2.106   0.770  0.00  0.00    +0.000 C 
ATOM     12  F   UNL     1      -5.802   1.233   0.446  0.00  0.00    +0.000 F 
ATOM     13  F   UNL     1      -5.122   3.377   0.340  0.00  0.00    +0.000 F 
ATOM     14  F   UNL     1      -4.614   2.124   2.142  0.00  0.00    +0.000 F 
ENDBRANCH   8  11
ENDBRANCH   1   9
BRANCH   2  15
ATOM     15  O   UNL     1      -2.463  -2.428   0.213  0.00  0.00    +0.000 OA
ATOM     16  H   UNL     1      -2.901  -3.160  -0.294  0.00  0.00    +0.000 HD
ENDBRANCH   2  15
BRANCH   3  17
ATOM     17  O   UNL     1      -0.567  -3.459  -1.479  0.00  0.00    +0.000 OA
ATOM     18  H   UNL     1       0.089  -3.615  -2.208  0.00  0.00    +0.000 HD
ENDBRANCH   3  17
BRANCH   4  19
ATOM     19  C   UNL     1       1.922  -2.399  -0.289  0.00  0.00    +0.000 C 
BRANCH  19  20
ATOM     20  O   UNL     1       2.792  -2.243   0.800  0.00  0.00    +0.000 OA
ATOM     21  H   UNL     1       3.100  -1.299   0.787  0.00  0.00    +0.000 HD
ENDBRANCH  19  20
ENDBRANCH   4  19
BRANCH   6  22
ATOM     22  O   UNL     1      -0.541   1.201   1.434  0.00  0.00    +0.000 OA
BRANCH  22  23
ATOM     23  C   UNL     1      -0.199   1.253   2.807  0.00  0.00    +0.000 C 
BRANCH  23  24
ATOM     24  C   UNL     1       1.226   0.823   3.040  0.00  0.00    +0.000 A 
ATOM     25  C   UNL     1       1.507  -0.396   3.682  0.00  0.00    +0.000 A 
ATOM     26  C   UNL     1       2.831  -0.800   3.876  0.00  0.00    +0.000 A 
ATOM     27  C   UNL     1       3.882   0.004   3.425  0.00  0.00    +0.000 A 
ATOM     28  C   UNL     1       3.610   1.212   2.776  0.00  0.00    +0.000 A 
ATOM     29  C   UNL     1       2.287   1.620   2.581  0.00  0.00    +0.000 A 
ENDBRANCH  23  24
ENDBRANCH  22  23
ENDBRANCH   6  22
TORSDOF 9
