REMARK  Name = ZINC000100656214
REMARK  9 active torsions:
REMARK  status: ('A' for Active; 'I' for Inactive)
REMARK    1  A    between atoms: C_1  and  C_2
REMARK    2  A    between atoms: N_4  and  C_5
REMARK    3  A    between atoms: C_6  and  O_7
REMARK    4  A    between atoms: C_8  and  O_9
REMARK    5  A    between atoms: C_10  and  C_11
REMARK    6  A    between atoms: C_11  and  O_12
REMARK    7  A    between atoms: C_14  and  O_15
REMARK    8  A    between atoms: O_15  and  C_16
REMARK    9  A    between atoms: C_16  and  C_17
REMARK                            x       y       z     vdW  Elec       q    Type
REMARK                         _______ _______ _______ _____ _____    ______ ____
ROOT
ATOM      1  C   UNL     1       0.458   1.286  -1.558  0.00  0.00    +0.000 C 
ATOM      2  C   UNL     1       0.270   2.311  -0.421  0.00  0.00    +0.000 C 
ATOM      3  C   UNL     1      -1.178   2.838  -0.428  0.00  0.00    +0.000 C 
ATOM      4  C   UNL     1      -2.175   1.651  -0.456  0.00  0.00    +0.000 C 
ATOM      5  O   UNL     1      -1.922   0.826  -1.581  0.00  0.00    +0.000 OA
ATOM      6  C   UNL     1      -0.646   0.214  -1.488  0.00  0.00    +0.000 C 
ENDROOT
BRANCH   1  10
ATOM      7  C   UNL     1       2.259   0.810  -3.995  0.00  0.00    +0.000 C 
ATOM      8  C   UNL     1       2.595   0.332  -2.616  0.00  0.00    +0.000 C 
ATOM      9  O   UNL     1       3.632  -0.366  -2.451  0.00  0.00    +0.000 OA
ATOM     10  N   UNL     1       1.784   0.658  -1.475  0.00  0.00    +0.000 N 
ATOM     11  H   UNL     1       2.071   0.237  -0.563  0.00  0.00    +0.000 HD
ENDBRANCH   1  10
BRANCH   2  12
ATOM     12  O   UNL     1       0.545   1.724   0.829  0.00  0.00    +0.000 OA
ATOM     13  H   UNL     1       1.472   1.977   1.076  0.00  0.00    +0.000 HD
ENDBRANCH   2  12
BRANCH   3  14
ATOM     14  O   UNL     1      -1.402   3.631   0.711  0.00  0.00    +0.000 OA
ATOM     15  H   UNL     1      -0.902   4.478   0.574  0.00  0.00    +0.000 HD
ENDBRANCH   3  14
BRANCH   4  16
ATOM     16  C   UNL     1      -3.629   2.142  -0.553  0.00  0.00    +0.000 C 
BRANCH  16  17
ATOM     17  O   UNL     1      -4.020   2.806   0.620  0.00  0.00    +0.000 OA
ATOM     18  H   UNL     1      -4.213   2.103   1.294  0.00  0.00    +0.000 HD
ENDBRANCH  16  17
ENDBRANCH   4  16
BRANCH   6  19
ATOM     19  O   UNL     1      -0.487  -0.656  -2.594  0.00  0.00    +0.000 OA
BRANCH  19  20
ATOM     20  C   UNL     1      -0.983  -1.948  -2.304  0.00  0.00    +0.000 C 
BRANCH  20  21
ATOM     21  C   UNL     1       0.089  -2.779  -1.653  0.00  0.00    +0.000 A 
ATOM     22  C   UNL     1       1.282  -3.049  -2.343  0.00  0.00    +0.000 A 
ATOM     23  C   UNL     1       2.296  -3.794  -1.733  0.00  0.00    +0.000 A 
ATOM     24  C   UNL     1       2.124  -4.277  -0.433  0.00  0.00    +0.000 A 
ATOM     25  C   UNL     1       0.940  -4.012   0.261  0.00  0.00    +0.000 A 
ATOM     26  C   UNL     1      -0.074  -3.262  -0.344  0.00  0.00    +0.000 A 
ENDBRANCH  20  21
ENDBRANCH  19  20
ENDBRANCH   6  19
TORSDOF 8
