REMARK  Name = ZINC000015205946
REMARK  10 active torsions:
REMARK  status: ('A' for Active; 'I' for Inactive)
REMARK    1  A    between atoms: O_2  and  C_3
REMARK    2  A    between atoms: C_3  and  C_39
REMARK    3  A    between atoms: N_4  and  C_5
REMARK    4  A    between atoms: C_7  and  O_9
REMARK    5  A    between atoms: C_11  and  O_13
REMARK    6  A    between atoms: C_15  and  C_17
REMARK    7  A    between atoms: C_17  and  O_20
REMARK    8  A    between atoms: C_23  and  O_25
REMARK    9  A    between atoms: O_25  and  C_26
REMARK   10  A    between atoms: C_35  and  N_36
REMARK                            x       y       z     vdW  Elec       q    Type
REMARK                         _______ _______ _______ _____ _____    ______ ____
ROOT
ATOM      1  C   UNL     1      -1.409   0.056   0.515  0.00  0.00    +0.000 C 
ATOM      2  C   UNL     1      -0.701   1.388   0.821  0.00  0.00    +0.000 C 
ATOM      3  C   UNL     1      -0.728   1.648   2.340  0.00  0.00    +0.000 C 
ATOM      4  C   UNL     1      -0.211   0.407   3.118  0.00  0.00    +0.000 C 
ATOM      5  O   UNL     1      -0.969  -0.744   2.776  0.00  0.00    +0.000 OA
ATOM      6  C   UNL     1      -0.843  -1.079   1.403  0.00  0.00    +0.000 C 
ENDROOT
BRANCH   1   8
ATOM      7  C   UNL     1      -1.924   0.282  -1.868  0.00  0.00    +0.000 C 
ATOM      8  N   UNL     1      -1.274  -0.290  -0.901  0.00  0.00    +0.000 NA
ATOM      9  C   UNL     1      -1.697  -0.172  -3.274  0.00  0.00    +0.000 C 
BRANCH   7  11
ATOM     10  H   UNL     1      -3.378   1.726  -2.351  0.00  0.00    +0.000 HD
ATOM     11  O   UNL     1      -2.855   1.286  -1.603  0.00  0.00    +0.000 OA
ENDBRANCH   7  11
ENDBRANCH   1   8
BRANCH   2  12
ATOM     12  O   UNL     1       0.623   1.343   0.346  0.00  0.00    +0.000 OA
ATOM     13  H   UNL     1       0.877   2.270   0.098  0.00  0.00    +0.000 HD
ENDBRANCH   2  12
BRANCH   3  14
ATOM     14  O   UNL     1      -0.006   2.814   2.655  0.00  0.00    +0.000 OA
ATOM     15  H   UNL     1       0.960   2.617   2.536  0.00  0.00    +0.000 HD
ENDBRANCH   3  14
BRANCH   4  16
ATOM     16  C   UNL     1      -0.331   0.609   4.636  0.00  0.00    +0.000 C 
BRANCH  16  17
ATOM     17  O   UNL     1       0.597   1.559   5.090  0.00  0.00    +0.000 OA
ATOM     18  H   UNL     1       0.090   2.386   5.303  0.00  0.00    +0.000 HD
ENDBRANCH  16  17
ENDBRANCH   4  16
BRANCH   6  19
ATOM     19  O   UNL     1       0.524  -1.389   1.091  0.00  0.00    +0.000 OA
BRANCH  19  20
ATOM     20  C   UNL     1       0.996  -2.165   0.014  0.00  0.00    +0.000 A 
ATOM     21  C   UNL     1       0.127  -2.949  -0.775  0.00  0.00    +0.000 A 
ATOM     22  C   UNL     1       0.620  -3.715  -1.832  0.00  0.00    +0.000 A 
ATOM     23  C   UNL     1       1.982  -3.722  -2.114  0.00  0.00    +0.000 A 
ATOM     24  C   UNL     1       2.860  -2.963  -1.341  0.00  0.00    +0.000 A 
ATOM     25  C   UNL     1       2.387  -2.176  -0.273  0.00  0.00    +0.000 A 
BRANCH  25  26
ATOM     26  N   UNL     1       3.329  -1.401   0.499  0.00  0.00    +0.000 N 
ATOM     27  O   UNL     1       2.946  -0.554   1.332  0.00  0.00    +0.000 OA
ATOM     28  O   UNL     1       4.683  -1.557   0.302  0.00  0.00    +0.000 OA
ENDBRANCH  25  26
ENDBRANCH  19  20
ENDBRANCH   6  19
TORSDOF 9
