REMARK  Name = 52944904
REMARK  15 active torsions:
REMARK  status: ('A' for Active; 'I' for Inactive)
REMARK    1  A    between atoms: C_1  and  O_2
REMARK    2  A    between atoms: O_2  and  C_3
REMARK    3  A    between atoms: C_3  and  C_4
REMARK    4  A    between atoms: C_6  and  O_7
REMARK    5  A    between atoms: O_7  and  C_8
REMARK    6  A    between atoms: C_8  and  C_9
REMARK    7  A    between atoms: C_9  and  C_10
REMARK    8  A    between atoms: C_16  and  N_17
REMARK    9  A    between atoms: N_17  and  C_18
REMARK   10  A    between atoms: C_18  and  C_19
REMARK   11  A    between atoms: C_19  and  N_20
REMARK   12  A    between atoms: C_21  and  O_22
REMARK   13  A    between atoms: O_22  and  C_23
REMARK   14  A    between atoms: C_23  and  C_24
REMARK   15  A    between atoms: C_34  and  O_35
REMARK                            x       y       z     vdW  Elec       q    Type
REMARK                         _______ _______ _______ _____ _____    ______ ____
ROOT
ATOM      1  C   UNL     1      -1.411  -0.822   3.574  0.00  0.00    +0.000 C 
ATOM      2  O   UNL     1      -1.679  -1.825   2.605  0.00  0.00    +0.000 OA
ATOM      3  C   UNL     1      -1.327  -1.411   1.293  0.00  0.00    +0.000 C 
ATOM      4  C   UNL     1      -2.166  -0.172   0.864  0.00  0.00    +0.000 C 
ATOM      5  C   UNL     1      -1.974   0.974   1.889  0.00  0.00    +0.000 C 
ATOM      6  C   UNL     1      -2.264   0.439   3.304  0.00  0.00    +0.000 C 
ENDROOT
BRANCH   4   7
ATOM      7  N   UNL     1      -1.838   0.292  -0.505  0.00  0.00    +0.000 N 
ATOM      8  H   UNL     1      -0.803   0.369  -0.614  0.00  0.00    +0.000 HD
ATOM      9  H   UNL     1      -2.254   1.241  -0.644  0.00  0.00    +0.000 HD
BRANCH   7  10
ATOM     10  C   UNL     1      -2.398  -0.579  -1.555  0.00  0.00    +0.000 C 
BRANCH  10  11
ATOM     11  C   UNL     1      -2.061  -0.054  -2.964  0.00  0.00    +0.000 C 
BRANCH  11  12
ATOM     12  N   UNL     1      -0.662  -0.297  -3.321  0.00  0.00    +0.000 N 
ATOM     13  H   UNL     1      -0.438  -1.315  -3.239  0.00  0.00    +0.000 HD
ATOM     14  H   UNL     1      -0.507   0.002  -4.311  0.00  0.00    +0.000 HD
ATOM     15  H   UNL     1      -0.021   0.256  -2.708  0.00  0.00    +0.000 HD
ENDBRANCH  11  12
ENDBRANCH  10  11
ENDBRANCH   7  10
ENDBRANCH   4   7
BRANCH   6  16
ATOM     16  O   UNL     1      -1.974   1.427   4.260  0.00  0.00    +0.000 OA
ATOM     17  H   UNL     1      -2.719   2.082   4.229  0.00  0.00    +0.000 HD
ENDBRANCH   6  16
BRANCH   1  18
ATOM     18  C   UNL     1      -1.720  -1.401   4.965  0.00  0.00    +0.000 C 
BRANCH  18  20
ATOM     19  C   UNL     1       0.206  -2.327   5.874  0.00  0.00    +0.000 C 
ATOM     20  O   UNL     1      -0.990  -2.596   5.176  0.00  0.00    +0.000 OA
ENDBRANCH  18  20
ENDBRANCH   1  18
BRANCH   3  21
ATOM     21  O   UNL     1       0.066  -1.127   1.225  0.00  0.00    +0.000 OA
BRANCH  21  22
ATOM     22  C   UNL     1       0.718  -1.948   0.281  0.00  0.00    +0.000 C 
BRANCH  22  23
ATOM     23  C   UNL     1       2.153  -1.457   0.107  0.00  0.00    +0.000 C 
BRANCH  23  24
ATOM     24  C   UNL     1       2.871  -2.281  -0.928  0.00  0.00    +0.000 A 
ATOM     25  C   UNL     1       3.542  -3.458  -0.554  0.00  0.00    +0.000 A 
ATOM     26  C   UNL     1       4.170  -4.247  -1.523  0.00  0.00    +0.000 A 
ATOM     27  C   UNL     1       4.122  -3.875  -2.869  0.00  0.00    +0.000 A 
ATOM     28  C   UNL     1       3.446  -2.712  -3.249  0.00  0.00    +0.000 A 
ATOM     29  C   UNL     1       2.818  -1.918  -2.284  0.00  0.00    +0.000 A 
ENDBRANCH  23  24
ENDBRANCH  22  23
ENDBRANCH  21  22
ENDBRANCH   3  21
BRANCH   5  30
ATOM     30  O   UNL     1      -0.636   1.456   1.827  0.00  0.00    +0.000 OA
BRANCH  30  31
ATOM     31  C   UNL     1      -0.578   2.868   1.754  0.00  0.00    +0.000 C 
BRANCH  31  32
ATOM     32  C   UNL     1      -0.701   3.322   0.325  0.00  0.00    +0.000 A 
ATOM     33  C   UNL     1      -1.837   4.026  -0.103  0.00  0.00    +0.000 A 
ATOM     34  C   UNL     1      -1.992   4.366  -1.450  0.00  0.00    +0.000 A 
ATOM     35  C   UNL     1      -1.015   4.000  -2.387  0.00  0.00    +0.000 A 
ATOM     36  C   UNL     1      -1.172   4.315  -3.746  0.00  0.00    +0.000 A 
ATOM     37  C   UNL     1      -0.196   3.934  -4.672  0.00  0.00    +0.000 A 
ATOM     38  C   UNL     1       0.941   3.239  -4.250  0.00  0.00    +0.000 A 
ATOM     39  C   UNL     1       1.111   2.921  -2.900  0.00  0.00    +0.000 A 
ATOM     40  C   UNL     1       0.138   3.296  -1.960  0.00  0.00    +0.000 A 
ATOM     41  C   UNL     1       0.289   2.968  -0.606  0.00  0.00    +0.000 A 
ENDBRANCH  31  32
ENDBRANCH  30  31
ENDBRANCH   5  30
TORSDOF 14
