REMARK  Name = ZINC000106382965
REMARK  9 active torsions:
REMARK  status: ('A' for Active; 'I' for Inactive)
REMARK    1  A    between atoms: C_1  and  C_2
REMARK    2  A    between atoms: N_4  and  C_5
REMARK    3  A    between atoms: C_6  and  O_7
REMARK    4  A    between atoms: O_7  and  C_8
REMARK    5  A    between atoms: C_11  and  C_12
REMARK    6  A    between atoms: C_17  and  C_18
REMARK    7  A    between atoms: C_18  and  O_19
REMARK    8  A    between atoms: C_20  and  O_21
REMARK    9  A    between atoms: C_22  and  O_23
REMARK                            x       y       z     vdW  Elec       q    Type
REMARK                         _______ _______ _______ _____ _____    ______ ____
ROOT
ATOM      1  C   UNL     1       0.654  -1.696   0.524  0.00  0.00    +0.000 C 
ATOM      2  C   UNL     1       0.486  -0.237   0.058  0.00  0.00    +0.000 C 
ATOM      3  O   UNL     1       1.105  -0.056  -1.204  0.00  0.00    +0.000 OA
ATOM      4  C   UNL     1       2.511  -0.196  -1.097  0.00  0.00    +0.000 C 
ATOM      5  C   UNL     1       2.872  -1.657  -0.715  0.00  0.00    +0.000 C 
ATOM      6  C   UNL     1       2.148  -2.092   0.581  0.00  0.00    +0.000 C 
ENDROOT
BRANCH   1  10
ATOM      7  C   UNL     1      -1.915  -2.572   3.329  0.00  0.00    +0.000 C 
ATOM      8  C   UNL     1      -1.271  -2.515   1.982  0.00  0.00    +0.000 C 
ATOM      9  O   UNL     1      -1.877  -2.989   0.983  0.00  0.00    +0.000 OA
ATOM     10  N   UNL     1       0.011  -1.889   1.830  0.00  0.00    +0.000 N 
ATOM     11  H   UNL     1       0.430  -1.426   2.668  0.00  0.00    +0.000 HD
ENDBRANCH   1  10
BRANCH   5  12
ATOM     12  O   UNL     1       4.261  -1.846  -0.603  0.00  0.00    +0.000 OA
ATOM     13  H   UNL     1       4.614  -1.155   0.017  0.00  0.00    +0.000 HD
ENDBRANCH   5  12
BRANCH   6  14
ATOM     14  O   UNL     1       2.787  -1.590   1.732  0.00  0.00    +0.000 OA
ATOM     15  H   UNL     1       2.757  -0.601   1.701  0.00  0.00    +0.000 HD
ENDBRANCH   6  14
BRANCH   2  16
ATOM     16  O   UNL     1      -0.907   0.044  -0.069  0.00  0.00    +0.000 OA
BRANCH  16  17
ATOM     17  C   UNL     1      -1.448   1.303  -0.369  0.00  0.00    +0.000 A 
ATOM     18  C   UNL     1      -0.649   2.446  -0.564  0.00  0.00    +0.000 A 
ATOM     19  C   UNL     1      -1.240   3.677  -0.862  0.00  0.00    +0.000 A 
ATOM     20  C   UNL     1      -2.634   3.789  -0.969  0.00  0.00    +0.000 A 
ATOM     21  C   UNL     1      -3.431   2.649  -0.772  0.00  0.00    +0.000 A 
ATOM     22  C   UNL     1      -2.839   1.418  -0.475  0.00  0.00    +0.000 A 
BRANCH  20  23
ATOM     23  C   UNL     1      -3.238   5.097  -1.284  0.00  0.00    +0.000 C 
ATOM     24  O   UNL     1      -4.487   5.229  -1.387  0.00  0.00    +0.000 OA
ENDBRANCH  20  23
ENDBRANCH  16  17
ENDBRANCH   2  16
BRANCH   4  25
ATOM     25  C   UNL     1       3.140   0.183  -2.445  0.00  0.00    +0.000 C 
BRANCH  25  26
ATOM     26  O   UNL     1       2.785   1.492  -2.800  0.00  0.00    +0.000 OA
ATOM     27  H   UNL     1       3.326   2.098  -2.230  0.00  0.00    +0.000 HD
ENDBRANCH  25  26
ENDBRANCH   4  25
TORSDOF 8
