REMARK  Name = ZINC000100815672
REMARK  10 active torsions:
REMARK  status: ('A' for Active; 'I' for Inactive)
REMARK    1  A    between atoms: O_2  and  C_3
REMARK    2  A    between atoms: C_3  and  C_40
REMARK    3  A    between atoms: N_4  and  C_5
REMARK    4  A    between atoms: C_7  and  O_9
REMARK    5  A    between atoms: C_11  and  O_13
REMARK    6  A    between atoms: C_15  and  C_17
REMARK    7  A    between atoms: C_17  and  O_20
REMARK    8  A    between atoms: C_23  and  O_25
REMARK    9  A    between atoms: O_25  and  C_26
REMARK   10  A    between atoms: C_26  and  C_29
REMARK                            x       y       z     vdW  Elec       q    Type
REMARK                         _______ _______ _______ _____ _____    ______ ____
ROOT
ATOM      1  C   UNL     1      -2.092   0.073  -1.317  0.00  0.00    +0.000 C 
ATOM      2  C   UNL     1      -2.348   0.576  -2.752  0.00  0.00    +0.000 C 
ATOM      3  C   UNL     1      -1.563   1.877  -2.996  0.00  0.00    +0.000 C 
ATOM      4  C   UNL     1      -0.081   1.677  -2.599  0.00  0.00    +0.000 C 
ATOM      5  O   UNL     1       0.017   1.276  -1.243  0.00  0.00    +0.000 OA
ATOM      6  C   UNL     1      -0.572  -0.000  -1.050  0.00  0.00    +0.000 C 
ENDROOT
BRANCH   1   8
ATOM      7  C   UNL     1      -3.095  -1.738  -0.001  0.00  0.00    +0.000 C 
ATOM      8  N   UNL     1      -2.712  -1.243  -1.141  0.00  0.00    +0.000 NA
BRANCH   7   9
ATOM      9  C   UNL     1      -3.689  -3.113   0.055  0.00  0.00    +0.000 C 
ATOM     10  F   UNL     1      -4.971  -3.039   0.566  0.00  0.00    +0.000 F 
ATOM     11  F   UNL     1      -2.917  -3.912   0.877  0.00  0.00    +0.000 F 
ATOM     12  F   UNL     1      -3.740  -3.682  -1.207  0.00  0.00    +0.000 F 
ENDBRANCH   7   9
BRANCH   7  14
ATOM     13  H   UNL     1      -3.251  -1.377   2.068  0.00  0.00    +0.000 HD
ATOM     14  O   UNL     1      -2.963  -0.998   1.174  0.00  0.00    +0.000 OA
ENDBRANCH   7  14
ENDBRANCH   1   8
BRANCH   2  15
ATOM     15  O   UNL     1      -1.956  -0.394  -3.693  0.00  0.00    +0.000 OA
ATOM     16  H   UNL     1      -2.722  -1.015  -3.809  0.00  0.00    +0.000 HD
ENDBRANCH   2  15
BRANCH   3  17
ATOM     17  O   UNL     1      -1.653   2.248  -4.348  0.00  0.00    +0.000 OA
ATOM     18  H   UNL     1      -2.567   2.610  -4.485  0.00  0.00    +0.000 HD
ENDBRANCH   3  17
BRANCH   4  19
ATOM     19  C   UNL     1       0.737   2.964  -2.790  0.00  0.00    +0.000 C 
BRANCH  19  20
ATOM     20  O   UNL     1       0.294   3.975  -1.922  0.00  0.00    +0.000 OA
ATOM     21  H   UNL     1      -0.381   4.507  -2.419  0.00  0.00    +0.000 HD
ENDBRANCH  19  20
ENDBRANCH   4  19
BRANCH   6  22
ATOM     22  O   UNL     1      -0.373  -0.391   0.294  0.00  0.00    +0.000 OA
BRANCH  22  23
ATOM     23  C   UNL     1       0.932  -0.897   0.476  0.00  0.00    +0.000 C 
BRANCH  23  24
ATOM     24  C   UNL     1       1.103  -1.267   1.921  0.00  0.00    +0.000 A 
ATOM     25  C   UNL     1       0.526  -2.448   2.415  0.00  0.00    +0.000 A 
ATOM     26  C   UNL     1       0.646  -2.778   3.768  0.00  0.00    +0.000 A 
ATOM     27  C   UNL     1       1.333  -1.927   4.638  0.00  0.00    +0.000 A 
ATOM     28  C   UNL     1       1.897  -0.742   4.157  0.00  0.00    +0.000 A 
ATOM     29  C   UNL     1       1.778  -0.407   2.804  0.00  0.00    +0.000 A 
ENDBRANCH  23  24
ENDBRANCH  22  23
ENDBRANCH   6  22
TORSDOF 10
