REMARK  Name = ZINC000015205840
REMARK  9 active torsions:
REMARK  status: ('A' for Active; 'I' for Inactive)
REMARK    1  A    between atoms: C_1  and  C_2
REMARK    2  A    between atoms: N_4  and  C_5
REMARK    3  A    between atoms: C_6  and  O_7
REMARK    4  A    between atoms: O_7  and  C_8
REMARK    5  A    between atoms: C_13  and  N_14
REMARK    6  A    between atoms: C_18  and  C_19
REMARK    7  A    between atoms: C_19  and  O_20
REMARK    8  A    between atoms: C_21  and  O_22
REMARK    9  A    between atoms: C_23  and  O_24
REMARK                            x       y       z     vdW  Elec       q    Type
REMARK                         _______ _______ _______ _____ _____    ______ ____
ROOT
ATOM      1  C   UNL     1      -0.704   1.529  -0.142  0.00  0.00    +0.000 C 
ATOM      2  C   UNL     1       0.183   0.425   0.464  0.00  0.00    +0.000 C 
ATOM      3  O   UNL     1      -0.563  -0.574   1.152  0.00  0.00    +0.000 OA
ATOM      4  C   UNL     1      -1.586  -1.193   0.374  0.00  0.00    +0.000 C 
ATOM      5  C   UNL     1      -2.554  -0.185  -0.294  0.00  0.00    +0.000 C 
ATOM      6  C   UNL     1      -1.779   0.907  -1.046  0.00  0.00    +0.000 C 
ENDROOT
BRANCH   1  10
ATOM      7  C   UNL     1      -2.311   4.468   1.862  0.00  0.00    +0.000 C 
ATOM      8  C   UNL     1      -1.649   3.721   0.750  0.00  0.00    +0.000 C 
ATOM      9  O   UNL     1      -1.402   4.311  -0.336  0.00  0.00    +0.000 OA
ATOM     10  N   UNL     1      -1.304   2.340   0.926  0.00  0.00    +0.000 N 
ATOM     11  H   UNL     1      -1.499   1.899   1.854  0.00  0.00    +0.000 HD
ENDBRANCH   1  10
BRANCH   5  12
ATOM     12  O   UNL     1      -3.381   0.404   0.679  0.00  0.00    +0.000 OA
ATOM     13  H   UNL     1      -4.075  -0.267   0.914  0.00  0.00    +0.000 HD
ENDBRANCH   5  12
BRANCH   6  14
ATOM     14  O   UNL     1      -2.656   1.901  -1.512  0.00  0.00    +0.000 OA
ATOM     15  H   UNL     1      -3.167   1.504  -2.266  0.00  0.00    +0.000 HD
ENDBRANCH   6  14
BRANCH   2  16
ATOM     16  O   UNL     1       1.024  -0.144  -0.541  0.00  0.00    +0.000 OA
BRANCH  16  17
ATOM     17  C   UNL     1       2.110  -1.004  -0.310  0.00  0.00    +0.000 A 
ATOM     18  C   UNL     1       2.498  -1.363   0.998  0.00  0.00    +0.000 A 
ATOM     19  C   UNL     1       3.562  -2.240   1.208  0.00  0.00    +0.000 A 
ATOM     20  C   UNL     1       4.255  -2.770   0.124  0.00  0.00    +0.000 A 
ATOM     21  C   UNL     1       3.888  -2.425  -1.177  0.00  0.00    +0.000 A 
ATOM     22  C   UNL     1       2.819  -1.538  -1.415  0.00  0.00    +0.000 A 
BRANCH  22  23
ATOM     23  N   UNL     1       2.463  -1.199  -2.773  0.00  0.00    +0.000 N 
ATOM     24  O   UNL     1       2.964  -1.823  -3.731  0.00  0.00    +0.000 OA
ATOM     25  O   UNL     1       1.604  -0.160  -3.048  0.00  0.00    +0.000 OA
ENDBRANCH  22  23
ENDBRANCH  16  17
ENDBRANCH   2  16
BRANCH   4  26
ATOM     26  C   UNL     1      -1.044  -2.245  -0.611  0.00  0.00    +0.000 C 
BRANCH  26  27
ATOM     27  O   UNL     1      -0.166  -3.112   0.053  0.00  0.00    +0.000 OA
ATOM     28  H   UNL     1       0.188  -3.730  -0.638  0.00  0.00    +0.000 HD
ENDBRANCH  26  27
ENDBRANCH   4  26
TORSDOF 8
