REMARK  Name = ZINC000257346903
REMARK  12 active torsions:
REMARK  status: ('A' for Active; 'I' for Inactive)
REMARK    1  A    between atoms: O_2  and  C_3
REMARK    2  A    between atoms: C_3  and  C_39
REMARK    3  A    between atoms: N_4  and  C_5
REMARK    4  A    between atoms: C_7  and  O_9
REMARK    5  A    between atoms: O_9  and  S_10
REMARK    6  A    between atoms: S_10  and  C_13
REMARK    7  A    between atoms: C_17  and  O_19
REMARK    8  A    between atoms: C_21  and  C_23
REMARK    9  A    between atoms: C_23  and  O_26
REMARK   10  A    between atoms: C_29  and  O_31
REMARK   11  A    between atoms: O_31  and  C_32
REMARK   12  A    between atoms: C_32  and  C_35
REMARK                            x       y       z     vdW  Elec       q    Type
REMARK                         _______ _______ _______ _____ _____    ______ ____
ROOT
ATOM      1  C   UNL     1       0.409   0.899  -0.338  0.00  0.00    +0.000 C 
ATOM      2  C   UNL     1       0.837   0.174  -1.631  0.00  0.00    +0.000 C 
ATOM      3  C   UNL     1       1.401   1.199  -2.633  0.00  0.00    +0.000 C 
ATOM      4  C   UNL     1       2.479   2.073  -1.947  0.00  0.00    +0.000 C 
ATOM      5  O   UNL     1       1.933   2.728  -0.816  0.00  0.00    +0.000 OA
ATOM      6  C   UNL     1       1.562   1.789   0.180  0.00  0.00    +0.000 C 
ENDROOT
BRANCH   1   8
ATOM      7  C   UNL     1      -0.806   0.133   1.651  0.00  0.00    +0.000 C 
ATOM      8  N   UNL     1       0.034  -0.087   0.681  0.00  0.00    +0.000 NA
BRANCH   7   9
ATOM      9  C   UNL     1      -1.058  -0.930   2.657  0.00  0.00    +0.000 A 
ATOM     10  C   UNL     1      -0.804  -2.280   2.347  0.00  0.00    +0.000 A 
ATOM     11  C   UNL     1      -1.032  -3.283   3.295  0.00  0.00    +0.000 A 
ATOM     12  C   UNL     1      -1.506  -2.951   4.565  0.00  0.00    +0.000 A 
ATOM     13  C   UNL     1      -1.747  -1.615   4.892  0.00  0.00    +0.000 A 
ATOM     14  C   UNL     1      -1.521  -0.608   3.948  0.00  0.00    +0.000 A 
ENDBRANCH   7   9
BRANCH   7  16
ATOM     15  H   UNL     1      -2.204   1.548   2.396  0.00  0.00    +0.000 HD
ATOM     16  O   UNL     1      -1.465   1.364   1.730  0.00  0.00    +0.000 OA
ENDBRANCH   7  16
ENDBRANCH   1   8
BRANCH   3  17
ATOM     17  O   UNL     1       1.949   0.521  -3.735  0.00  0.00    +0.000 OA
ATOM     18  H   UNL     1       1.778   1.079  -4.538  0.00  0.00    +0.000 HD
ENDBRANCH   3  17
BRANCH   2  19
ATOM     19  O   UNL     1       1.832  -0.791  -1.328  0.00  0.00    +0.000 OA
BRANCH  19  20
ATOM     20  S   UNL     1       1.316  -2.352  -1.759  0.00  0.00    +0.000 S 
ATOM     21  O   UNL     1      -0.056  -2.630  -1.211  0.00  0.00    +0.000 OA
ATOM     22  O   UNL     1       2.278  -3.349  -1.179  0.00  0.00    +0.000 OA
ATOM     23  C   UNL     1       1.299  -2.542  -3.529  0.00  0.00    +0.000 C 
ENDBRANCH  19  20
ENDBRANCH   2  19
BRANCH   4  24
ATOM     24  C   UNL     1       3.043   3.137  -2.903  0.00  0.00    +0.000 C 
BRANCH  24  25
ATOM     25  O   UNL     1       2.028   3.976  -3.388  0.00  0.00    +0.000 OA
ATOM     26  H   UNL     1       1.829   4.630  -2.667  0.00  0.00    +0.000 HD
ENDBRANCH  24  25
ENDBRANCH   4  24
BRANCH   6  27
ATOM     27  O   UNL     1       1.111   2.492   1.321  0.00  0.00    +0.000 OA
BRANCH  27  28
ATOM     28  C   UNL     1       2.208   2.997   2.053  0.00  0.00    +0.000 C 
ATOM     29  C   UNL     1       1.689   3.824   3.219  0.00  0.00    +0.000 C 
ENDBRANCH  27  28
ENDBRANCH   6  27
TORSDOF 10
