REMARK  Name = ZINC000616582904
REMARK  10 active torsions:
REMARK  status: ('A' for Active; 'I' for Inactive)
REMARK    1  A    between atoms: C_3  and  C_4
REMARK    2  A    between atoms: C_4  and  O_7
REMARK    3  A    between atoms: O_7  and  C_8
REMARK    4  A    between atoms: C_11  and  C_13
REMARK    5  A    between atoms: C_13  and  O_16
REMARK    6  A    between atoms: C_18  and  O_20
REMARK    7  A    between atoms: C_22  and  O_24
REMARK    8  A    between atoms: C_26  and  N_28
REMARK    9  A    between atoms: C_29  and  O_30
REMARK   10  A    between atoms: C_29  and  C_32
REMARK                            x       y       z     vdW  Elec       q    Type
REMARK                         _______ _______ _______ _____ _____    ______ ____
ROOT
ATOM      1  C   UNL     1      -1.078   0.262  -0.446  0.00  0.00    +0.000 C 
ATOM      2  O   UNL     1      -0.094   0.844  -1.286  0.00  0.00    +0.000 OA
ATOM      3  C   UNL     1       0.307   2.110  -0.788  0.00  0.00    +0.000 C 
ATOM      4  C   UNL     1       1.021   1.946   0.573  0.00  0.00    +0.000 C 
ATOM      5  C   UNL     1       0.092   1.225   1.571  0.00  0.00    +0.000 C 
ATOM      6  C   UNL     1      -0.463  -0.064   0.929  0.00  0.00    +0.000 C 
ENDROOT
BRANCH   6   7
ATOM      7  N   UNL     1      -1.486  -0.669   1.787  0.00  0.00    +0.000 NA
ATOM      8  C   UNL     1      -1.279  -1.355   2.875  0.00  0.00    +0.000 C 
ATOM      9  C   UNL     1      -2.454  -1.881   3.627  0.00  0.00    +0.000 C 
BRANCH   8  10
ATOM     10  O   UNL     1       0.004  -1.636   3.351  0.00  0.00    +0.000 OA
ATOM     11  H   UNL     1       0.852  -1.350   2.879  0.00  0.00    +0.000 HD
ENDBRANCH   8  10
ENDBRANCH   6   7
BRANCH   4  12
ATOM     12  O   UNL     1       1.391   3.204   1.077  0.00  0.00    +0.000 OA
ATOM     13  H   UNL     1       2.050   3.039   1.800  0.00  0.00    +0.000 HD
ENDBRANCH   4  12
BRANCH   5  14
ATOM     14  O   UNL     1      -0.974   2.065   1.942  0.00  0.00    +0.000 OA
ATOM     15  H   UNL     1      -0.642   2.652   2.671  0.00  0.00    +0.000 HD
ENDBRANCH   5  14
BRANCH   1  16
ATOM     16  O   UNL     1      -1.524  -0.948  -1.029  0.00  0.00    +0.000 OA
BRANCH  16  17
ATOM     17  C   UNL     1      -2.395  -0.677  -2.107  0.00  0.00    +0.000 C 
BRANCH  17  19
ATOM     18  C   UNL     1      -3.058  -2.982  -3.278  0.00  0.00    +0.000 C 
ATOM     19  C   UNL     1      -2.759  -1.941  -2.749  0.00  0.00    +0.000 C 
ENDBRANCH  17  19
ENDBRANCH  16  17
ENDBRANCH   1  16
BRANCH   3  20
ATOM     20  C   UNL     1       1.242   2.762  -1.818  0.00  0.00    +0.000 C 
BRANCH  20  21
ATOM     21  O   UNL     1       0.597   2.883  -3.057  0.00  0.00    +0.000 OA
ATOM     22  H   UNL     1      -0.041   3.639  -2.973  0.00  0.00    +0.000 HD
ENDBRANCH  20  21
ENDBRANCH   3  20
TORSDOF 9
