REMARK  Name = ZINC000257347638
REMARK  9 active torsions:
REMARK  status: ('A' for Active; 'I' for Inactive)
REMARK    1  A    between atoms: O_2  and  C_3
REMARK    2  A    between atoms: C_3  and  C_47
REMARK    3  A    between atoms: N_4  and  C_5
REMARK    4  A    between atoms: C_7  and  O_9
REMARK    5  A    between atoms: O_9  and  S_10
REMARK    6  A    between atoms: S_10  and  C_13
REMARK    7  A    between atoms: C_20  and  C_22
REMARK    8  A    between atoms: C_40  and  O_42
REMARK    9  A    between atoms: O_42  and  C_43
REMARK                            x       y       z     vdW  Elec       q    Type
REMARK                         _______ _______ _______ _____ _____    ______ ____
ROOT
ATOM      1  C   UNL     1       0.518   0.435  -0.626  0.00  0.00    +0.000 C 
ATOM      2  C   UNL     1       0.366  -0.409   0.658  0.00  0.00    +0.000 C 
ATOM      3  C   UNL     1      -0.787   0.157   1.499  0.00  0.00    +0.000 C 
ATOM      4  O   UNL     1      -1.036  -0.673   2.616  0.00  0.00    +0.000 OA
ATOM      5  C   UNL     1      -2.112  -0.169   3.406  0.00  0.00    +0.000 C 
ATOM      6  O   UNL     1      -3.317  -0.023   2.658  0.00  0.00    +0.000 OA
ATOM      7  C   UNL     1      -3.142   0.812   1.529  0.00  0.00    +0.000 C 
ATOM      8  C   UNL     1      -2.042   0.266   0.633  0.00  0.00    +0.000 C 
ATOM      9  O   UNL     1      -1.813   1.142  -0.455  0.00  0.00    +0.000 OA
ATOM     10  C   UNL     1      -0.852   0.580  -1.339  0.00  0.00    +0.000 C 
ENDROOT
BRANCH   5  11
ATOM     11  C   UNL     1      -1.745   1.068   4.215  0.00  0.00    +0.000 A 
ATOM     12  C   UNL     1      -2.746   1.946   4.672  0.00  0.00    +0.000 A 
ATOM     13  C   UNL     1      -2.414   3.049   5.465  0.00  0.00    +0.000 A 
ATOM     14  C   UNL     1      -1.085   3.273   5.833  0.00  0.00    +0.000 A 
ATOM     15  C   UNL     1      -0.088   2.387   5.420  0.00  0.00    +0.000 A 
ATOM     16  C   UNL     1      -0.415   1.282   4.628  0.00  0.00    +0.000 A 
ENDBRANCH   5  11
BRANCH   1  18
ATOM     17  C   UNL     1       2.241   0.329  -2.419  0.00  0.00    +0.000 C 
ATOM     18  N   UNL     1       1.487  -0.221  -1.508  0.00  0.00    +0.000 NA
BRANCH  17  19
ATOM     19  C   UNL     1       3.140  -0.527  -3.230  0.00  0.00    +0.000 A 
ATOM     20  C   UNL     1       3.125  -1.930  -3.093  0.00  0.00    +0.000 A 
ATOM     21  C   UNL     1       3.978  -2.727  -3.864  0.00  0.00    +0.000 A 
ATOM     22  C   UNL     1       4.853  -2.137  -4.777  0.00  0.00    +0.000 A 
ATOM     23  C   UNL     1       4.876  -0.748  -4.924  0.00  0.00    +0.000 A 
ATOM     24  C   UNL     1       4.026   0.054  -4.157  0.00  0.00    +0.000 A 
ENDBRANCH  17  19
BRANCH  17  26
ATOM     25  H   UNL     1       1.671   2.367  -2.128  0.00  0.00    +0.000 HD
ATOM     26  O   UNL     1       2.234   1.710  -2.649  0.00  0.00    +0.000 OA
ENDBRANCH  17  26
ENDBRANCH   1  18
BRANCH  10  27
ATOM     27  O   UNL     1      -0.700   1.438  -2.453  0.00  0.00    +0.000 OA
ATOM     28  C   UNL     1      -1.784   1.281  -3.342  0.00  0.00    +0.000 C 
ENDBRANCH  10  27
BRANCH   2  29
ATOM     29  O   UNL     1       0.083  -1.755   0.312  0.00  0.00    +0.000 OA
BRANCH  29  30
ATOM     30  S   UNL     1       1.273  -2.791   0.936  0.00  0.00    +0.000 S 
ATOM     31  O   UNL     1       2.636  -2.381   0.452  0.00  0.00    +0.000 OA
ATOM     32  O   UNL     1       1.240  -2.768   2.439  0.00  0.00    +0.000 OA
ATOM     33  C   UNL     1       0.935  -4.442   0.372  0.00  0.00    +0.000 C 
ENDBRANCH  29  30
ENDBRANCH   2  29
TORSDOF 7
