REMARK  Name = ZINC000196304985
REMARK  8 active torsions:
REMARK  status: ('A' for Active; 'I' for Inactive)
REMARK    1  A    between atoms: C_1  and  O_2
REMARK    2  A    between atoms: O_2  and  C_3
REMARK    3  A    between atoms: C_5  and  C_6
REMARK    4  A    between atoms: C_6  and  O_7
REMARK    5  A    between atoms: C_8  and  O_9
REMARK    6  A    between atoms: C_10  and  O_11
REMARK    7  A    between atoms: C_12  and  N_13
REMARK    8  A    between atoms: C_14  and  C_15
REMARK                            x       y       z     vdW  Elec       q    Type
REMARK                         _______ _______ _______ _____ _____    ______ ____
ROOT
ATOM      1  C   UNL     1      -1.198   0.414   0.654  0.00  0.00    +0.000 C 
ATOM      2  O   UNL     1      -0.265  -0.429   1.318  0.00  0.00    +0.000 OA
ATOM      3  C   UNL     1       1.075  -0.214   0.889  0.00  0.00    +0.000 C 
ATOM      4  C   UNL     1       1.250  -0.469  -0.635  0.00  0.00    +0.000 C 
ATOM      5  C   UNL     1       0.158   0.255  -1.460  0.00  0.00    +0.000 C 
ATOM      6  C   UNL     1      -1.254   0.089  -0.853  0.00  0.00    +0.000 C 
ENDROOT
BRANCH   6   7
ATOM      7  N   UNL     1      -1.800  -1.258  -1.075  0.00  0.00    +0.000 N 
ATOM      8  C   UNL     1      -2.525  -1.613  -2.262  0.00  0.00    +0.000 C 
ATOM      9  C   UNL     1      -3.075  -2.993  -2.412  0.00  0.00    +0.000 C 
ATOM     10  O   UNL     1      -2.725  -0.761  -3.169  0.00  0.00    +0.000 OA
ATOM     11  H   UNL     1      -1.754  -1.964  -0.306  0.00  0.00    +0.000 HD
ENDBRANCH   6   7
BRANCH   1  13
ATOM     12  C   UNL     1      -2.574   0.806   2.478  0.00  0.00    +0.000 C 
ATOM     13  O   UNL     1      -2.487   0.208   1.203  0.00  0.00    +0.000 OA
ENDBRANCH   1  13
BRANCH   4  14
ATOM     14  O   UNL     1       1.285  -1.849  -0.916  0.00  0.00    +0.000 OA
ATOM     15  H   UNL     1       0.538  -2.286  -0.434  0.00  0.00    +0.000 HD
ENDBRANCH   4  14
BRANCH   5  16
ATOM     16  O   UNL     1       0.199  -0.096  -2.822  0.00  0.00    +0.000 OA
ATOM     17  H   UNL     1       0.092  -1.079  -2.896  0.00  0.00    +0.000 HD
ENDBRANCH   5  16
BRANCH   3  18
ATOM     18  C   UNL     1       1.629   1.150   1.359  0.00  0.00    +0.000 C 
BRANCH  18  19
ATOM     19  O   UNL     1       3.031   1.119   1.417  0.00  0.00    +0.000 OA
ATOM     20  H   UNL     1       3.366   1.408   0.529  0.00  0.00    +0.000 HD
ENDBRANCH  18  19
ENDBRANCH   3  18
TORSDOF 6
