REMARK  Name = ZINC000257346492
REMARK  6 active torsions:
REMARK  status: ('A' for Active; 'I' for Inactive)
REMARK    1  A    between atoms: O_2  and  C_3
REMARK    2  A    between atoms: C_8  and  C_10
REMARK    3  A    between atoms: C_10  and  C_13
REMARK    4  A    between atoms: C_31  and  O_33
REMARK    5  A    between atoms: O_33  and  C_34
REMARK    6  A    between atoms: C_38  and  N_40
REMARK                            x       y       z     vdW  Elec       q    Type
REMARK                         _______ _______ _______ _____ _____    ______ ____
ROOT
ATOM      1  C   UNL     1      -2.286   1.406  -0.212  0.00  0.00    +0.000 C 
ATOM      2  C   UNL     1      -1.297   0.391   0.426  0.00  0.00    +0.000 C 
ATOM      3  O   UNL     1      -0.848   0.803   1.702  0.00  0.00    +0.000 OA
ATOM      4  C   UNL     1       0.015  -0.169   2.297  0.00  0.00    +0.000 C 
ATOM      5  O   UNL     1       1.121  -0.542   1.474  0.00  0.00    +0.000 OA
ATOM      6  C   UNL     1       0.727  -0.937   0.173  0.00  0.00    +0.000 C 
ATOM      7  C   UNL     1      -0.091   0.164  -0.476  0.00  0.00    +0.000 C 
ATOM      8  O   UNL     1      -0.536  -0.203  -1.761  0.00  0.00    +0.000 OA
ATOM      9  C   UNL     1      -1.122   0.904  -2.453  0.00  0.00    +0.000 C 
ATOM     10  C   UNL     1      -1.754   2.009  -1.531  0.00  0.00    +0.000 C 
ENDROOT
BRANCH  10  11
ATOM     11  N   UNL     1      -0.786   3.067  -1.238  0.00  0.00    +0.000 NA
ATOM     12  N   UNL     1      -0.375   3.821  -2.121  0.00  0.00    +0.000 NA
ATOM     13  N   UNL     1       0.035   4.573  -3.003  0.00  0.00    +0.000 NA
ENDBRANCH  10  11
BRANCH   1  15
ATOM     14  H   UNL     1      -3.228   2.043   1.362  0.00  0.00    +0.000 HD
ATOM     15  O   UNL     1      -2.615   2.437   0.686  0.00  0.00    +0.000 OA
ENDBRANCH   1  15
BRANCH   9  16
ATOM     16  O   UNL     1      -2.146   0.414  -3.299  0.00  0.00    +0.000 OA
ATOM     17  C   UNL     1      -1.590  -0.220  -4.431  0.00  0.00    +0.000 C 
ENDBRANCH   9  16
BRANCH   4  18
ATOM     18  C   UNL     1      -0.750  -1.385   2.869  0.00  0.00    +0.000 C 
BRANCH  18  19
ATOM     19  C   UNL     1       0.149  -2.232   3.732  0.00  0.00    +0.000 A 
ATOM     20  C   UNL     1       0.857  -3.311   3.176  0.00  0.00    +0.000 A 
ATOM     21  C   UNL     1       1.715  -4.076   3.972  0.00  0.00    +0.000 A 
ATOM     22  C   UNL     1       1.878  -3.765   5.325  0.00  0.00    +0.000 A 
ATOM     23  C   UNL     1       1.186  -2.687   5.883  0.00  0.00    +0.000 A 
ATOM     24  C   UNL     1       0.327  -1.919   5.090  0.00  0.00    +0.000 A 
ENDBRANCH  18  19
ENDBRANCH   4  18
TORSDOF 5
