REMARK  Name = ZINC000575124647
REMARK  11 active torsions:
REMARK  status: ('A' for Active; 'I' for Inactive)
REMARK    1  A    between atoms: O_2  and  C_3
REMARK    2  A    between atoms: C_3  and  C_36
REMARK    3  A    between atoms: N_4  and  C_5
REMARK    4  A    between atoms: C_7  and  O_9
REMARK    5  A    between atoms: C_11  and  O_13
REMARK    6  A    between atoms: C_15  and  C_17
REMARK    7  A    between atoms: C_17  and  O_20
REMARK    8  A    between atoms: C_23  and  O_25
REMARK    9  A    between atoms: O_25  and  C_26
REMARK   10  A    between atoms: C_26  and  C_29
REMARK   11  A    between atoms: C_29  and  C_32
REMARK                            x       y       z     vdW  Elec       q    Type
REMARK                         _______ _______ _______ _____ _____    ______ ____
ROOT
ATOM      1  C   UNL     1       0.217  -1.152   1.232  0.00  0.00    +0.000 C 
ATOM      2  C   UNL     1       1.389  -1.836   0.500  0.00  0.00    +0.000 C 
ATOM      3  C   UNL     1       1.126  -1.847  -1.017  0.00  0.00    +0.000 C 
ATOM      4  C   UNL     1       0.757  -0.424  -1.498  0.00  0.00    +0.000 C 
ATOM      5  O   UNL     1      -0.372   0.051  -0.785  0.00  0.00    +0.000 OA
ATOM      6  C   UNL     1      -0.072   0.223   0.589  0.00  0.00    +0.000 C 
ENDROOT
BRANCH   1   8
ATOM      7  C   UNL     1      -0.322  -0.926   3.614  0.00  0.00    +0.000 C 
ATOM      8  N   UNL     1       0.549  -1.000   2.652  0.00  0.00    +0.000 NA
ATOM      9  C   UNL     1       0.151  -0.768   5.023  0.00  0.00    +0.000 C 
BRANCH   7  11
ATOM     10  H   UNL     1      -2.371  -0.990   4.095  0.00  0.00    +0.000 HD
ATOM     11  O   UNL     1      -1.687  -1.031   3.349  0.00  0.00    +0.000 OA
ENDBRANCH   7  11
ENDBRANCH   1   8
BRANCH   2  12
ATOM     12  O   UNL     1       2.596  -1.162   0.762  0.00  0.00    +0.000 OA
ATOM     13  H   UNL     1       2.958  -1.530   1.610  0.00  0.00    +0.000 HD
ENDBRANCH   2  12
BRANCH   3  14
ATOM     14  O   UNL     1       2.266  -2.304  -1.699  0.00  0.00    +0.000 OA
ATOM     15  H   UNL     1       2.309  -3.286  -1.557  0.00  0.00    +0.000 HD
ENDBRANCH   3  14
BRANCH   4  16
ATOM     16  C   UNL     1       0.420  -0.424  -2.996  0.00  0.00    +0.000 C 
BRANCH  16  17
ATOM     17  O   UNL     1       0.142   0.879  -3.433  0.00  0.00    +0.000 OA
ATOM     18  H   UNL     1      -0.799   1.071  -3.182  0.00  0.00    +0.000 HD
ENDBRANCH  16  17
ENDBRANCH   4  16
BRANCH   6  19
ATOM     19  O   UNL     1      -1.209   0.789   1.220  0.00  0.00    +0.000 OA
BRANCH  19  20
ATOM     20  C   UNL     1      -1.109   2.198   1.336  0.00  0.00    +0.000 C 
BRANCH  20  21
ATOM     21  C   UNL     1      -1.350   2.916  -0.001  0.00  0.00    +0.000 C 
ATOM     22  C   UNL     1      -2.710   2.568  -0.602  0.00  0.00    +0.000 C 
ENDBRANCH  20  21
ENDBRANCH  19  20
ENDBRANCH   6  19
TORSDOF 9
