REMARK  Name = ZINC000616589990
REMARK  7 active torsions:
REMARK  status: ('A' for Active; 'I' for Inactive)
REMARK    1  A    between atoms: C_1  and  C_2
REMARK    2  A    between atoms: C_2  and  O_3
REMARK    3  A    between atoms: O_3  and  C_4
REMARK    4  A    between atoms: C_6  and  C_7
REMARK    5  A    between atoms: C_10  and  O_11
REMARK    6  A    between atoms: C_12  and  O_13
REMARK    7  A    between atoms: C_14  and  N_15
REMARK                            x       y       z     vdW  Elec       q    Type
REMARK                         _______ _______ _______ _____ _____    ______ ____
ROOT
ATOM      1  C   UNL     1      -0.035  -2.269   1.450  0.00  0.00    +0.000 C 
ATOM      2  O   UNL     1       0.558  -1.495   0.419  0.00  0.00    +0.000 OA
ATOM      3  C   UNL     1       0.084  -0.160   0.454  0.00  0.00    +0.000 C 
ATOM      4  C   UNL     1       0.538   0.541   1.753  0.00  0.00    +0.000 C 
ATOM      5  C   UNL     1       0.035  -0.246   2.976  0.00  0.00    +0.000 C 
ATOM      6  C   UNL     1       0.418  -1.738   2.831  0.00  0.00    +0.000 C 
ENDROOT
BRANCH   6   7
ATOM      7  N   UNL     1      -0.148  -2.542   3.924  0.00  0.00    +0.000 N 
ATOM      8  H   UNL     1       0.249  -3.509   3.895  0.00  0.00    +0.000 HD
ATOM      9  H   UNL     1       0.104  -2.117   4.846  0.00  0.00    +0.000 HD
ATOM     10  H   UNL     1      -1.189  -2.601   3.843  0.00  0.00    +0.000 HD
ENDBRANCH   6   7
BRANCH   3  11
ATOM     11  C   UNL     1       0.621   0.571  -0.741  0.00  0.00    +0.000 C 
ATOM     12  O   UNL     1       1.834   0.461  -1.063  0.00  0.00    +0.000 OA
ATOM     13  O   UNL     1      -0.210   1.406  -1.477  0.00  0.00    +0.000 OA
ENDBRANCH   3  11
BRANCH   4  14
ATOM     14  O   UNL     1       0.042   1.855   1.785  0.00  0.00    +0.000 OA
ATOM     15  H   UNL     1       0.554   2.336   2.487  0.00  0.00    +0.000 HD
ENDBRANCH   4  14
BRANCH   5  16
ATOM     16  O   UNL     1      -1.361  -0.101   3.086  0.00  0.00    +0.000 OA
ATOM     17  H   UNL     1      -1.585  -0.147   4.051  0.00  0.00    +0.000 HD
ENDBRANCH   5  16
BRANCH   1  18
ATOM     18  O   UNL     1       0.398  -3.610   1.321  0.00  0.00    +0.000 OA
BRANCH  18  20
ATOM     19  C   UNL     1       0.270  -5.648   0.078  0.00  0.00    +0.000 C 
ATOM     20  C   UNL     1      -0.295  -4.249   0.269  0.00  0.00    +0.000 C 
ENDBRANCH  18  20
ENDBRANCH   1  18
TORSDOF 6
