REMARK  Name = 51351654
REMARK  7 active torsions:
REMARK  status: ('A' for Active; 'I' for Inactive)
REMARK    1  A    between atoms: S_2  and  N_5
REMARK    2  A    between atoms: N_5  and  C_6
REMARK    3  A    between atoms: C_7  and  O_8
REMARK    4  A    between atoms: C_10  and  C_11
REMARK    5  A    between atoms: C_11  and  O_12
REMARK    6  A    between atoms: C_13  and  O_14
REMARK    7  A    between atoms: C_15  and  O_16
REMARK                            x       y       z     vdW  Elec       q    Type
REMARK                         _______ _______ _______ _____ _____    ______ ____
ROOT
ATOM      1  C   UNL     1      -0.668   0.899  -0.249  0.00  0.00    +0.000 C 
ATOM      2  C   UNL     1       0.029   1.231   1.093  0.00  0.00    +0.000 C 
ATOM      3  O   UNL     1      -0.011   0.117   1.968  0.00  0.00    +0.000 OA
ATOM      4  C   UNL     1       0.726  -0.993   1.470  0.00  0.00    +0.000 C 
ATOM      5  C   UNL     1       0.236  -1.456   0.068  0.00  0.00    +0.000 C 
ATOM      6  C   UNL     1       0.074  -0.279  -0.914  0.00  0.00    +0.000 C 
ENDROOT
BRANCH   1   7
ATOM      7  N   UNL     1      -2.089   0.541  -0.052  0.00  0.00    +0.000 NA
ATOM      8  H   UNL     1      -2.468   0.973   0.821  0.00  0.00    +0.000 HD
BRANCH   7  10
ATOM      9  O   UNL     1      -3.136   2.649  -1.280  0.00  0.00    +0.000 OA
ATOM     10  S   UNL     1      -3.074   1.149  -1.351  0.00  0.00    +0.000 S 
ATOM     11  O   UNL     1      -4.462   0.591  -1.219  0.00  0.00    +0.000 OA
ATOM     12  O   UNL     1      -2.438   0.690  -2.837  0.00  0.00    +0.000 OA
ENDBRANCH   7  10
ENDBRANCH   1   7
BRANCH   2  13
ATOM     13  O   UNL     1      -0.614   2.310   1.718  0.00  0.00    +0.000 OA
ATOM     14  H   UNL     1      -0.403   3.122   1.187  0.00  0.00    +0.000 HD
ENDBRANCH   2  13
BRANCH   5  15
ATOM     15  O   UNL     1      -1.002  -2.109   0.199  0.00  0.00    +0.000 OA
ATOM     16  H   UNL     1      -0.814  -3.023   0.540  0.00  0.00    +0.000 HD
ENDBRANCH   5  15
BRANCH   6  17
ATOM     17  O   UNL     1       1.338   0.135  -1.369  0.00  0.00    +0.000 OA
ATOM     18  H   UNL     1       1.187   0.680  -2.186  0.00  0.00    +0.000 HD
ENDBRANCH   6  17
BRANCH   4  19
ATOM     19  C   UNL     1       2.253  -0.771   1.567  0.00  0.00    +0.000 C 
BRANCH  19  20
ATOM     20  O   UNL     1       2.931  -1.999   1.526  0.00  0.00    +0.000 OA
ATOM     21  H   UNL     1       3.152  -2.178   0.576  0.00  0.00    +0.000 HD
ENDBRANCH  19  20
ENDBRANCH   4  19
TORSDOF 7
