REMARK  Name = ZINC000252694384
REMARK  16 active torsions:
REMARK  status: ('A' for Active; 'I' for Inactive)
REMARK    1  A    between atoms: O_2  and  C_3
REMARK    2  A    between atoms: C_3  and  C_51
REMARK    3  A    between atoms: N_4  and  C_5
REMARK    4  A    between atoms: C_7  and  O_9
REMARK    5  A    between atoms: C_11  and  O_13
REMARK    6  A    between atoms: C_15  and  C_17
REMARK    7  A    between atoms: C_17  and  O_20
REMARK    8  A    between atoms: C_23  and  O_25
REMARK    9  A    between atoms: O_25  and  C_26
REMARK   10  A    between atoms: C_26  and  C_29
REMARK   11  A    between atoms: C_29  and  C_32
REMARK   12  A    between atoms: C_32  and  C_35
REMARK   13  A    between atoms: C_35  and  C_38
REMARK   14  A    between atoms: C_38  and  C_41
REMARK   15  A    between atoms: C_41  and  C_44
REMARK   16  A    between atoms: C_44  and  C_47
REMARK                            x       y       z     vdW  Elec       q    Type
REMARK                         _______ _______ _______ _____ _____    ______ ____
ROOT
ATOM      1  C   UNL     1       2.884  -1.276   1.498  0.00  0.00    +0.000 C 
ATOM      2  C   UNL     1       2.365  -1.746   2.873  0.00  0.00    +0.000 C 
ATOM      3  C   UNL     1       1.585  -0.603   3.552  0.00  0.00    +0.000 C 
ATOM      4  C   UNL     1       0.524  -0.027   2.580  0.00  0.00    +0.000 C 
ATOM      5  O   UNL     1       1.155   0.421   1.393  0.00  0.00    +0.000 OA
ATOM      6  C   UNL     1       1.722  -0.667   0.679  0.00  0.00    +0.000 C 
ENDROOT
BRANCH   1   8
ATOM      7  C   UNL     1       4.412  -2.312  -0.114  0.00  0.00    +0.000 C 
ATOM      8  N   UNL     1       3.480  -2.410   0.786  0.00  0.00    +0.000 NA
ATOM      9  C   UNL     1       4.916  -3.547  -0.789  0.00  0.00    +0.000 C 
BRANCH   7  11
ATOM     10  H   UNL     1       5.666  -0.989  -1.165  0.00  0.00    +0.000 HD
ATOM     11  O   UNL     1       4.943  -1.070  -0.461  0.00  0.00    +0.000 OA
ENDBRANCH   7  11
ENDBRANCH   1   8
BRANCH   2  12
ATOM     12  O   UNL     1       1.531  -2.870   2.723  0.00  0.00    +0.000 OA
ATOM     13  H   UNL     1       2.118  -3.670   2.714  0.00  0.00    +0.000 HD
ENDBRANCH   2  12
BRANCH   3  14
ATOM     14  O   UNL     1       1.011  -1.038   4.762  0.00  0.00    +0.000 OA
ATOM     15  H   UNL     1       0.270  -1.661   4.543  0.00  0.00    +0.000 HD
ENDBRANCH   3  14
BRANCH   4  16
ATOM     16  C   UNL     1      -0.215   1.160   3.214  0.00  0.00    +0.000 C 
BRANCH  16  17
ATOM     17  O   UNL     1      -1.146   1.696   2.312  0.00  0.00    +0.000 OA
ATOM     18  H   UNL     1      -1.904   1.056   2.270  0.00  0.00    +0.000 HD
ENDBRANCH  16  17
ENDBRANCH   4  16
BRANCH   6  19
ATOM     19  O   UNL     1       2.237  -0.172  -0.546  0.00  0.00    +0.000 OA
BRANCH  19  20
ATOM     20  C   UNL     1       1.304  -0.296  -1.604  0.00  0.00    +0.000 C 
BRANCH  20  21
ATOM     21  C   UNL     1       0.202   0.769  -1.517  0.00  0.00    +0.000 C 
BRANCH  21  22
ATOM     22  C   UNL     1      -0.734   0.701  -2.731  0.00  0.00    +0.000 C 
BRANCH  22  23
ATOM     23  C   UNL     1      -1.763   1.846  -2.761  0.00  0.00    +0.000 C 
BRANCH  23  24
ATOM     24  C   UNL     1      -2.687   1.932  -1.532  0.00  0.00    +0.000 C 
BRANCH  24  25
ATOM     25  C   UNL     1      -3.513   0.652  -1.309  0.00  0.00    +0.000 C 
BRANCH  25  26
ATOM     26  C   UNL     1      -4.519   0.798  -0.156  0.00  0.00    +0.000 C 
ATOM     27  C   UNL     1      -5.757   1.603  -0.551  0.00  0.00    +0.000 C 
ENDBRANCH  25  26
ENDBRANCH  24  25
ENDBRANCH  23  24
ENDBRANCH  22  23
ENDBRANCH  21  22
ENDBRANCH  20  21
ENDBRANCH  19  20
ENDBRANCH   6  19
TORSDOF 14
