REMARK  Name = ZINC000616582813
REMARK  9 active torsions:
REMARK  status: ('A' for Active; 'I' for Inactive)
REMARK    1  A    between atoms: C_1  and  C_2
REMARK    2  A    between atoms: C_2  and  O_3
REMARK    3  A    between atoms: O_3  and  C_4
REMARK    4  A    between atoms: C_6  and  C_7
REMARK    5  A    between atoms: C_7  and  O_8
REMARK    6  A    between atoms: C_9  and  O_10
REMARK    7  A    between atoms: C_11  and  O_12
REMARK    8  A    between atoms: C_13  and  N_14
REMARK    9  A    between atoms: C_15  and  C_16
REMARK                            x       y       z     vdW  Elec       q    Type
REMARK                         _______ _______ _______ _____ _____    ______ ____
ROOT
ATOM      1  C   UNL     1      -0.518   1.561  -0.169  0.00  0.00    +0.000 C 
ATOM      2  O   UNL     1      -0.230   2.035   1.136  0.00  0.00    +0.000 OA
ATOM      3  C   UNL     1      -1.203   1.596   2.071  0.00  0.00    +0.000 C 
ATOM      4  C   UNL     1      -1.154   0.051   2.204  0.00  0.00    +0.000 C 
ATOM      5  C   UNL     1      -1.378  -0.599   0.826  0.00  0.00    +0.000 C 
ATOM      6  C   UNL     1      -0.411   0.022  -0.199  0.00  0.00    +0.000 C 
ENDROOT
BRANCH   6   7
ATOM      7  N   UNL     1      -0.692  -0.483  -1.548  0.00  0.00    +0.000 N 
ATOM      8  C   UNL     1       0.345  -0.801  -2.487  0.00  0.00    +0.000 C 
ATOM      9  C   UNL     1      -0.006  -1.125  -3.902  0.00  0.00    +0.000 C 
ATOM     10  O   UNL     1       1.557  -0.770  -2.141  0.00  0.00    +0.000 OA
ATOM     11  H   UNL     1      -1.674  -0.445  -1.903  0.00  0.00    +0.000 HD
ENDBRANCH   6   7
BRANCH   4  12
ATOM     12  O   UNL     1      -2.140  -0.404   3.097  0.00  0.00    +0.000 OA
ATOM     13  H   UNL     1      -1.702  -0.533   3.979  0.00  0.00    +0.000 HD
ENDBRANCH   4  12
BRANCH   5  14
ATOM     14  O   UNL     1      -2.709  -0.408   0.411  0.00  0.00    +0.000 OA
ATOM     15  H   UNL     1      -3.249  -1.133   0.822  0.00  0.00    +0.000 HD
ENDBRANCH   5  14
BRANCH   1  16
ATOM     16  O   UNL     1       0.459   2.095  -1.047  0.00  0.00    +0.000 OA
BRANCH  16  18
ATOM     17  C   UNL     1       0.941   3.234  -3.093  0.00  0.00    +0.000 C 
ATOM     18  C   UNL     1      -0.141   2.782  -2.126  0.00  0.00    +0.000 C 
ENDBRANCH  16  18
ENDBRANCH   1  16
BRANCH   3  19
ATOM     19  C   UNL     1      -0.915   2.287   3.411  0.00  0.00    +0.000 C 
BRANCH  19  20
ATOM     20  O   UNL     1      -1.994   2.119   4.290  0.00  0.00    +0.000 OA
ATOM     21  H   UNL     1      -1.733   2.570   5.135  0.00  0.00    +0.000 HD
ENDBRANCH  19  20
ENDBRANCH   3  19
TORSDOF 7
