REMARK  Name = ZINC000616582813
REMARK  10 active torsions:
REMARK  status: ('A' for Active; 'I' for Inactive)
REMARK    1  A    between atoms: O_2  and  C_3
REMARK    2  A    between atoms: C_3  and  C_33
REMARK    3  A    between atoms: N_4  and  C_5
REMARK    4  A    between atoms: C_7  and  O_9
REMARK    5  A    between atoms: C_11  and  O_13
REMARK    6  A    between atoms: C_15  and  C_17
REMARK    7  A    between atoms: C_17  and  O_20
REMARK    8  A    between atoms: C_23  and  O_25
REMARK    9  A    between atoms: O_25  and  C_26
REMARK   10  A    between atoms: C_26  and  C_29
REMARK                            x       y       z     vdW  Elec       q    Type
REMARK                         _______ _______ _______ _____ _____    ______ ____
ROOT
ATOM      1  C   UNL     1      -0.639  -0.498  -1.219  0.00  0.00    +0.000 C 
ATOM      2  C   UNL     1      -0.262  -1.808  -0.500  0.00  0.00    +0.000 C 
ATOM      3  C   UNL     1       0.974  -1.578   0.395  0.00  0.00    +0.000 C 
ATOM      4  C   UNL     1       0.753  -0.338   1.296  0.00  0.00    +0.000 C 
ATOM      5  O   UNL     1       0.474   0.799   0.496  0.00  0.00    +0.000 OA
ATOM      6  C   UNL     1      -0.757   0.644  -0.192  0.00  0.00    +0.000 C 
ENDROOT
BRANCH   1   8
ATOM      7  C   UNL     1      -2.088  -1.108  -3.133  0.00  0.00    +0.000 C 
ATOM      8  N   UNL     1      -1.915  -0.651  -1.925  0.00  0.00    +0.000 NA
ATOM      9  C   UNL     1      -0.944  -1.517  -4.014  0.00  0.00    +0.000 C 
BRANCH   7  11
ATOM     10  H   UNL     1      -4.183  -0.932  -3.086  0.00  0.00    +0.000 HD
ATOM     11  O   UNL     1      -3.381  -1.203  -3.642  0.00  0.00    +0.000 OA
ENDBRANCH   7  11
ENDBRANCH   1   8
BRANCH   2  12
ATOM     12  O   UNL     1      -1.349  -2.253   0.275  0.00  0.00    +0.000 OA
ATOM     13  H   UNL     1      -1.245  -3.235   0.386  0.00  0.00    +0.000 HD
ENDBRANCH   2  12
BRANCH   3  14
ATOM     14  O   UNL     1       1.216  -2.716   1.183  0.00  0.00    +0.000 OA
ATOM     15  H   UNL     1       1.601  -3.405   0.579  0.00  0.00    +0.000 HD
ENDBRANCH   3  14
BRANCH   4  16
ATOM     16  C   UNL     1       2.001  -0.026   2.139  0.00  0.00    +0.000 C 
BRANCH  16  17
ATOM     17  O   UNL     1       2.236  -1.026   3.093  0.00  0.00    +0.000 OA
ATOM     18  H   UNL     1       1.562  -0.899   3.811  0.00  0.00    +0.000 HD
ENDBRANCH  16  17
ENDBRANCH   4  16
BRANCH   6  19
ATOM     19  O   UNL     1      -1.047   1.839  -0.892  0.00  0.00    +0.000 OA
BRANCH  19  20
ATOM     20  C   UNL     1      -1.513   2.829   0.002  0.00  0.00    +0.000 C 
ATOM     21  C   UNL     1      -1.711   4.132  -0.756  0.00  0.00    +0.000 C 
ENDBRANCH  19  20
ENDBRANCH   6  19
TORSDOF 8
