REMARK  Name = 45934204
REMARK  10 active torsions:
REMARK  status: ('A' for Active; 'I' for Inactive)
REMARK    1  A    between atoms: C_1  and  C_2
REMARK    2  A    between atoms: N_4  and  C_5
REMARK    3  A    between atoms: C_6  and  O_7
REMARK    4  A    between atoms: C_9  and  C_10
REMARK    5  A    between atoms: C_10  and  O_11
REMARK    6  A    between atoms: C_12  and  O_13
REMARK    7  A    between atoms: C_14  and  O_15
REMARK    8  A    between atoms: O_15  and  C_16
REMARK    9  A    between atoms: C_16  and  C_17
REMARK   10  A    between atoms: C_16  and  C_18
REMARK                            x       y       z     vdW  Elec       q    Type
REMARK                         _______ _______ _______ _____ _____    ______ ____
ROOT
ATOM      1  C   UNL     1      -0.323   0.971  -0.927  0.00  0.00    +0.000 C 
ATOM      2  C   UNL     1      -0.332   0.801  -2.462  0.00  0.00    +0.000 C 
ATOM      3  O   UNL     1      -1.326  -0.133  -2.841  0.00  0.00    +0.000 OA
ATOM      4  C   UNL     1      -1.014  -1.426  -2.350  0.00  0.00    +0.000 C 
ATOM      5  C   UNL     1      -1.055  -1.435  -0.804  0.00  0.00    +0.000 C 
ATOM      6  C   UNL     1      -0.072  -0.387  -0.248  0.00  0.00    +0.000 C 
ENDROOT
BRANCH   1  10
ATOM      7  C   UNL     1       1.619   3.900   0.772  0.00  0.00    +0.000 C 
ATOM      8  C   UNL     1       0.498   2.984   0.405  0.00  0.00    +0.000 C 
ATOM      9  O   UNL     1      -0.646   3.173   0.901  0.00  0.00    +0.000 OA
ATOM     10  N   UNL     1       0.721   1.922  -0.533  0.00  0.00    +0.000 N 
ATOM     11  H   UNL     1       1.694   1.764  -0.881  0.00  0.00    +0.000 HD
ENDBRANCH   1  10
BRANCH   2  12
ATOM     12  O   UNL     1      -0.638   2.031  -3.067  0.00  0.00    +0.000 OA
ATOM     13  H   UNL     1       0.203   2.559  -3.097  0.00  0.00    +0.000 HD
ENDBRANCH   2  12
BRANCH   5  14
ATOM     14  O   UNL     1      -0.695  -2.705  -0.320  0.00  0.00    +0.000 OA
ATOM     15  H   UNL     1      -1.536  -3.200  -0.137  0.00  0.00    +0.000 HD
ENDBRANCH   5  14
BRANCH   4  16
ATOM     16  C   UNL     1      -2.027  -2.422  -2.933  0.00  0.00    +0.000 C 
BRANCH  16  17
ATOM     17  O   UNL     1      -2.019  -2.368  -4.334  0.00  0.00    +0.000 OA
ATOM     18  H   UNL     1      -1.195  -2.835  -4.631  0.00  0.00    +0.000 HD
ENDBRANCH  16  17
ENDBRANCH   4  16
BRANCH   6  19
ATOM     19  O   UNL     1      -0.278  -0.240   1.150  0.00  0.00    +0.000 OA
BRANCH  19  20
ATOM     20  C   UNL     1       0.708  -0.921   1.907  0.00  0.00    +0.000 C 
ATOM     21  C   UNL     1       0.109  -1.304   3.259  0.00  0.00    +0.000 C 
BRANCH  20  22
ATOM     22  C   UNL     1       1.906  -0.036   2.105  0.00  0.00    +0.000 C 
ATOM     23  O   UNL     1       1.796   1.062   2.713  0.00  0.00    +0.000 OA
ATOM     24  O   UNL     1       3.143  -0.419   1.601  0.00  0.00    +0.000 OA
ENDBRANCH  20  22
ENDBRANCH  19  20
ENDBRANCH   6  19
TORSDOF 8
