REMARK  Name = 45357367
REMARK  9 active torsions:
REMARK  status: ('A' for Active; 'I' for Inactive)
REMARK    1  A    between atoms: O_2  and  C_3
REMARK    2  A    between atoms: N_4  and  C_5
REMARK    3  A    between atoms: C_7  and  O_9
REMARK    4  A    between atoms: C_12  and  C_14
REMARK    5  A    between atoms: C_14  and  O_17
REMARK    6  A    between atoms: C_19  and  O_21
REMARK    7  A    between atoms: C_23  and  O_25
REMARK    8  A    between atoms: N_27  and  N_28
REMARK    9  A    between atoms: N_27  and  C_30
REMARK                            x       y       z     vdW  Elec       q    Type
REMARK                         _______ _______ _______ _____ _____    ______ ____
ROOT
ATOM      1  C   UNL     1       0.684  -0.079   0.642  0.00  0.00    +0.000 C 
ATOM      2  C   UNL     1       1.859   0.886   0.280  0.00  0.00    +0.000 C 
ATOM      3  O   UNL     1       1.576   2.234   0.621  0.00  0.00    +0.000 OA
ATOM      4  C   UNL     1       0.346   2.645   0.053  0.00  0.00    +0.000 C 
ATOM      5  C   UNL     1      -0.844   1.948   0.776  0.00  0.00    +0.000 C 
ATOM      6  C   UNL     1      -0.385   0.652   1.480  0.00  0.00    +0.000 C 
ENDROOT
BRANCH   1   8
ATOM      7  C   UNL     1       0.592  -1.508  -1.346  0.00  0.00    +0.000 C 
ATOM      8  N   UNL     1       0.059  -0.608  -0.573  0.00  0.00    +0.000 NA
ATOM      9  N   UNL     1      -0.123  -1.941  -2.518  0.00  0.00    +0.000 N 
ATOM     10  C   UNL     1       0.520  -2.805  -3.513  0.00  0.00    +0.000 C 
BRANCH   7  12
ATOM     11  H   UNL     1       2.276  -2.784  -1.559  0.00  0.00    +0.000 HD
ATOM     12  O   UNL     1       1.841  -2.045  -1.023  0.00  0.00    +0.000 OA
ENDBRANCH   7  12
BRANCH   9  13
ATOM     13  N   UNL     1      -1.475  -1.571  -2.653  0.00  0.00    +0.000 NA
ATOM     14  O   UNL     1      -2.173  -1.968  -3.609  0.00  0.00    +0.000 OA
ENDBRANCH   9  13
ENDBRANCH   1   8
BRANCH   2  15
ATOM     15  O   UNL     1       3.013   0.499   0.980  0.00  0.00    +0.000 OA
ATOM     16  H   UNL     1       3.369  -0.310   0.527  0.00  0.00    +0.000 HD
ENDBRANCH   2  15
BRANCH   5  17
ATOM     17  O   UNL     1      -1.848   1.631  -0.155  0.00  0.00    +0.000 OA
ATOM     18  H   UNL     1      -2.374   2.457  -0.312  0.00  0.00    +0.000 HD
ENDBRANCH   5  17
BRANCH   6  19
ATOM     19  O   UNL     1       0.141   0.974   2.744  0.00  0.00    +0.000 OA
ATOM     20  H   UNL     1       0.160   0.133   3.272  0.00  0.00    +0.000 HD
ENDBRANCH   6  19
BRANCH   4  21
ATOM     21  C   UNL     1       0.258   4.174   0.156  0.00  0.00    +0.000 C 
BRANCH  21  22
ATOM     22  O   UNL     1      -0.867   4.657  -0.529  0.00  0.00    +0.000 OA
ATOM     23  H   UNL     1      -1.590   4.766   0.141  0.00  0.00    +0.000 HD
ENDBRANCH  21  22
ENDBRANCH   4  21
TORSDOF 8
