REMARK  Name = 118707521
REMARK  10 active torsions:
REMARK  status: ('A' for Active; 'I' for Inactive)
REMARK    1  A    between atoms: C_1  and  N_2
REMARK    2  A    between atoms: C_3  and  C_4
REMARK    3  A    between atoms: N_6  and  C_7
REMARK    4  A    between atoms: C_8  and  O_9
REMARK    5  A    between atoms: C_11  and  C_12
REMARK    6  A    between atoms: C_12  and  O_13
REMARK    7  A    between atoms: C_14  and  O_15
REMARK    8  A    between atoms: C_16  and  O_17
REMARK    9  A    between atoms: C_21  and  C_22
REMARK   10  A    between atoms: C_29  and  C_30
REMARK                            x       y       z     vdW  Elec       q    Type
REMARK                         _______ _______ _______ _____ _____    ______ ____
ROOT
ATOM      1  C   UNL     1      -1.098  -0.178   0.250  0.00  0.00    +0.000 A 
ATOM      2  C   UNL     1      -0.920   0.392  -0.993  0.00  0.00    +0.000 A 
ATOM      3  N   UNL     1      -2.151   0.703  -1.441  0.00  0.00    +0.000 N 
ATOM      4  N   UNL     1      -3.033   0.340  -0.524  0.00  0.00    +0.000 NA
ATOM      5  N   UNL     1      -2.419  -0.196   0.521  0.00  0.00    +0.000 NA
ENDROOT
BRANCH   1   8
ATOM      6  C   UNL     1      -1.505  -1.819   2.841  0.00  0.00    +0.000 C 
ATOM      7  N   UNL     1      -0.229  -1.337   2.306  0.00  0.00    +0.000 N 
ATOM      8  C   UNL     1      -0.032  -0.651   1.153  0.00  0.00    +0.000 A 
ATOM      9  N   UNL     1       1.274  -0.420   0.901  0.00  0.00    +0.000 NA
ATOM     10  C   UNL     1       1.928  -0.968   1.946  0.00  0.00    +0.000 A 
ATOM     11  C   UNL     1       1.006  -1.532   2.818  0.00  0.00    +0.000 A 
BRANCH  10  12
ATOM     12  C   UNL     1       3.399  -0.892   2.097  0.00  0.00    +0.000 A 
ATOM     13  C   UNL     1       3.993  -0.703   3.359  0.00  0.00    +0.000 A 
ATOM     14  C   UNL     1       5.383  -0.614   3.479  0.00  0.00    +0.000 A 
ATOM     15  C   UNL     1       6.193  -0.699   2.342  0.00  0.00    +0.000 A 
ATOM     16  F   UNL     1       7.541  -0.608   2.460  0.00  0.00    +0.000 F 
ATOM     17  C   UNL     1       5.611  -0.865   1.082  0.00  0.00    +0.000 A 
ATOM     18  C   UNL     1       4.220  -0.955   0.958  0.00  0.00    +0.000 A 
ENDBRANCH  10  12
BRANCH  11  19
ATOM     19  C   UNL     1       1.306  -2.286   4.055  0.00  0.00    +0.000 A 
ATOM     20  C   UNL     1       2.201  -3.365   4.028  0.00  0.00    +0.000 A 
ATOM     21  C   UNL     1       2.490  -4.047   5.212  0.00  0.00    +0.000 A 
ATOM     22  N   UNL     1       1.909  -3.663   6.379  0.00  0.00    +0.000 NA
ATOM     23  C   UNL     1       1.040  -2.619   6.434  0.00  0.00    +0.000 A 
ATOM     24  C   UNL     1       0.724  -1.909   5.273  0.00  0.00    +0.000 A 
ENDBRANCH  11  19
ENDBRANCH   1   8
BRANCH   3  25
ATOM     25  C   UNL     1      -2.510   1.302  -2.731  0.00  0.00    +0.000 C 
ATOM     26  C   UNL     1      -1.768   2.635  -2.952  0.00  0.00    +0.000 C 
ATOM     27  O   UNL     1      -2.165   3.211  -4.185  0.00  0.00    +0.000 OA
ATOM     28  C   UNL     1      -1.741   2.408  -5.275  0.00  0.00    +0.000 C 
ATOM     29  C   UNL     1      -2.458   1.029  -5.235  0.00  0.00    +0.000 C 
ATOM     30  C   UNL     1      -2.201   0.333  -3.883  0.00  0.00    +0.000 C 
BRANCH  26  31
ATOM     31  O   UNL     1      -2.097   3.517  -1.912  0.00  0.00    +0.000 OA
ATOM     32  H   UNL     1      -1.541   4.329  -2.045  0.00  0.00    +0.000 HD
ENDBRANCH  26  31
BRANCH  29  33
ATOM     33  O   UNL     1      -2.046   0.203  -6.297  0.00  0.00    +0.000 OA
ATOM     34  H   UNL     1      -1.065   0.074  -6.215  0.00  0.00    +0.000 HD
ENDBRANCH  29  33
BRANCH  30  35
ATOM     35  O   UNL     1      -3.018  -0.804  -3.763  0.00  0.00    +0.000 OA
ATOM     36  H   UNL     1      -2.587  -1.526  -4.291  0.00  0.00    +0.000 HD
ENDBRANCH  30  35
BRANCH  28  37
ATOM     37  C   UNL     1      -2.060   3.170  -6.572  0.00  0.00    +0.000 C 
BRANCH  37  38
ATOM     38  O   UNL     1      -1.532   2.515  -7.695  0.00  0.00    +0.000 OA
ATOM     39  H   UNL     1      -0.551   2.672  -7.682  0.00  0.00    +0.000 HD
ENDBRANCH  37  38
ENDBRANCH  28  37
ENDBRANCH   3  25
TORSDOF 9
