REMARK  Name = 44229083
REMARK  9 active torsions:
REMARK  status: ('A' for Active; 'I' for Inactive)
REMARK    1  A    between atoms: O_2  and  C_3
REMARK    2  A    between atoms: C_3  and  C_30
REMARK    3  A    between atoms: N_4  and  C_5
REMARK    4  A    between atoms: C_7  and  O_9
REMARK    5  A    between atoms: C_12  and  C_14
REMARK    6  A    between atoms: C_14  and  O_17
REMARK    7  A    between atoms: O_17  and  P_18
REMARK    8  A    between atoms: C_22  and  O_24
REMARK    9  A    between atoms: C_26  and  O_28
REMARK                            x       y       z     vdW  Elec       q    Type
REMARK                         _______ _______ _______ _____ _____    ______ ____
ROOT
ATOM      1  C   UNL     1       0.736  -0.181  -1.583  0.00  0.00    +0.000 C 
ATOM      2  C   UNL     1       0.264   0.930  -0.622  0.00  0.00    +0.000 C 
ATOM      3  O   UNL     1      -0.805   0.476   0.192  0.00  0.00    +0.000 OA
ATOM      4  C   UNL     1      -0.428  -0.598   1.045  0.00  0.00    +0.000 C 
ATOM      5  C   UNL     1       0.131  -1.812   0.250  0.00  0.00    +0.000 C 
ATOM      6  C   UNL     1       1.206  -1.400  -0.770  0.00  0.00    +0.000 C 
ENDROOT
BRANCH   1   8
ATOM      7  C   UNL     1      -0.550  -0.238  -3.709  0.00  0.00    +0.000 C 
ATOM      8  N   UNL     1      -0.365  -0.586  -2.467  0.00  0.00    +0.000 NA
ATOM      9  C   UNL     1       0.417   0.644  -4.452  0.00  0.00    +0.000 C 
BRANCH   7  11
ATOM     10  H   UNL     1      -1.864  -0.495  -5.338  0.00  0.00    +0.000 HD
ATOM     11  O   UNL     1      -1.675  -0.725  -4.369  0.00  0.00    +0.000 OA
ENDBRANCH   7  11
ENDBRANCH   1   8
BRANCH   2  12
ATOM     12  O   UNL     1      -0.186   2.035  -1.359  0.00  0.00    +0.000 OA
ATOM     13  H   UNL     1       0.620   2.531  -1.661  0.00  0.00    +0.000 HD
ENDBRANCH   2  12
BRANCH   5  14
ATOM     14  O   UNL     1       0.645  -2.793   1.114  0.00  0.00    +0.000 OA
ATOM     15  H   UNL     1      -0.133  -3.210   1.569  0.00  0.00    +0.000 HD
ENDBRANCH   5  14
BRANCH   6  16
ATOM     16  O   UNL     1       2.415  -1.113  -0.113  0.00  0.00    +0.000 OA
ATOM     17  H   UNL     1       3.131  -1.140  -0.800  0.00  0.00    +0.000 HD
ENDBRANCH   6  16
BRANCH   4  18
ATOM     18  C   UNL     1       0.458  -0.135   2.222  0.00  0.00    +0.000 C 
BRANCH  18  19
ATOM     19  O   UNL     1      -0.115   1.012   2.807  0.00  0.00    +0.000 OA
BRANCH  19  20
ATOM     20  P   UNL     1       0.911   1.553   4.058  0.00  0.00    +0.000 P 
ATOM     21  O   UNL     1       2.221   2.037   3.479  0.00  0.00    +0.000 OA
ATOM     22  O   UNL     1       0.159   2.833   4.867  0.00  0.00    +0.000 OA
ATOM     23  O   UNL     1       1.207   0.303   5.160  0.00  0.00    +0.000 OA
ENDBRANCH  19  20
ENDBRANCH  18  19
ENDBRANCH   4  18
TORSDOF 8
