REMARK  Name = 44119773
REMARK  7 active torsions:
REMARK  status: ('A' for Active; 'I' for Inactive)
REMARK    1  A    between atoms: C_1  and  C_2
REMARK    2  A    between atoms: N_4  and  C_5
REMARK    3  A    between atoms: C_6  and  O_7
REMARK    4  A    between atoms: C_9  and  C_10
REMARK    5  A    between atoms: C_10  and  O_11
REMARK    6  A    between atoms: C_12  and  O_13
REMARK    7  A    between atoms: C_14  and  O_15
REMARK                            x       y       z     vdW  Elec       q    Type
REMARK                         _______ _______ _______ _____ _____    ______ ____
ROOT
ATOM      1  C   UNL     1       0.932   0.278  -0.460  0.00  0.00    +0.000 C 
ATOM      2  C   UNL     1       0.955  -0.365  -1.863  0.00  0.00    +0.000 C 
ATOM      3  O   UNL     1       1.103  -1.770  -1.755  0.00  0.00    +0.000 OA
ATOM      4  C   UNL     1      -0.033  -2.348  -1.132  0.00  0.00    +0.000 C 
ATOM      5  C   UNL     1      -0.148  -1.860   0.331  0.00  0.00    +0.000 C 
ATOM      6  C   UNL     1      -0.221  -0.322   0.371  0.00  0.00    +0.000 C 
ENDROOT
BRANCH   1  10
ATOM      7  C   UNL     1       0.896   4.082   0.399  0.00  0.00    +0.000 C 
ATOM      8  C   UNL     1       1.085   2.608   0.546  0.00  0.00    +0.000 C 
ATOM      9  O   UNL     1       1.528   2.142   1.631  0.00  0.00    +0.000 OA
ATOM     10  N   UNL     1       0.796   1.736  -0.556  0.00  0.00    +0.000 N 
ATOM     11  H   UNL     1       0.494   2.168  -1.460  0.00  0.00    +0.000 HD
ENDBRANCH   1  10
BRANCH   2  12
ATOM     12  O   UNL     1       2.045   0.149  -2.580  0.00  0.00    +0.000 OA
ATOM     13  H   UNL     1       1.964  -0.204  -3.504  0.00  0.00    +0.000 HD
ENDBRANCH   2  12
BRANCH   5  14
ATOM     14  O   UNL     1      -1.292  -2.410   0.932  0.00  0.00    +0.000 OA
ATOM     15  H   UNL     1      -1.186  -2.291   1.912  0.00  0.00    +0.000 HD
ENDBRANCH   5  14
BRANCH   6  16
ATOM     16  O   UNL     1      -1.464   0.103  -0.133  0.00  0.00    +0.000 OA
ATOM     17  H   UNL     1      -1.654   0.989   0.273  0.00  0.00    +0.000 HD
ENDBRANCH   6  16
BRANCH   4  18
ATOM     18  C   UNL     1       0.108  -3.876  -1.186  0.00  0.00    +0.000 C 
BRANCH  18  19
ATOM     19  O   UNL     1       0.234  -4.310  -2.513  0.00  0.00    +0.000 OA
ATOM     20  H   UNL     1      -0.672  -4.257  -2.916  0.00  0.00    +0.000 HD
ENDBRANCH  18  19
ENDBRANCH   4  18
TORSDOF 6
