REMARK  Name = 44341508
REMARK  10 active torsions:
REMARK  status: ('A' for Active; 'I' for Inactive)
REMARK    1  A    between atoms: C_1  and  O_2
REMARK    2  A    between atoms: O_2  and  C_3
REMARK    3  A    between atoms: C_8  and  O_9
REMARK    4  A    between atoms: O_9  and  C_10
REMARK    5  A    between atoms: C_12  and  C_13
REMARK    6  A    between atoms: C_13  and  O_14
REMARK    7  A    between atoms: C_15  and  O_16
REMARK    8  A    between atoms: C_17  and  O_18
REMARK    9  A    between atoms: C_19  and  N_20
REMARK   10  A    between atoms: C_21  and  C_22
REMARK                            x       y       z     vdW  Elec       q    Type
REMARK                         _______ _______ _______ _____ _____    ______ ____
ROOT
ATOM      1  C   UNL     1       0.119  -1.180  -1.797  0.00  0.00    +0.000 C 
ATOM      2  O   UNL     1       0.411  -1.899  -2.985  0.00  0.00    +0.000 OA
ATOM      3  C   UNL     1      -0.769  -2.141  -3.733  0.00  0.00    +0.000 C 
ATOM      4  C   UNL     1      -1.698  -3.104  -2.961  0.00  0.00    +0.000 C 
ATOM      5  C   UNL     1      -2.048  -2.474  -1.599  0.00  0.00    +0.000 C 
ATOM      6  C   UNL     1      -0.767  -2.043  -0.862  0.00  0.00    +0.000 C 
ENDROOT
BRANCH   6   7
ATOM      7  N   UNL     1      -1.128  -1.296   0.348  0.00  0.00    +0.000 N 
ATOM      8  C   UNL     1      -0.543  -1.555   1.633  0.00  0.00    +0.000 C 
ATOM      9  C   UNL     1      -0.883  -0.685   2.799  0.00  0.00    +0.000 C 
ATOM     10  O   UNL     1       0.234  -2.534   1.799  0.00  0.00    +0.000 OA
ATOM     11  H   UNL     1      -1.780  -0.484   0.254  0.00  0.00    +0.000 HD
ENDBRANCH   6   7
BRANCH   4  12
ATOM     12  O   UNL     1      -1.054  -4.340  -2.774  0.00  0.00    +0.000 OA
ATOM     13  H   UNL     1      -1.765  -5.020  -2.643  0.00  0.00    +0.000 HD
ENDBRANCH   4  12
BRANCH   5  14
ATOM     14  O   UNL     1      -2.764  -3.384  -0.805  0.00  0.00    +0.000 OA
ATOM     15  H   UNL     1      -3.676  -3.444  -1.191  0.00  0.00    +0.000 HD
ENDBRANCH   5  14
BRANCH   1  16
ATOM     16  O   UNL     1       1.366  -0.894  -1.156  0.00  0.00    +0.000 OA
BRANCH  16  22
ATOM     17  C   UNL     1       1.599   4.012   3.043  0.00  0.00    +0.000 A 
ATOM     18  C   UNL     1       0.416   4.118   2.287  0.00  0.00    +0.000 A 
ATOM     19  C   UNL     1       0.128   3.184   1.289  0.00  0.00    +0.000 A 
ATOM     20  C   UNL     1       1.016   2.129   1.030  0.00  0.00    +0.000 A 
ATOM     21  C   UNL     1       0.729   1.181   0.035  0.00  0.00    +0.000 A 
ATOM     22  C   UNL     1       1.612   0.108  -0.201  0.00  0.00    +0.000 A 
ATOM     23  C   UNL     1       2.795   0.021   0.541  0.00  0.00    +0.000 A 
ATOM     24  C   UNL     1       3.091   0.963   1.530  0.00  0.00    +0.000 A 
ATOM     25  C   UNL     1       2.205   2.017   1.787  0.00  0.00    +0.000 A 
ATOM     26  C   UNL     1       2.486   2.960   2.786  0.00  0.00    +0.000 A 
BRANCH  17  28
ATOM     27  C   UNL     1       1.122   6.041   4.426  0.00  0.00    +0.000 C 
ATOM     28  O   UNL     1       1.928   4.927   4.055  0.00  0.00    +0.000 OA
ENDBRANCH  17  28
ENDBRANCH  16  22
ENDBRANCH   1  16
BRANCH   3  29
ATOM     29  C   UNL     1      -0.373  -2.712  -5.103  0.00  0.00    +0.000 C 
BRANCH  29  30
ATOM     30  O   UNL     1      -1.504  -2.933  -5.903  0.00  0.00    +0.000 OA
ATOM     31  H   UNL     1      -1.808  -2.042  -6.218  0.00  0.00    +0.000 HD
ENDBRANCH  29  30
ENDBRANCH   3  29
TORSDOF 8
