REMARK  Name = 118707521
REMARK  10 active torsions:
REMARK  status: ('A' for Active; 'I' for Inactive)
REMARK    1  A    between atoms: C_1  and  N_2
REMARK    2  A    between atoms: C_3  and  C_4
REMARK    3  A    between atoms: N_6  and  C_7
REMARK    4  A    between atoms: C_8  and  O_9
REMARK    5  A    between atoms: C_11  and  C_12
REMARK    6  A    between atoms: C_12  and  O_13
REMARK    7  A    between atoms: C_14  and  O_15
REMARK    8  A    between atoms: C_16  and  O_17
REMARK    9  A    between atoms: C_21  and  C_22
REMARK   10  A    between atoms: C_29  and  C_30
REMARK                            x       y       z     vdW  Elec       q    Type
REMARK                         _______ _______ _______ _____ _____    ______ ____
ROOT
ATOM      1  C   UNL     1      -1.266  -0.199   0.312  0.00  0.00    +0.000 A 
ATOM      2  C   UNL     1      -1.141   0.409  -0.918  0.00  0.00    +0.000 A 
ATOM      3  N   UNL     1      -2.394   0.654  -1.343  0.00  0.00    +0.000 N 
ATOM      4  N   UNL     1      -3.240   0.216  -0.425  0.00  0.00    +0.000 NA
ATOM      5  N   UNL     1      -2.579  -0.305   0.599  0.00  0.00    +0.000 NA
ENDROOT
BRANCH   1   8
ATOM      6  C   UNL     1      -1.537  -1.818   2.940  0.00  0.00    +0.000 C 
ATOM      7  N   UNL     1      -0.295  -1.315   2.349  0.00  0.00    +0.000 N 
ATOM      8  C   UNL     1      -0.158  -0.640   1.181  0.00  0.00    +0.000 A 
ATOM      9  N   UNL     1       1.133  -0.389   0.874  0.00  0.00    +0.000 NA
ATOM     10  C   UNL     1       1.839  -0.913   1.895  0.00  0.00    +0.000 A 
ATOM     11  C   UNL     1       0.964  -1.483   2.811  0.00  0.00    +0.000 A 
BRANCH  10  12
ATOM     12  C   UNL     1       3.314  -0.834   1.973  0.00  0.00    +0.000 A 
ATOM     13  C   UNL     1       4.076  -0.917   0.795  0.00  0.00    +0.000 A 
ATOM     14  C   UNL     1       5.471  -0.834   0.848  0.00  0.00    +0.000 A 
ATOM     15  C   UNL     1       6.117  -0.655   2.074  0.00  0.00    +0.000 A 
ATOM     16  F   UNL     1       7.469  -0.573   2.124  0.00  0.00    +0.000 F 
ATOM     17  C   UNL     1       5.367  -0.550   3.249  0.00  0.00    +0.000 A 
ATOM     18  C   UNL     1       3.972  -0.632   3.200  0.00  0.00    +0.000 A 
ENDBRANCH  10  12
BRANCH  11  19
ATOM     19  C   UNL     1       1.329  -2.232   4.033  0.00  0.00    +0.000 A 
ATOM     20  C   UNL     1       2.230  -3.304   3.965  0.00  0.00    +0.000 A 
ATOM     21  C   UNL     1       2.576  -3.985   5.134  0.00  0.00    +0.000 A 
ATOM     22  N   UNL     1       2.044  -3.607   6.327  0.00  0.00    +0.000 NA
ATOM     23  C   UNL     1       1.170  -2.570   6.421  0.00  0.00    +0.000 A 
ATOM     24  C   UNL     1       0.798  -1.861   5.276  0.00  0.00    +0.000 A 
ENDBRANCH  11  19
ENDBRANCH   1   8
BRANCH   3  25
ATOM     25  C   UNL     1      -2.800   1.258  -2.616  0.00  0.00    +0.000 C 
ATOM     26  C   UNL     1      -2.120   2.640  -2.812  0.00  0.00    +0.000 C 
ATOM     27  O   UNL     1      -0.893   2.530  -3.522  0.00  0.00    +0.000 OA
ATOM     28  C   UNL     1      -1.034   2.043  -4.857  0.00  0.00    +0.000 C 
ATOM     29  C   UNL     1      -2.238   1.076  -5.070  0.00  0.00    +0.000 C 
ATOM     30  C   UNL     1      -2.499   0.286  -3.782  0.00  0.00    +0.000 C 
BRANCH  26  31
ATOM     31  O   UNL     1      -2.995   3.532  -3.455  0.00  0.00    +0.000 OA
ATOM     32  H   UNL     1      -2.574   4.429  -3.400  0.00  0.00    +0.000 HD
ENDBRANCH  26  31
BRANCH  29  33
ATOM     33  O   UNL     1      -2.008   0.209  -6.155  0.00  0.00    +0.000 OA
ATOM     34  H   UNL     1      -1.231  -0.366  -5.927  0.00  0.00    +0.000 HD
ENDBRANCH  29  33
BRANCH  30  35
ATOM     35  O   UNL     1      -3.582  -0.587  -3.977  0.00  0.00    +0.000 OA
ATOM     36  H   UNL     1      -3.558  -1.240  -3.229  0.00  0.00    +0.000 HD
ENDBRANCH  30  35
BRANCH  28  37
ATOM     37  C   UNL     1      -1.042   3.216  -5.852  0.00  0.00    +0.000 C 
BRANCH  37  38
ATOM     38  O   UNL     1      -0.815   2.759  -7.159  0.00  0.00    +0.000 OA
ATOM     39  H   UNL     1      -1.703   2.537  -7.544  0.00  0.00    +0.000 HD
ENDBRANCH  37  38
ENDBRANCH  28  37
ENDBRANCH   3  25
TORSDOF 9
