REMARK  Name = 42612215
REMARK  9 active torsions:
REMARK  status: ('A' for Active; 'I' for Inactive)
REMARK    1  A    between atoms: O_2  and  C_3
REMARK    2  A    between atoms: C_3  and  N_9
REMARK    3  A    between atoms: C_4  and  N_6
REMARK    4  A    between atoms: N_9  and  C_11
REMARK    5  A    between atoms: C_13  and  O_15
REMARK    6  A    between atoms: C_18  and  C_20
REMARK    7  A    between atoms: C_20  and  O_23
REMARK    8  A    between atoms: C_25  and  O_27
REMARK    9  A    between atoms: C_29  and  O_31
REMARK                            x       y       z     vdW  Elec       q    Type
REMARK                         _______ _______ _______ _____ _____    ______ ____
ROOT
ATOM      1  C   UNL     1       0.536   0.577  -0.009  0.00  0.00    +0.000 C 
ATOM      2  C   UNL     1      -0.261   0.497   1.311  0.00  0.00    +0.000 C 
ATOM      3  O   UNL     1      -1.312  -0.452   1.209  0.00  0.00    +0.000 OA
ATOM      4  C   UNL     1      -2.284  -0.019   0.271  0.00  0.00    +0.000 C 
ATOM      5  C   UNL     1      -1.672   0.047  -1.154  0.00  0.00    +0.000 C 
ATOM      6  C   UNL     1      -0.418   0.950  -1.160  0.00  0.00    +0.000 C 
ENDROOT
BRANCH   1   7
ATOM      7  N   UNL     1       1.212  -0.701  -0.280  0.00  0.00    +0.000 N 
ATOM      8  H   UNL     1       0.624  -1.561  -0.353  0.00  0.00    +0.000 HD
BRANCH   7   9
ATOM      9  C   UNL     1       2.521  -0.769  -0.863  0.00  0.00    +0.000 C 
ATOM     10  C   UNL     1       3.581  -0.193  -0.282  0.00  0.00    +0.000 C 
BRANCH  10  11
ATOM     11  N   UNL     1       3.475   0.451   0.987  0.00  0.00    +0.000 NA
ATOM     12  N   UNL     1       4.463   0.955   1.519  0.00  0.00    +0.000 NA
ATOM     13  N   UNL     1       5.451   1.459   2.052  0.00  0.00    +0.000 NA
ENDBRANCH  10  11
BRANCH   9  15
ATOM     14  H   UNL     1       3.586  -1.584  -2.499  0.00  0.00    +0.000 HD
ATOM     15  O   UNL     1       2.684  -1.491  -2.046  0.00  0.00    +0.000 OA
ENDBRANCH   9  15
ENDBRANCH   7   9
ENDBRANCH   1   7
BRANCH   2  16
ATOM     16  O   UNL     1       0.590   0.153   2.374  0.00  0.00    +0.000 OA
ATOM     17  H   UNL     1       0.777  -0.819   2.305  0.00  0.00    +0.000 HD
ENDBRANCH   2  16
BRANCH   5  18
ATOM     18  O   UNL     1      -2.615   0.509  -2.090  0.00  0.00    +0.000 OA
ATOM     19  H   UNL     1      -2.905   1.415  -1.806  0.00  0.00    +0.000 HD
ENDBRANCH   5  18
BRANCH   6  20
ATOM     20  O   UNL     1       0.255   0.844  -2.389  0.00  0.00    +0.000 OA
ATOM     21  H   UNL     1      -0.259   1.382  -3.046  0.00  0.00    +0.000 HD
ENDBRANCH   6  20
BRANCH   4  22
ATOM     22  C   UNL     1      -3.467  -0.997   0.306  0.00  0.00    +0.000 C 
BRANCH  22  23
ATOM     23  O   UNL     1      -4.062  -0.998   1.576  0.00  0.00    +0.000 OA
ATOM     24  H   UNL     1      -3.516  -1.598   2.149  0.00  0.00    +0.000 HD
ENDBRANCH  22  23
ENDBRANCH   4  22
TORSDOF 9
