REMARK  Name = 25243963
REMARK  8 active torsions:
REMARK  status: ('A' for Active; 'I' for Inactive)
REMARK    1  A    between atoms: C_1  and  C_2
REMARK    2  A    between atoms: N_4  and  C_5
REMARK    3  A    between atoms: C_6  and  O_7
REMARK    4  A    between atoms: C_9  and  C_10
REMARK    5  A    between atoms: C_10  and  O_11
REMARK    6  A    between atoms: O_11  and  P_12
REMARK    7  A    between atoms: C_16  and  O_17
REMARK    8  A    between atoms: C_18  and  O_19
REMARK                            x       y       z     vdW  Elec       q    Type
REMARK                         _______ _______ _______ _____ _____    ______ ____
ROOT
ATOM      1  C   UNL     1      -1.140   0.849  -0.943  0.00  0.00    +0.000 C 
ATOM      2  C   UNL     1       0.317   1.289  -0.711  0.00  0.00    +0.000 C 
ATOM      3  O   UNL     1       0.860   0.610   0.409  0.00  0.00    +0.000 OA
ATOM      4  C   UNL     1       0.197   0.998   1.602  0.00  0.00    +0.000 C 
ATOM      5  C   UNL     1      -1.281   0.537   1.567  0.00  0.00    +0.000 C 
ATOM      6  C   UNL     1      -1.971   1.129   0.325  0.00  0.00    +0.000 C 
ENDROOT
BRANCH   1  10
ATOM      7  C   UNL     1      -2.385   1.808  -4.515  0.00  0.00    +0.000 C 
ATOM      8  C   UNL     1      -1.871   0.982  -3.381  0.00  0.00    +0.000 C 
ATOM      9  O   UNL     1      -1.557  -0.222  -3.582  0.00  0.00    +0.000 OA
ATOM     10  N   UNL     1      -1.709   1.573  -2.084  0.00  0.00    +0.000 N 
ATOM     11  H   UNL     1      -1.900   2.596  -1.980  0.00  0.00    +0.000 HD
ENDBRANCH   1  10
BRANCH   2  12
ATOM     12  O   UNL     1       1.075   0.969  -1.845  0.00  0.00    +0.000 OA
ATOM     13  H   UNL     1       1.975   1.362  -1.701  0.00  0.00    +0.000 HD
ENDBRANCH   2  12
BRANCH   5  14
ATOM     14  O   UNL     1      -1.959   0.978   2.716  0.00  0.00    +0.000 OA
ATOM     15  H   UNL     1      -1.936   0.235   3.374  0.00  0.00    +0.000 HD
ENDBRANCH   5  14
BRANCH   6  16
ATOM     16  O   UNL     1      -3.279   0.629   0.190  0.00  0.00    +0.000 OA
ATOM     17  H   UNL     1      -3.215  -0.353   0.062  0.00  0.00    +0.000 HD
ENDBRANCH   6  16
BRANCH   4  18
ATOM     18  C   UNL     1       0.940   0.376   2.791  0.00  0.00    +0.000 C 
BRANCH  18  19
ATOM     19  O   UNL     1       2.281   0.804   2.771  0.00  0.00    +0.000 OA
BRANCH  19  20
ATOM     20  P   UNL     1       3.094   0.080   4.083  0.00  0.00    +0.000 P 
ATOM     21  O   UNL     1       4.534   0.540   4.084  0.00  0.00    +0.000 OA
ATOM     22  O   UNL     1       2.369   0.536   5.542  0.00  0.00    +0.000 OA
ATOM     23  O   UNL     1       3.054  -1.605   3.935  0.00  0.00    +0.000 OA
ENDBRANCH  19  20
ENDBRANCH  18  19
ENDBRANCH   4  18
TORSDOF 7
