REMARK  Name = 24847493
REMARK  9 active torsions:
REMARK  status: ('A' for Active; 'I' for Inactive)
REMARK    1  A    between atoms: N_2  and  N_3
REMARK    2  A    between atoms: N_3  and  C_4
REMARK    3  A    between atoms: C_4  and  C_5
REMARK    4  A    between atoms: N_9  and  C_10
REMARK    5  A    between atoms: C_11  and  O_12
REMARK    6  A    between atoms: C_14  and  C_15
REMARK    7  A    between atoms: C_15  and  O_16
REMARK    8  A    between atoms: C_17  and  O_18
REMARK    9  A    between atoms: C_19  and  O_20
REMARK                            x       y       z     vdW  Elec       q    Type
REMARK                         _______ _______ _______ _____ _____    ______ ____
ROOT
ATOM      1  C   UNL     1       0.085  -0.261   0.613  0.00  0.00    +0.000 C 
ATOM      2  C   UNL     1      -1.398   0.112   0.789  0.00  0.00    +0.000 C 
ATOM      3  O   UNL     1      -2.190  -1.061   0.849  0.00  0.00    +0.000 OA
ATOM      4  C   UNL     1      -1.892  -1.808   2.017  0.00  0.00    +0.000 C 
ATOM      5  C   UNL     1      -0.435  -2.333   1.958  0.00  0.00    +0.000 C 
ATOM      6  C   UNL     1       0.539  -1.153   1.779  0.00  0.00    +0.000 C 
ENDROOT
BRANCH   1  10
ATOM      7  N   UNL     1       2.664   2.393  -0.504  0.00  0.00    +0.000 N 
ATOM      8  C   UNL     1       1.991   1.120  -0.364  0.00  0.00    +0.000 C 
ATOM      9  O   UNL     1       2.352   0.143  -1.076  0.00  0.00    +0.000 OA
ATOM     10  N   UNL     1       0.905   0.954   0.564  0.00  0.00    +0.000 N 
ATOM     11  H   UNL     1       0.763   1.662   1.317  0.00  0.00    +0.000 HD
BRANCH   7  13
ATOM     12  O   UNL     1       4.613   1.467  -1.371  0.00  0.00    +0.000 OA
ATOM     13  N   UNL     1       3.937   2.481  -1.098  0.00  0.00    +0.000 NA
ENDBRANCH   7  13
BRANCH   7  14
ATOM     14  C   UNL     1       2.006   3.650  -0.133  0.00  0.00    +0.000 C 
BRANCH  14  15
ATOM     15  C   UNL     1       0.816   3.931  -1.050  0.00  0.00    +0.000 C 
ATOM     16 CL   UNL     1       0.067   5.490  -0.622  0.00  0.00    +0.000 Cl
ENDBRANCH  14  15
ENDBRANCH   7  14
ENDBRANCH   1  10
BRANCH   2  17
ATOM     17  O   UNL     1      -1.806   0.879  -0.311  0.00  0.00    +0.000 OA
ATOM     18  H   UNL     1      -2.726   1.192  -0.109  0.00  0.00    +0.000 HD
ENDBRANCH   2  17
BRANCH   5  19
ATOM     19  O   UNL     1      -0.128  -3.017   3.147  0.00  0.00    +0.000 OA
ATOM     20  H   UNL     1       0.592  -3.666   2.930  0.00  0.00    +0.000 HD
ENDBRANCH   5  19
BRANCH   6  21
ATOM     21  O   UNL     1       1.833  -1.633   1.517  0.00  0.00    +0.000 OA
ATOM     22  H   UNL     1       2.249  -1.840   2.394  0.00  0.00    +0.000 HD
ENDBRANCH   6  21
BRANCH   4  23
ATOM     23  C   UNL     1      -2.902  -2.964   2.107  0.00  0.00    +0.000 C 
BRANCH  23  24
ATOM     24  O   UNL     1      -2.795  -3.642   3.330  0.00  0.00    +0.000 OA
ATOM     25  H   UNL     1      -3.209  -3.057   4.017  0.00  0.00    +0.000 HD
ENDBRANCH  23  24
ENDBRANCH   4  23
TORSDOF 9
