ATOM      1  C   UNL     1      89.381  20.933-103.098  0.00  0.00    +0.000 C 
ATOM      2  C   UNL     1      89.063  22.289-103.772  0.00  0.00    +0.000 C 
ATOM      3  C   UNL     1      88.345  23.187-102.746  0.00  0.00    +0.000 C 
ATOM      4  O   UNL     1      88.147  24.486-103.270  0.00  0.00    +0.000 OA
ATOM      5  C   UNL     1      87.701  25.414-102.279  0.00  0.00    +0.000 C 
ATOM      6  O   UNL     1      87.299  24.799-101.062  0.00  0.00    +0.000 OA
ATOM      7  C   UNL     1      88.408  24.162-100.453  0.00  0.00    +0.000 C 
ATOM      8  C   UNL     1      89.159  23.250-101.442  0.00  0.00    +0.000 C 
ATOM      9  O   UNL     1      89.315  21.954-100.894  0.00  0.00    +0.000 OA
ATOM     10  C   UNL     1      90.112  21.152-101.755  0.00  0.00    +0.000 C 
ENDROOT
BRANCH   5  11
ATOM     11  C   UNL     1      86.537  26.208-102.817  0.00  0.00    +0.000 A 
ATOM     12  C   UNL     1      86.732  27.102-103.886  0.00  0.00    +0.000 A 
ATOM     13  C   UNL     1      85.670  27.878-104.361  0.00  0.00    +0.000 A 
ATOM     14  C   UNL     1      84.407  27.771-103.770  0.00  0.00    +0.000 A 
ATOM     15  C   UNL     1      84.209  26.907-102.689  0.00  0.00    +0.000 A 
ATOM     16  C   UNL     1      85.271  26.137-102.205  0.00  0.00    +0.000 A 
ENDBRANCH   5  11
BRANCH   1  18
ATOM     17  C   UNL     1      89.820  18.982-104.508  0.00  0.00    +0.000 C 
ATOM     18  N   UNL     1      90.209  20.101-103.973  0.00  0.00    +0.000 NA
BRANCH  17  19
ATOM     19  C   UNL     1      90.750  18.234-105.389  0.00  0.00    +0.000 A 
ATOM     20  C   UNL     1      91.083  16.894-105.116  0.00  0.00    +0.000 A 
ATOM     21  C   UNL     1      91.969  16.200-105.945  0.00  0.00    +0.000 A 
ATOM     22  C   UNL     1      92.537  16.834-107.051  0.00  0.00    +0.000 A 
ATOM     23  C   UNL     1      92.223  18.167-107.329  0.00  0.00    +0.000 A 
ATOM     24  C   UNL     1      91.339  18.866-106.502  0.00  0.00    +0.000 A 
ENDBRANCH  17  19
BRANCH  17  26
ATOM     25  H   UNL     1      88.142  17.702-104.737  0.00  0.00    +0.000 HD
ATOM     26  O   UNL     1      88.532  18.499-104.250  0.00  0.00    +0.000 OA
ENDBRANCH  17  26
ENDBRANCH   1  18
BRANCH  10  27
ATOM     27  O   UNL     1      90.324  19.888-101.154  0.00  0.00    +0.000 OA
ATOM     28  C   UNL     1      90.589  20.044 -99.777  0.00  0.00    +0.000 C 
ENDBRANCH  10  27
BRANCH   2  29
ATOM     29  O   UNL     1      90.271  22.900-104.193  0.00  0.00    +0.000 OA
BRANCH  29  30
ATOM     30  S   UNL     1      90.414  22.870-105.888  0.00  0.00    +0.000 S 
ATOM     31  O   UNL     1      89.179  22.227-106.454  0.00  0.00    +0.000 OA
ATOM     32  O   UNL     1      91.610  22.064-106.317  0.00  0.00    +0.000 OA
ATOM     33  C   UNL     1      90.543  24.518-106.545  0.00  0.00    +0.000 C 
ENDBRANCH  29  30
ENDBRANCH   2  29
TORSDOF 7
ENDMDL