ATOM      1  C   UNL     1      31.917  -1.211 -62.656  0.00  0.00    +0.000 C 
ATOM      2  C   UNL     1      32.873  -0.115 -62.130  0.00  0.00    +0.000 C 
ATOM      3  C   UNL     1      32.126   0.748 -61.099  0.00  0.00    +0.000 C 
ATOM      4  O   UNL     1      33.009   1.689 -60.514  0.00  0.00    +0.000 OA
ATOM      5  C   UNL     1      32.491   2.260 -59.314  0.00  0.00    +0.000 C 
ATOM      6  O   UNL     1      31.083   2.107 -59.185  0.00  0.00    +0.000 OA
ATOM      7  C   UNL     1      30.753   0.740 -59.018  0.00  0.00    +0.000 C 
ATOM      8  C   UNL     1      31.484  -0.159 -60.032  0.00  0.00    +0.000 C 
ATOM      9  O   UNL     1      30.573  -1.062 -60.634  0.00  0.00    +0.000 OA
ATOM     10  C   UNL     1      31.266  -1.969 -61.479  0.00  0.00    +0.000 C 
ENDROOT
BRANCH   5  11
ATOM     11  C   UNL     1      32.817   3.729 -59.307  0.00  0.00    +0.000 A 
ATOM     12  C   UNL     1      31.785   4.677 -59.196  0.00  0.00    +0.000 A 
ATOM     13  C   UNL     1      32.081   6.044 -59.184  0.00  0.00    +0.000 A 
ATOM     14  C   UNL     1      33.405   6.474 -59.292  0.00  0.00    +0.000 A 
ATOM     15  C   UNL     1      34.438   5.539 -59.412  0.00  0.00    +0.000 A 
ATOM     16  C   UNL     1      34.148   4.171 -59.423  0.00  0.00    +0.000 A 
ENDBRANCH   5  11
BRANCH   1  18
ATOM     17  C   UNL     1      32.126  -2.788 -64.518  0.00  0.00    +0.000 C 
ATOM     18  N   UNL     1      32.641  -2.162 -63.501  0.00  0.00    +0.000 NA
BRANCH  17  19
ATOM     19  C   UNL     1      32.979  -3.704 -65.315  0.00  0.00    +0.000 A 
ATOM     20  C   UNL     1      34.383  -3.613 -65.268  0.00  0.00    +0.000 A 
ATOM     21  C   UNL     1      35.174  -4.482 -66.026  0.00  0.00    +0.000 A 
ATOM     22  C   UNL     1      34.577  -5.444 -66.842  0.00  0.00    +0.000 A 
ATOM     23  C   UNL     1      33.186  -5.539 -66.904  0.00  0.00    +0.000 A 
ATOM     24  C   UNL     1      32.389  -4.675 -66.147  0.00  0.00    +0.000 A 
ENDBRANCH  17  19
BRANCH  17  26
ATOM     25  H   UNL     1      30.366  -2.959 -65.693  0.00  0.00    +0.000 HD
ATOM     26  O   UNL     1      30.785  -2.578 -64.854  0.00  0.00    +0.000 OA
ENDBRANCH  17  26
ENDBRANCH   1  18
BRANCH  10  27
ATOM     27  O   UNL     1      30.343  -2.900 -62.008  0.00  0.00    +0.000 OA
ATOM     28  C   UNL     1      29.582  -3.475 -60.967  0.00  0.00    +0.000 C 
ENDBRANCH  10  27
BRANCH   2  29
ATOM     29  O   UNL     1      33.995  -0.724 -61.514  0.00  0.00    +0.000 OA
BRANCH  29  30
ATOM     30  S   UNL     1      35.431   0.050 -61.986  0.00  0.00    +0.000 S 
ATOM     31  O   UNL     1      35.902   0.978 -60.903  0.00  0.00    +0.000 OA
ATOM     32  O   UNL     1      36.501  -0.962 -62.287  0.00  0.00    +0.000 OA
ATOM     33  C   UNL     1      35.103   0.997 -63.453  0.00  0.00    +0.000 C 
ENDBRANCH  29  30
ENDBRANCH   2  29
TORSDOF 7
ENDMDL