ATOM      1  C   UNL     1      89.457  20.277-103.665  0.00  0.00    +0.000 C 
ATOM      2  C   UNL     1      89.152  21.709-104.162  0.00  0.00    +0.000 C 
ATOM      3  C   UNL     1      88.305  22.436-103.104  0.00  0.00    +0.000 C 
ATOM      4  O   UNL     1      88.107  23.788-103.478  0.00  0.00    +0.000 OA
ATOM      5  C   UNL     1      87.657  24.599-102.395  0.00  0.00    +0.000 C 
ATOM      6  O   UNL     1      87.106  23.846-101.323  0.00  0.00    +0.000 OA
ATOM      7  C   UNL     1      88.115  23.070-100.701  0.00  0.00    +0.000 C 
ATOM      8  C   UNL     1      88.989  22.327-101.728  0.00  0.00    +0.000 C 
ATOM      9  O   UNL     1      89.137  20.969-101.355  0.00  0.00    +0.000 OA
ATOM     10  C   UNL     1      90.039  20.314-102.236  0.00  0.00    +0.000 C 
ENDROOT
BRANCH   5  11
ATOM     11  C   UNL     1      86.603  25.540-102.912  0.00  0.00    +0.000 A 
ATOM     12  C   UNL     1      85.559  25.957-102.068  0.00  0.00    +0.000 A 
ATOM     13  C   UNL     1      84.578  26.836-102.539  0.00  0.00    +0.000 A 
ATOM     14  C   UNL     1      84.626  27.296-103.857  0.00  0.00    +0.000 A 
ATOM     15  C   UNL     1      85.655  26.880-104.708  0.00  0.00    +0.000 A 
ATOM     16  C   UNL     1      86.639  26.003-104.240  0.00  0.00    +0.000 A 
ENDBRANCH   5  11
BRANCH   1  18
ATOM     17  C   UNL     1      90.168  18.520-105.217  0.00  0.00    +0.000 C 
ATOM     18  N   UNL     1      90.410  19.615-104.557  0.00  0.00    +0.000 NA
BRANCH  17  19
ATOM     19  C   UNL     1      91.212  17.969-106.116  0.00  0.00    +0.000 A 
ATOM     20  C   UNL     1      91.688  18.708-107.215  0.00  0.00    +0.000 A 
ATOM     21  C   UNL     1      92.671  18.174-108.055  0.00  0.00    +0.000 A 
ATOM     22  C   UNL     1      93.185  16.899-107.813  0.00  0.00    +0.000 A 
ATOM     23  C   UNL     1      92.716  16.153-106.731  0.00  0.00    +0.000 A 
ATOM     24  C   UNL     1      91.735  16.681-105.886  0.00  0.00    +0.000 A 
ENDBRANCH  17  19
BRANCH  17  26
ATOM     25  H   UNL     1      88.655  17.097-105.647  0.00  0.00    +0.000 HD
ATOM     26  O   UNL     1      88.929  17.889-105.081  0.00  0.00    +0.000 OA
ENDBRANCH  17  26
ENDBRANCH   1  18
BRANCH  10  27
ATOM     27  O   UNL     1      90.222  18.982-101.797  0.00  0.00    +0.000 OA
ATOM     28  C   UNL     1      90.439  18.955-100.403  0.00  0.00    +0.000 C 
ENDBRANCH  10  27
BRANCH   2  29
ATOM     29  O   UNL     1      90.370  22.409-104.356  0.00  0.00    +0.000 OA
BRANCH  29  30
ATOM     30  S   UNL     1      90.620  22.729-106.005  0.00  0.00    +0.000 S 
ATOM     31  O   UNL     1      91.653  21.794-106.566  0.00  0.00    +0.000 OA
ATOM     32  O   UNL     1      89.335  22.584-106.771  0.00  0.00    +0.000 OA
ATOM     33  C   UNL     1      91.206  24.399-106.171  0.00  0.00    +0.000 C 
ENDBRANCH  29  30
ENDBRANCH   2  29
TORSDOF 7
ENDMDL