ATOM      1  C   UNL     1      28.883  -2.329 -61.967  0.00  0.00    +0.000 C 
ATOM      2  C   UNL     1      30.401  -2.625 -62.028  0.00  0.00    +0.000 C 
ATOM      3  C   UNL     1      30.696  -4.004 -62.680  0.00  0.00    +0.000 C 
ATOM      4  O   UNL     1      31.334  -3.884 -63.940  0.00  0.00    +0.000 OA
ATOM      5  C   UNL     1      31.379  -5.132 -64.639  0.00  0.00    +0.000 C 
ATOM      6  O   UNL     1      31.165  -6.265 -63.799  0.00  0.00    +0.000 OA
ATOM      7  C   UNL     1      29.857  -6.252 -63.240  0.00  0.00    +0.000 C 
ATOM      8  C   UNL     1      29.420  -4.837 -62.828  0.00  0.00    +0.000 C 
ATOM      9  O   UNL     1      28.709  -4.827 -61.611  0.00  0.00    +0.000 OA
ATOM     10  C   UNL     1      28.098  -3.554 -61.382  0.00  0.00    +0.000 C 
ENDROOT
BRANCH   5  11
ATOM     11  C   UNL     1      32.729  -5.268 -65.289  0.00  0.00    +0.000 A 
ATOM     12  C   UNL     1      33.523  -4.127 -65.502  0.00  0.00    +0.000 A 
ATOM     13  C   UNL     1      34.781  -4.244 -66.099  0.00  0.00    +0.000 A 
ATOM     14  C   UNL     1      35.261  -5.500 -66.482  0.00  0.00    +0.000 A 
ATOM     15  C   UNL     1      34.483  -6.641 -66.264  0.00  0.00    +0.000 A 
ATOM     16  C   UNL     1      33.223  -6.527 -65.667  0.00  0.00    +0.000 A 
ENDBRANCH   5  11
BRANCH   1  18
ATOM     17  C   UNL     1      28.405  -0.833 -63.861  0.00  0.00    +0.000 C 
ATOM     18  N   UNL     1      28.366  -2.007 -63.303  0.00  0.00    +0.000 NA
BRANCH  17  19
ATOM     19  C   UNL     1      27.883  -0.670 -65.238  0.00  0.00    +0.000 A 
ATOM     20  C   UNL     1      26.929   0.329 -65.521  0.00  0.00    +0.000 A 
ATOM     21  C   UNL     1      26.434   0.490 -66.818  0.00  0.00    +0.000 A 
ATOM     22  C   UNL     1      26.889  -0.338 -67.847  0.00  0.00    +0.000 A 
ATOM     23  C   UNL     1      27.839  -1.325 -67.582  0.00  0.00    +0.000 A 
ATOM     24  C   UNL     1      28.336  -1.492 -66.285  0.00  0.00    +0.000 A 
ENDBRANCH  17  19
BRANCH  17  26
ATOM     25  H   UNL     1      29.082   1.157 -63.595  0.00  0.00    +0.000 HD
ATOM     26  O   UNL     1      28.941   0.253 -63.165  0.00  0.00    +0.000 OA
ENDBRANCH  17  26
ENDBRANCH   1  18
BRANCH  10  27
ATOM     27  O   UNL     1      27.973  -3.362 -59.984  0.00  0.00    +0.000 OA
ATOM     28  C   UNL     1      26.905  -4.133 -59.475  0.00  0.00    +0.000 C 
ENDBRANCH  10  27
BRANCH   2  29
ATOM     29  O   UNL     1      31.061  -1.585 -62.727  0.00  0.00    +0.000 OA
BRANCH  29  30
ATOM     30  S   UNL     1      31.915  -0.598 -61.643  0.00  0.00    +0.000 S 
ATOM     31  O   UNL     1      32.105  -1.288 -60.320  0.00  0.00    +0.000 OA
ATOM     32  O   UNL     1      31.178   0.695 -61.438  0.00  0.00    +0.000 OA
ATOM     33  C   UNL     1      33.512  -0.252 -62.341  0.00  0.00    +0.000 C 
ENDBRANCH  29  30
ENDBRANCH   2  29
TORSDOF 7
ENDMDL