ATOM      1  C   UNL     1      28.962   0.003 -62.526  0.00  0.00    +0.000 A 
ATOM      2  C   UNL     1      30.223  -0.077 -61.983  0.00  0.00    +0.000 A 
ATOM      3  N   UNL     1      30.114   0.327 -60.703  0.00  0.00    +0.000 N 
ATOM      4  N   UNL     1      28.850   0.656 -60.485  0.00  0.00    +0.000 NA
ATOM      5  N   UNL     1      28.123   0.465 -61.577  0.00  0.00    +0.000 NA
ENDROOT
BRANCH   1   8
ATOM      6  C   UNL     1      30.137  -2.306 -64.225  0.00  0.00    +0.000 C 
ATOM      7  N   UNL     1      29.087  -1.370 -64.633  0.00  0.00    +0.000 N 
ATOM      8  C   UNL     1      28.588  -0.334 -63.913  0.00  0.00    +0.000 A 
ATOM      9  N   UNL     1      27.685   0.393 -64.604  0.00  0.00    +0.000 NA
ATOM     10  C   UNL     1      27.600  -0.214 -65.804  0.00  0.00    +0.000 A 
ATOM     11  C   UNL     1      28.459  -1.304 -65.828  0.00  0.00    +0.000 A 
BRANCH  10  12
ATOM     12  C   UNL     1      26.700   0.262 -66.878  0.00  0.00    +0.000 A 
ATOM     13  C   UNL     1      25.776   1.298 -66.652  0.00  0.00    +0.000 A 
ATOM     14  C   UNL     1      24.934   1.732 -67.681  0.00  0.00    +0.000 A 
ATOM     15  C   UNL     1      25.017   1.147 -68.948  0.00  0.00    +0.000 A 
ATOM     16  F   UNL     1      24.201   1.569 -69.945  0.00  0.00    +0.000 F 
ATOM     17  C   UNL     1      25.946   0.132 -69.188  0.00  0.00    +0.000 A 
ATOM     18  C   UNL     1      26.788  -0.306 -68.160  0.00  0.00    +0.000 A 
ENDBRANCH  10  12
BRANCH  11  19
ATOM     19  C   UNL     1      28.728  -2.189 -66.981  0.00  0.00    +0.000 A 
ATOM     20  C   UNL     1      28.009  -3.383 -67.141  0.00  0.00    +0.000 A 
ATOM     21  C   UNL     1      28.296  -4.215 -68.224  0.00  0.00    +0.000 A 
ATOM     22  N   UNL     1      29.265  -3.870 -69.113  0.00  0.00    +0.000 NA
ATOM     23  C   UNL     1      29.977  -2.721 -68.979  0.00  0.00    +0.000 A 
ATOM     24  C   UNL     1      29.725  -1.860 -67.909  0.00  0.00    +0.000 A 
ENDBRANCH  11  19
ENDBRANCH   1   8
BRANCH   3  25
ATOM     25  C   UNL     1      31.180   0.518 -59.708  0.00  0.00    +0.000 C 
ATOM     26  C   UNL     1      32.449   1.189 -60.318  0.00  0.00    +0.000 C 
ATOM     27  O   UNL     1      32.887   2.280 -59.524  0.00  0.00    +0.000 OA
ATOM     28  C   UNL     1      31.893   3.290 -59.494  0.00  0.00    +0.000 C 
ATOM     29  C   UNL     1      30.642   2.816 -58.695  0.00  0.00    +0.000 C 
ATOM     30  C   UNL     1      30.647   1.286 -58.475  0.00  0.00    +0.000 C 
BRANCH  26  31
ATOM     31  O   UNL     1      33.479   0.240 -60.385  0.00  0.00    +0.000 OA
ATOM     32  H   UNL     1      34.237   0.678 -60.857  0.00  0.00    +0.000 HD
ENDBRANCH  26  31
BRANCH  29  33
ATOM     33  O   UNL     1      29.469   3.184 -59.375  0.00  0.00    +0.000 OA
ATOM     34  H   UNL     1      29.331   4.154 -59.212  0.00  0.00    +0.000 HD
ENDBRANCH  29  33
BRANCH  30  35
ATOM     35  O   UNL     1      31.456   0.973 -57.367  0.00  0.00    +0.000 OA
ATOM     36  H   UNL     1      30.926   1.179 -56.553  0.00  0.00    +0.000 HD
ENDBRANCH  30  35
BRANCH  28  37
ATOM     37  C   UNL     1      32.512   4.552 -58.872  0.00  0.00    +0.000 C 
BRANCH  37  38
ATOM     38  O   UNL     1      33.131   4.260 -57.648  0.00  0.00    +0.000 OA
ATOM     39  H   UNL     1      32.405   4.100 -56.992  0.00  0.00    +0.000 HD
ENDBRANCH  37  38
ENDBRANCH  28  37
ENDBRANCH   3  25
TORSDOF 9
ENDMDL