ATOM      1  C   UNL     1      89.976  22.755-105.039  0.00  0.00    +0.000 A 
ATOM      2  C   UNL     1      89.573  21.440-105.124  0.00  0.00    +0.000 A 
ATOM      3  N   UNL     1      90.475  20.822-105.908  0.00  0.00    +0.000 N 
ATOM      4  N   UNL     1      91.379  21.712-106.286  0.00  0.00    +0.000 NA
ATOM      5  N   UNL     1      91.102  22.899-105.766  0.00  0.00    +0.000 NA
ENDROOT
BRANCH   1   8
ATOM      6  C   UNL     1      87.373  24.233-105.839  0.00  0.00    +0.000 C 
ATOM      7  N   UNL     1      88.190  24.486-104.650  0.00  0.00    +0.000 N 
ATOM      8  C   UNL     1      89.308  23.821-104.268  0.00  0.00    +0.000 A 
ATOM      9  N   UNL     1      89.782  24.243-103.075  0.00  0.00    +0.000 NA
ATOM     10  C   UNL     1      88.938  25.222-102.696  0.00  0.00    +0.000 A 
ATOM     11  C   UNL     1      87.955  25.380-103.665  0.00  0.00    +0.000 A 
BRANCH  10  12
ATOM     12  C   UNL     1      89.109  25.985-101.440  0.00  0.00    +0.000 A 
ATOM     13  C   UNL     1      89.813  27.201-101.457  0.00  0.00    +0.000 A 
ATOM     14  C   UNL     1      89.976  27.941-100.282  0.00  0.00    +0.000 A 
ATOM     15  C   UNL     1      89.427  27.481 -99.082  0.00  0.00    +0.000 A 
ATOM     16  F   UNL     1      89.584  28.200 -97.944  0.00  0.00    +0.000 F 
ATOM     17  C   UNL     1      88.706  26.284 -99.058  0.00  0.00    +0.000 A 
ATOM     18  C   UNL     1      88.541  25.541-100.232  0.00  0.00    +0.000 A 
ENDBRANCH  10  12
BRANCH  11  19
ATOM     19  C   UNL     1      86.792  26.292-103.603  0.00  0.00    +0.000 A 
ATOM     20  C   UNL     1      85.713  26.009-102.754  0.00  0.00    +0.000 A 
ATOM     21  C   UNL     1      84.635  26.894-102.696  0.00  0.00    +0.000 A 
ATOM     22  N   UNL     1      84.635  28.022-103.457  0.00  0.00    +0.000 NA
ATOM     23  C   UNL     1      85.670  28.321-104.287  0.00  0.00    +0.000 A 
ATOM     24  C   UNL     1      86.769  27.463-104.373  0.00  0.00    +0.000 A 
ENDBRANCH  11  19
ENDBRANCH   1   8
BRANCH   3  25
ATOM     25  C   UNL     1      90.472  19.419-106.334  0.00  0.00    +0.000 C 
ATOM     26  C   UNL     1      91.251  19.246-107.666  0.00  0.00    +0.000 C 
ATOM     27  O   UNL     1      92.619  18.933-107.442  0.00  0.00    +0.000 OA
ATOM     28  C   UNL     1      92.831  17.688-106.776  0.00  0.00    +0.000 C 
ATOM     29  C   UNL     1      91.686  17.270-105.805  0.00  0.00    +0.000 C 
ATOM     30  C   UNL     1      91.035  18.523-105.205  0.00  0.00    +0.000 C 
BRANCH  26  31
ATOM     31  O   UNL     1      90.637  18.271-108.472  0.00  0.00    +0.000 OA
ATOM     32  H   UNL     1      91.072  18.326-109.362  0.00  0.00    +0.000 HD
ENDBRANCH  26  31
BRANCH  29  33
ATOM     33  O   UNL     1      92.163  16.417-104.792  0.00  0.00    +0.000 OA
ATOM     34  H   UNL     1      92.815  16.929-104.244  0.00  0.00    +0.000 HD
ENDBRANCH  29  33
BRANCH  30  35
ATOM     35  O   UNL     1      90.006  18.144-104.328  0.00  0.00    +0.000 OA
ATOM     36  H   UNL     1      89.786  18.947-103.785  0.00  0.00    +0.000 HD
ENDBRANCH  30  35
BRANCH  28  37
ATOM     37  C   UNL     1      93.162  16.588-107.799  0.00  0.00    +0.000 C 
BRANCH  37  38
ATOM     38  O   UNL     1      93.421  15.371-107.151  0.00  0.00    +0.000 OA
ATOM     39  H   UNL     1      92.550  14.904-107.058  0.00  0.00    +0.000 HD
ENDBRANCH  37  38
ENDBRANCH  28  37
ENDBRANCH   3  25
TORSDOF 9
ENDMDL