ATOM      1  C   UNL     1      31.365  -1.934 -63.948  0.00  0.00    +0.000 A 
ATOM      2  C   UNL     1      32.182  -0.862 -63.655  0.00  0.00    +0.000 A 
ATOM      3  N   UNL     1      32.632  -1.068 -62.402  0.00  0.00    +0.000 N 
ATOM      4  N   UNL     1      32.116  -2.200 -61.954  0.00  0.00    +0.000 NA
ATOM      5  N   UNL     1      31.342  -2.753 -62.877  0.00  0.00    +0.000 NA
ENDROOT
BRANCH   1   8
ATOM      6  C   UNL     1      31.875  -4.289 -65.888  0.00  0.00    +0.000 C 
ATOM      7  N   UNL     1      30.926  -3.189 -66.083  0.00  0.00    +0.000 N 
ATOM      8  C   UNL     1      30.665  -2.173 -65.224  0.00  0.00    +0.000 A 
ATOM      9  N   UNL     1      29.678  -1.362 -65.662  0.00  0.00    +0.000 NA
ATOM     10  C   UNL     1      29.313  -1.877 -66.854  0.00  0.00    +0.000 A 
ATOM     11  C   UNL     1      30.082  -3.002 -67.121  0.00  0.00    +0.000 A 
BRANCH  10  12
ATOM     12  C   UNL     1      28.282  -1.252 -67.713  0.00  0.00    +0.000 A 
ATOM     13  C   UNL     1      28.502  -1.053 -69.089  0.00  0.00    +0.000 A 
ATOM     14  C   UNL     1      27.524  -0.443 -69.880  0.00  0.00    +0.000 A 
ATOM     15  C   UNL     1      26.323  -0.014 -69.305  0.00  0.00    +0.000 A 
ATOM     16  F   UNL     1      25.377   0.581 -70.073  0.00  0.00    +0.000 F 
ATOM     17  C   UNL     1      26.104  -0.189 -67.935  0.00  0.00    +0.000 A 
ATOM     18  C   UNL     1      27.081  -0.799 -67.141  0.00  0.00    +0.000 A 
ENDBRANCH  10  12
BRANCH  11  19
ATOM     19  C   UNL     1      29.961  -3.898 -68.292  0.00  0.00    +0.000 A 
ATOM     20  C   UNL     1      30.859  -3.790 -69.363  0.00  0.00    +0.000 A 
ATOM     21  C   UNL     1      30.743  -4.662 -70.447  0.00  0.00    +0.000 A 
ATOM     22  N   UNL     1      29.769  -5.609 -70.459  0.00  0.00    +0.000 NA
ATOM     23  C   UNL     1      28.887  -5.738 -69.432  0.00  0.00    +0.000 A 
ATOM     24  C   UNL     1      28.968  -4.887 -68.328  0.00  0.00    +0.000 A 
ENDBRANCH  11  19
ENDBRANCH   1   8
BRANCH   3  25
ATOM     25  C   UNL     1      33.510  -0.198 -61.612  0.00  0.00    +0.000 C 
ATOM     26  C   UNL     1      34.836   0.073 -62.349  0.00  0.00    +0.000 C 
ATOM     27  O   UNL     1      35.680   0.881 -61.546  0.00  0.00    +0.000 OA
ATOM     28  C   UNL     1      35.123   2.174 -61.373  0.00  0.00    +0.000 C 
ATOM     29  C   UNL     1      33.791   2.082 -60.577  0.00  0.00    +0.000 C 
ATOM     30  C   UNL     1      32.808   1.131 -61.290  0.00  0.00    +0.000 C 
BRANCH  26  31
ATOM     31  O   UNL     1      35.478  -1.149 -62.596  0.00  0.00    +0.000 OA
ATOM     32  H   UNL     1      36.283  -0.940 -63.139  0.00  0.00    +0.000 HD
ENDBRANCH  26  31
BRANCH  29  33
ATOM     33  O   UNL     1      33.206   3.350 -60.403  0.00  0.00    +0.000 OA
ATOM     34  H   UNL     1      33.033   3.728 -61.304  0.00  0.00    +0.000 HD
ENDBRANCH  29  33
BRANCH  30  35
ATOM     35  O   UNL     1      31.697   0.880 -60.467  0.00  0.00    +0.000 OA
ATOM     36  H   UNL     1      31.096   1.666 -60.546  0.00  0.00    +0.000 HD
ENDBRANCH  30  35
BRANCH  28  37
ATOM     37  C   UNL     1      36.160   3.038 -60.636  0.00  0.00    +0.000 C 
BRANCH  37  38
ATOM     38  O   UNL     1      35.847   4.403 -60.724  0.00  0.00    +0.000 OA
ATOM     39  H   UNL     1      36.066   4.687 -61.650  0.00  0.00    +0.000 HD
ENDBRANCH  37  38
ENDBRANCH  28  37
ENDBRANCH   3  25
TORSDOF 9
ENDMDL