ATOM      1  C   UNL     1      85.230  17.364 -98.350  0.00  0.00    +0.000 A 
ATOM      2  C   UNL     1      84.802  17.701 -99.613  0.00  0.00    +0.000 A 
ATOM      3  N   UNL     1      84.596  16.542-100.268  0.00  0.00    +0.000 N 
ATOM      4  N   UNL     1      84.902  15.549 -99.448  0.00  0.00    +0.000 NA
ATOM      5  N   UNL     1      85.288  16.019 -98.269  0.00  0.00    +0.000 NA
ENDROOT
BRANCH   1   8
ATOM      6  C   UNL     1      87.956  18.794 -98.001  0.00  0.00    +0.000 C 
ATOM      7  N   UNL     1      86.773  18.952 -97.152  0.00  0.00    +0.000 N 
ATOM      8  C   UNL     1      85.586  18.307 -97.272  0.00  0.00    +0.000 A 
ATOM      9  N   UNL     1      84.725  18.612 -96.279  0.00  0.00    +0.000 NA
ATOM     10  C   UNL     1      85.388  19.494 -95.507  0.00  0.00    +0.000 A 
ATOM     11  C   UNL     1      86.650  19.712 -96.040  0.00  0.00    +0.000 A 
BRANCH  10  12
ATOM     12  C   UNL     1      84.793  20.102 -94.296  0.00  0.00    +0.000 A 
ATOM     13  C   UNL     1      84.521  21.481 -94.228  0.00  0.00    +0.000 A 
ATOM     14  C   UNL     1      83.959  22.035 -93.074  0.00  0.00    +0.000 A 
ATOM     15  C   UNL     1      83.648  21.218 -91.984  0.00  0.00    +0.000 A 
ATOM     16  F   UNL     1      83.103  21.757 -90.866  0.00  0.00    +0.000 F 
ATOM     17  C   UNL     1      83.895  19.844 -92.049  0.00  0.00    +0.000 A 
ATOM     18  C   UNL     1      84.459  19.287 -93.202  0.00  0.00    +0.000 A 
ENDBRANCH  10  12
BRANCH  11  19
ATOM     19  C   UNL     1      87.722  20.546 -95.457  0.00  0.00    +0.000 A 
ATOM     20  C   UNL     1      88.622  19.999 -94.531  0.00  0.00    +0.000 A 
ATOM     21  C   UNL     1      89.613  20.812 -93.976  0.00  0.00    +0.000 A 
ATOM     22  N   UNL     1      89.699  22.121 -94.330  0.00  0.00    +0.000 NA
ATOM     23  C   UNL     1      88.837  22.676 -95.221  0.00  0.00    +0.000 A 
ATOM     24  C   UNL     1      87.830  21.901 -95.800  0.00  0.00    +0.000 A 
ENDBRANCH  11  19
ENDBRANCH   1   8
BRANCH   3  25
ATOM     25  C   UNL     1      84.224  16.338-101.677  0.00  0.00    +0.000 C 
ATOM     26  C   UNL     1      84.680  17.519-102.588  0.00  0.00    +0.000 C 
ATOM     27  O   UNL     1      85.361  17.047-103.740  0.00  0.00    +0.000 OA
ATOM     28  C   UNL     1      86.548  16.371-103.362  0.00  0.00    +0.000 C 
ATOM     29  C   UNL     1      86.218  15.033-102.634  0.00  0.00    +0.000 C 
ATOM     30  C   UNL     1      84.740  14.972-102.186  0.00  0.00    +0.000 C 
BRANCH  26  31
ATOM     31  O   UNL     1      83.551  18.241-102.998  0.00  0.00    +0.000 OA
ATOM     32  H   UNL     1      83.886  19.030-103.500  0.00  0.00    +0.000 HD
ENDBRANCH  26  31
BRANCH  29  33
ATOM     33  O   UNL     1      87.051  14.878-101.513  0.00  0.00    +0.000 OA
ATOM     34  H   UNL     1      87.940  14.593-101.849  0.00  0.00    +0.000 HD
ENDBRANCH  29  33
BRANCH  30  35
ATOM     35  O   UNL     1      83.938  14.565-103.269  0.00  0.00    +0.000 OA
ATOM     36  H   UNL     1      84.046  13.582-103.357  0.00  0.00    +0.000 HD
ENDBRANCH  30  35
BRANCH  28  37
ATOM     37  C   UNL     1      87.386  16.131-104.628  0.00  0.00    +0.000 C 
BRANCH  37  38
ATOM     38  O   UNL     1      86.652  15.429-105.593  0.00  0.00    +0.000 OA
ATOM     39  H   UNL     1      86.579  14.493-105.272  0.00  0.00    +0.000 HD
ENDBRANCH  37  38
ENDBRANCH  28  37
ENDBRANCH   3  25
TORSDOF 9
ENDMDL