ATOM      1  C   UNL     1      90.228  21.125-104.861  0.00  0.00    +0.000 A 
ATOM      2  C   UNL     1      90.195  19.776-105.146  0.00  0.00    +0.000 A 
ATOM      3  N   UNL     1      91.150  19.567-106.072  0.00  0.00    +0.000 N 
ATOM      4  N   UNL     1      91.736  20.723-106.337  0.00  0.00    +0.000 NA
ATOM      5  N   UNL     1      91.194  21.691-105.612  0.00  0.00    +0.000 NA
ENDROOT
BRANCH   1   8
ATOM      6  C   UNL     1      90.052  20.561-101.824  0.00  0.00    +0.000 C 
ATOM      7  N   UNL     1      89.269  21.547-102.573  0.00  0.00    +0.000 N 
ATOM      8  C   UNL     1      89.366  21.833-103.894  0.00  0.00    +0.000 A 
ATOM      9  N   UNL     1      88.583  22.870-104.261  0.00  0.00    +0.000 NA
ATOM     10  C   UNL     1      87.961  23.248-103.129  0.00  0.00    +0.000 A 
ATOM     11  C   UNL     1      88.375  22.436-102.084  0.00  0.00    +0.000 A 
BRANCH  10  12
ATOM     12  C   UNL     1      86.994  24.366-103.077  0.00  0.00    +0.000 A 
ATOM     13  C   UNL     1      86.702  25.020-101.866  0.00  0.00    +0.000 A 
ATOM     14  C   UNL     1      85.780  26.072-101.837  0.00  0.00    +0.000 A 
ATOM     15  C   UNL     1      85.141  26.476-103.013  0.00  0.00    +0.000 A 
ATOM     16  F   UNL     1      84.248  27.496-102.983  0.00  0.00    +0.000 F 
ATOM     17  C   UNL     1      85.413  25.821-104.218  0.00  0.00    +0.000 A 
ATOM     18  C   UNL     1      86.329  24.764-104.249  0.00  0.00    +0.000 A 
ENDBRANCH  10  12
BRANCH  11  19
ATOM     19  C   UNL     1      87.998  22.569-100.661  0.00  0.00    +0.000 A 
ATOM     20  C   UNL     1      86.826  21.970-100.180  0.00  0.00    +0.000 A 
ATOM     21  C   UNL     1      86.479  22.125 -98.837  0.00  0.00    +0.000 A 
ATOM     22  N   UNL     1      87.274  22.853 -98.006  0.00  0.00    +0.000 NA
ATOM     23  C   UNL     1      88.415  23.446 -98.449  0.00  0.00    +0.000 A 
ATOM     24  C   UNL     1      88.797  23.319 -99.786  0.00  0.00    +0.000 A 
ENDBRANCH  11  19
ENDBRANCH   1   8
BRANCH   3  25
ATOM     25  C   UNL     1      91.533  18.292-106.689  0.00  0.00    +0.000 C 
ATOM     26  C   UNL     1      91.378  18.335-108.233  0.00  0.00    +0.000 C 
ATOM     27  O   UNL     1      92.576  18.791-108.837  0.00  0.00    +0.000 OA
ATOM     28  C   UNL     1      93.634  17.842-108.721  0.00  0.00    +0.000 C 
ATOM     29  C   UNL     1      93.631  17.052-107.373  0.00  0.00    +0.000 C 
ATOM     30  C   UNL     1      92.973  17.901-106.270  0.00  0.00    +0.000 C 
BRANCH  26  31
ATOM     31  O   UNL     1      90.322  19.186-108.593  0.00  0.00    +0.000 OA
ATOM     32  H   UNL     1      90.220  19.105-109.576  0.00  0.00    +0.000 HD
ENDBRANCH  26  31
BRANCH  29  33
ATOM     33  O   UNL     1      94.936  16.667-107.008  0.00  0.00    +0.000 OA
ATOM     34  H   UNL     1      95.465  17.491-106.853  0.00  0.00    +0.000 HD
ENDBRANCH  29  33
BRANCH  30  35
ATOM     35  O   UNL     1      92.926  17.182-105.064  0.00  0.00    +0.000 OA
ATOM     36  H   UNL     1      93.824  17.262-104.644  0.00  0.00    +0.000 HD
ENDBRANCH  30  35
BRANCH  28  37
ATOM     37  C   UNL     1      93.643  16.905-109.943  0.00  0.00    +0.000 C 
BRANCH  37  38
ATOM     38  O   UNL     1      94.491  15.808-109.725  0.00  0.00    +0.000 OA
ATOM     39  H   UNL     1      95.420  16.152-109.793  0.00  0.00    +0.000 HD
ENDBRANCH  37  38
ENDBRANCH  28  37
ENDBRANCH   3  25
TORSDOF 9
ENDMDL