ATOM      1  C   UNL     1      90.247  21.124-104.950  0.00  0.00    +0.000 A 
ATOM      2  C   UNL     1      90.197  19.775-105.235  0.00  0.00    +0.000 A 
ATOM      3  N   UNL     1      91.153  19.552-106.152  0.00  0.00    +0.000 N 
ATOM      4  N   UNL     1      91.763  20.699-106.411  0.00  0.00    +0.000 NA
ATOM      5  N   UNL     1      91.230  21.675-105.689  0.00  0.00    +0.000 NA
ENDROOT
BRANCH   1   8
ATOM      6  C   UNL     1      90.034  20.499-101.923  0.00  0.00    +0.000 C 
ATOM      7  N   UNL     1      89.291  21.527-102.657  0.00  0.00    +0.000 N 
ATOM      8  C   UNL     1      89.403  21.838-103.972  0.00  0.00    +0.000 A 
ATOM      9  N   UNL     1      88.636  22.891-104.325  0.00  0.00    +0.000 NA
ATOM     10  C   UNL     1      88.001  23.250-103.192  0.00  0.00    +0.000 A 
ATOM     11  C   UNL     1      88.397  22.410-102.160  0.00  0.00    +0.000 A 
BRANCH  10  12
ATOM     12  C   UNL     1      87.028  24.363-103.137  0.00  0.00    +0.000 A 
ATOM     13  C   UNL     1      86.323  24.726-104.297  0.00  0.00    +0.000 A 
ATOM     14  C   UNL     1      85.395  25.772-104.262  0.00  0.00    +0.000 A 
ATOM     15  C   UNL     1      85.151  26.454-103.066  0.00  0.00    +0.000 A 
ATOM     16  F   UNL     1      84.252  27.467-103.035  0.00  0.00    +0.000 F 
ATOM     17  C   UNL     1      85.831  26.084-101.903  0.00  0.00    +0.000 A 
ATOM     18  C   UNL     1      86.760  25.040-101.933  0.00  0.00    +0.000 A 
ENDBRANCH  10  12
BRANCH  11  19
ATOM     19  C   UNL     1      87.994  22.505-100.740  0.00  0.00    +0.000 A 
ATOM     20  C   UNL     1      86.802  21.914-100.301  0.00  0.00    +0.000 A 
ATOM     21  C   UNL     1      86.431  22.030 -98.959  0.00  0.00    +0.000 A 
ATOM     22  N   UNL     1      87.219  22.717 -98.090  0.00  0.00    +0.000 NA
ATOM     23  C   UNL     1      88.378  23.304 -98.491  0.00  0.00    +0.000 A 
ATOM     24  C   UNL     1      88.786  23.210 -99.824  0.00  0.00    +0.000 A 
ENDBRANCH  11  19
ENDBRANCH   1   8
BRANCH   3  25
ATOM     25  C   UNL     1      91.506  18.261-106.753  0.00  0.00    +0.000 C 
ATOM     26  C   UNL     1      91.413  18.319-108.300  0.00  0.00    +0.000 C 
ATOM     27  O   UNL     1      92.621  18.820-108.841  0.00  0.00    +0.000 OA
ATOM     28  C   UNL     1      93.702  17.898-108.699  0.00  0.00    +0.000 C 
ATOM     29  C   UNL     1      93.651  17.045-107.395  0.00  0.00    +0.000 C 
ATOM     30  C   UNL     1      92.927  17.840-106.292  0.00  0.00    +0.000 C 
BRANCH  26  31
ATOM     31  O   UNL     1      90.358  19.151-108.705  0.00  0.00    +0.000 OA
ATOM     32  H   UNL     1      89.516  18.684-108.462  0.00  0.00    +0.000 HD
ENDBRANCH  26  31
BRANCH  29  33
ATOM     33  O   UNL     1      94.958  16.732-106.986  0.00  0.00    +0.000 OA
ATOM     34  H   UNL     1      94.896  15.934-106.399  0.00  0.00    +0.000 HD
ENDBRANCH  29  33
BRANCH  30  35
ATOM     35  O   UNL     1      92.866  17.113-105.090  0.00  0.00    +0.000 OA
ATOM     36  H   UNL     1      92.396  16.258-105.278  0.00  0.00    +0.000 HD
ENDBRANCH  30  35
BRANCH  28  37
ATOM     37  C   UNL     1      93.817  17.027-109.958  0.00  0.00    +0.000 C 
BRANCH  37  38
ATOM     38  O   UNL     1      94.462  15.821-109.653  0.00  0.00    +0.000 OA
ATOM     39  H   UNL     1      94.495  15.304-110.499  0.00  0.00    +0.000 HD
ENDBRANCH  37  38
ENDBRANCH  28  37
ENDBRANCH   3  25
TORSDOF 9
ENDMDL