ATOM      1  C   UNL     1      31.584  -1.913 -63.968  0.00  0.00    +0.000 A 
ATOM      2  C   UNL     1      32.481  -0.890 -63.746  0.00  0.00    +0.000 A 
ATOM      3  N   UNL     1      32.882  -1.012 -62.470  0.00  0.00    +0.000 N 
ATOM      4  N   UNL     1      32.254  -2.047 -61.933  0.00  0.00    +0.000 NA
ATOM      5  N   UNL     1      31.456  -2.616 -62.824  0.00  0.00    +0.000 NA
ENDROOT
BRANCH   1   8
ATOM      6  C   UNL     1      31.955  -4.381 -65.809  0.00  0.00    +0.000 C 
ATOM      7  N   UNL     1      31.012  -3.278 -66.005  0.00  0.00    +0.000 N 
ATOM      8  C   UNL     1      30.861  -2.178 -65.227  0.00  0.00    +0.000 A 
ATOM      9  N   UNL     1      29.950  -1.313 -65.720  0.00  0.00    +0.000 NA
ATOM     10  C   UNL     1      29.494  -1.898 -66.847  0.00  0.00    +0.000 A 
ATOM     11  C   UNL     1      30.142  -3.112 -67.025  0.00  0.00    +0.000 A 
BRANCH  10  12
ATOM     12  C   UNL     1      28.444  -1.291 -67.694  0.00  0.00    +0.000 A 
ATOM     13  C   UNL     1      27.244  -0.809 -67.140  0.00  0.00    +0.000 A 
ATOM     14  C   UNL     1      26.270  -0.230 -67.958  0.00  0.00    +0.000 A 
ATOM     15  C   UNL     1      26.488  -0.113 -69.334  0.00  0.00    +0.000 A 
ATOM     16  F   UNL     1      25.543   0.452 -70.125  0.00  0.00    +0.000 F 
ATOM     17  C   UNL     1      27.685  -0.570 -69.891  0.00  0.00    +0.000 A 
ATOM     18  C   UNL     1      28.662  -1.151 -69.076  0.00  0.00    +0.000 A 
ENDBRANCH  10  12
BRANCH  11  19
ATOM     19  C   UNL     1      29.991  -4.033 -68.172  0.00  0.00    +0.000 A 
ATOM     20  C   UNL     1      28.939  -4.960 -68.204  0.00  0.00    +0.000 A 
ATOM     21  C   UNL     1      28.797  -5.799 -69.312  0.00  0.00    +0.000 A 
ATOM     22  N   UNL     1      29.672  -5.713 -70.349  0.00  0.00    +0.000 NA
ATOM     23  C   UNL     1      30.701  -4.825 -70.343  0.00  0.00    +0.000 A 
ATOM     24  C   UNL     1      30.879  -3.966 -69.255  0.00  0.00    +0.000 A 
ENDBRANCH  11  19
ENDBRANCH   1   8
BRANCH   3  25
ATOM     25  C   UNL     1      33.816  -0.132 -61.762  0.00  0.00    +0.000 C 
ATOM     26  C   UNL     1      34.873   0.435 -62.731  0.00  0.00    +0.000 C 
ATOM     27  O   UNL     1      35.776   1.296 -62.052  0.00  0.00    +0.000 OA
ATOM     28  C   UNL     1      35.111   2.422 -61.494  0.00  0.00    +0.000 C 
ATOM     29  C   UNL     1      34.083   1.979 -60.424  0.00  0.00    +0.000 C 
ATOM     30  C   UNL     1      33.069   1.011 -61.049  0.00  0.00    +0.000 C 
BRANCH  26  31
ATOM     31  O   UNL     1      34.268   1.092 -63.819  0.00  0.00    +0.000 OA
ATOM     32  H   UNL     1      35.001   1.323 -64.448  0.00  0.00    +0.000 HD
ENDBRANCH  26  31
BRANCH  29  33
ATOM     33  O   UNL     1      33.391   3.096 -59.921  0.00  0.00    +0.000 OA
ATOM     34  H   UNL     1      33.859   3.382 -59.092  0.00  0.00    +0.000 HD
ENDBRANCH  29  33
BRANCH  30  35
ATOM     35  O   UNL     1      32.246   0.491 -60.036  0.00  0.00    +0.000 OA
ATOM     36  H   UNL     1      31.420   0.160 -60.476  0.00  0.00    +0.000 HD
ENDBRANCH  30  35
BRANCH  28  37
ATOM     37  C   UNL     1      36.170   3.351 -60.884  0.00  0.00    +0.000 C 
BRANCH  37  38
ATOM     38  O   UNL     1      35.619   4.613 -60.613  0.00  0.00    +0.000 OA
ATOM     39  H   UNL     1      35.052   4.508 -59.802  0.00  0.00    +0.000 HD
ENDBRANCH  37  38
ENDBRANCH  28  37
ENDBRANCH   3  25
TORSDOF 9
ENDMDL