ATOM      1  C   UNL     1      31.515  -1.966 -63.860  0.00  0.00    +0.000 A 
ATOM      2  C   UNL     1      32.280  -0.861 -63.553  0.00  0.00    +0.000 A 
ATOM      3  N   UNL     1      32.710  -1.041 -62.293  0.00  0.00    +0.000 N 
ATOM      4  N   UNL     1      32.223  -2.188 -61.845  0.00  0.00    +0.000 NA
ATOM      5  N   UNL     1      31.492  -2.775 -62.781  0.00  0.00    +0.000 NA
ENDROOT
BRANCH   1   8
ATOM      6  C   UNL     1      31.942  -4.382 -65.753  0.00  0.00    +0.000 C 
ATOM      7  N   UNL     1      30.982  -3.292 -65.932  0.00  0.00    +0.000 N 
ATOM      8  C   UNL     1      30.810  -2.210 -65.133  0.00  0.00    +0.000 A 
ATOM      9  N   UNL     1      29.894  -1.345 -65.617  0.00  0.00    +0.000 NA
ATOM     10  C   UNL     1      29.458  -1.909 -66.762  0.00  0.00    +0.000 A 
ATOM     11  C   UNL     1      30.122  -3.112 -66.960  0.00  0.00    +0.000 A 
BRANCH  10  12
ATOM     12  C   UNL     1      28.412  -1.296 -67.610  0.00  0.00    +0.000 A 
ATOM     13  C   UNL     1      28.645  -1.127 -68.985  0.00  0.00    +0.000 A 
ATOM     14  C   UNL     1      27.672  -0.541 -69.801  0.00  0.00    +0.000 A 
ATOM     15  C   UNL     1      26.464  -0.109 -69.249  0.00  0.00    +0.000 A 
ATOM     16  F   UNL     1      25.521   0.460 -70.040  0.00  0.00    +0.000 F 
ATOM     17  C   UNL     1      26.231  -0.253 -67.878  0.00  0.00    +0.000 A 
ATOM     18  C   UNL     1      27.202  -0.838 -67.060  0.00  0.00    +0.000 A 
ENDBRANCH  10  12
BRANCH  11  19
ATOM     19  C   UNL     1      29.996  -4.007 -68.130  0.00  0.00    +0.000 A 
ATOM     20  C   UNL     1      30.901  -3.912 -69.196  0.00  0.00    +0.000 A 
ATOM     21  C   UNL     1      30.752  -4.752 -70.301  0.00  0.00    +0.000 A 
ATOM     22  N   UNL     1      29.734  -5.653 -70.341  0.00  0.00    +0.000 NA
ATOM     23  C   UNL     1      28.840  -5.763 -69.323  0.00  0.00    +0.000 A 
ATOM     24  C   UNL     1      28.953  -4.942 -68.198  0.00  0.00    +0.000 A 
ENDBRANCH  11  19
ENDBRANCH   1   8
BRANCH   3  25
ATOM     25  C   UNL     1      33.513  -0.101 -61.505  0.00  0.00    +0.000 C 
ATOM     26  C   UNL     1      34.956  -0.039 -62.037  0.00  0.00    +0.000 C 
ATOM     27  O   UNL     1      35.736   0.877 -61.282  0.00  0.00    +0.000 OA
ATOM     28  C   UNL     1      35.239   2.205 -61.381  0.00  0.00    +0.000 C 
ATOM     29  C   UNL     1      33.811   2.302 -60.786  0.00  0.00    +0.000 C 
ATOM     30  C   UNL     1      32.883   1.304 -61.506  0.00  0.00    +0.000 C 
BRANCH  26  31
ATOM     31  O   UNL     1      34.982   0.280 -63.407  0.00  0.00    +0.000 OA
ATOM     32  H   UNL     1      35.925   0.182 -63.699  0.00  0.00    +0.000 HD
ENDBRANCH  26  31
BRANCH  29  33
ATOM     33  O   UNL     1      33.313   3.606 -60.948  0.00  0.00    +0.000 OA
ATOM     34  H   UNL     1      32.585   3.720 -60.283  0.00  0.00    +0.000 HD
ENDBRANCH  29  33
BRANCH  30  35
ATOM     35  O   UNL     1      31.608   1.282 -60.912  0.00  0.00    +0.000 OA
ATOM     36  H   UNL     1      31.718   0.987 -59.971  0.00  0.00    +0.000 HD
ENDBRANCH  30  35
BRANCH  28  37
ATOM     37  C   UNL     1      36.217   3.127 -60.639  0.00  0.00    +0.000 C 
BRANCH  37  38
ATOM     38  O   UNL     1      35.787   4.458 -60.710  0.00  0.00    +0.000 OA
ATOM     39  H   UNL     1      36.452   4.990 -60.199  0.00  0.00    +0.000 HD
ENDBRANCH  37  38
ENDBRANCH  28  37
ENDBRANCH   3  25
TORSDOF 9
ENDMDL