REMARK  Name = ZINC000004027857
REMARK  5 active torsions:
REMARK  status: ('A' for Active; 'I' for Inactive)
REMARK    1  A    between atoms: C_1  and  C_2
REMARK    2  A    between atoms: N_4  and  C_5
REMARK    3  A    between atoms: C_6  and  O_7
REMARK    4  A    between atoms: C_10  and  C_11
REMARK    5  A    between atoms: C_21  and  O_22
REMARK                            x       y       z     vdW  Elec       q    Type
REMARK                         _______ _______ _______ _____ _____    ______ ____
ROOT
ATOM      1  C   UNL     1      -1.854   0.530  -2.243  0.00  0.00    +0.000 C 
ATOM      2  C   UNL     1      -0.967  -0.424  -1.412  0.00  0.00    +0.000 C 
ATOM      3  C   UNL     1      -0.494   0.298  -0.144  0.00  0.00    +0.000 C 
ATOM      4  O   UNL     1       0.222  -0.595   0.691  0.00  0.00    +0.000 OA
ATOM      5  C   UNL     1       0.419  -0.077   2.007  0.00  0.00    +0.000 C 
ATOM      6  O   UNL     1       0.177   1.321   2.106  0.00  0.00    +0.000 OA
ATOM      7  C   UNL     1      -1.191   1.597   1.865  0.00  0.00    +0.000 C 
ATOM      8  C   UNL     1      -1.705   0.897   0.593  0.00  0.00    +0.000 C 
ATOM      9  O   UNL     1      -2.384   1.821  -0.240  0.00  0.00    +0.000 OA
ATOM     10  C   UNL     1      -2.957   1.148  -1.351  0.00  0.00    +0.000 C 
ENDROOT
BRANCH   5  11
ATOM     11  C   UNL     1       1.843  -0.342   2.418  0.00  0.00    +0.000 A 
ATOM     12  C   UNL     1       2.903   0.151   1.637  0.00  0.00    +0.000 A 
ATOM     13  C   UNL     1       4.228  -0.081   2.019  0.00  0.00    +0.000 A 
ATOM     14  C   UNL     1       4.505  -0.804   3.182  0.00  0.00    +0.000 A 
ATOM     15  C   UNL     1       3.458  -1.293   3.968  0.00  0.00    +0.000 A 
ATOM     16  C   UNL     1       2.131  -1.062   3.591  0.00  0.00    +0.000 A 
ENDBRANCH   5  11
BRANCH   1  20
ATOM     17  C   UNL     1      -2.324  -1.292  -5.659  0.00  0.00    +0.000 C 
ATOM     18  C   UNL     1      -1.681  -0.528  -4.548  0.00  0.00    +0.000 C 
ATOM     19  O   UNL     1      -0.463  -0.213  -4.633  0.00  0.00    +0.000 OA
ATOM     20  N   UNL     1      -2.444  -0.177  -3.386  0.00  0.00    +0.000 N 
ATOM     21  H   UNL     1      -3.460  -0.425  -3.369  0.00  0.00    +0.000 HD
ENDBRANCH   1  20
BRANCH   2  22
ATOM     22  O   UNL     1      -1.682  -1.582  -1.057  0.00  0.00    +0.000 OA
ATOM     23  H   UNL     1      -1.619  -2.209  -1.824  0.00  0.00    +0.000 HD
ENDBRANCH   2  22
BRANCH  10  24
ATOM     24  O   UNL     1      -3.688   2.073  -2.110  0.00  0.00    +0.000 OA
ATOM     25  H   UNL     1      -4.450   2.362  -1.543  0.00  0.00    +0.000 HD
ENDBRANCH  10  24
TORSDOF 4
