REMARK  Name = 439174
REMARK  8 active torsions:
REMARK  status: ('A' for Active; 'I' for Inactive)
REMARK    1  A    between atoms: O_2  and  C_3
REMARK    2  A    between atoms: C_3  and  C_27
REMARK    3  A    between atoms: N_4  and  C_5
REMARK    4  A    between atoms: C_7  and  O_9
REMARK    5  A    between atoms: C_12  and  C_14
REMARK    6  A    between atoms: C_14  and  O_17
REMARK    7  A    between atoms: C_19  and  O_21
REMARK    8  A    between atoms: C_23  and  O_25
REMARK                            x       y       z     vdW  Elec       q    Type
REMARK                         _______ _______ _______ _____ _____    ______ ____
ROOT
ATOM      1  C   UNL     1       0.552   0.963  -1.123  0.00  0.00    +0.000 C 
ATOM      2  C   UNL     1       1.627  -0.048  -1.557  0.00  0.00    +0.000 C 
ATOM      3  O   UNL     1       1.133  -1.378  -1.495  0.00  0.00    +0.000 OA
ATOM      4  C   UNL     1       0.782  -1.749  -0.170  0.00  0.00    +0.000 C 
ATOM      5  C   UNL     1      -0.363  -0.853   0.364  0.00  0.00    +0.000 C 
ATOM      6  C   UNL     1       0.056   0.627   0.293  0.00  0.00    +0.000 C 
ENDROOT
BRANCH   1   8
ATOM      7  C   UNL     1       0.529   3.407  -1.556  0.00  0.00    +0.000 C 
ATOM      8  N   UNL     1       1.119   2.316  -1.153  0.00  0.00    +0.000 NA
ATOM      9  C   UNL     1      -0.865   3.415  -2.112  0.00  0.00    +0.000 C 
BRANCH   7  11
ATOM     10  H   UNL     1       2.168   4.654  -1.134  0.00  0.00    +0.000 HD
ATOM     11  O   UNL     1       1.222   4.612  -1.494  0.00  0.00    +0.000 OA
ENDBRANCH   7  11
ENDBRANCH   1   8
BRANCH   2  12
ATOM     12  O   UNL     1       2.799   0.098  -0.793  0.00  0.00    +0.000 OA
ATOM     13  H   UNL     1       3.476  -0.501  -1.202  0.00  0.00    +0.000 HD
ENDBRANCH   2  12
BRANCH   5  14
ATOM     14  O   UNL     1      -0.650  -1.194   1.697  0.00  0.00    +0.000 OA
ATOM     15  H   UNL     1      -1.597  -0.945   1.862  0.00  0.00    +0.000 HD
ENDBRANCH   5  14
BRANCH   6  16
ATOM     16  O   UNL     1      -1.036   1.448   0.615  0.00  0.00    +0.000 OA
ATOM     17  H   UNL     1      -1.068   1.515   1.605  0.00  0.00    +0.000 HD
ENDBRANCH   6  16
BRANCH   4  18
ATOM     18  C   UNL     1       0.368  -3.230  -0.194  0.00  0.00    +0.000 C 
BRANCH  18  19
ATOM     19  O   UNL     1       0.192  -3.733   1.104  0.00  0.00    +0.000 OA
ATOM     20  H   UNL     1       1.100  -3.862   1.485  0.00  0.00    +0.000 HD
ENDBRANCH  18  19
ENDBRANCH   4  18
TORSDOF 7
