REMARK  Name = 441477
REMARK  6 active torsions:
REMARK  status: ('A' for Active; 'I' for Inactive)
REMARK    1  A    between atoms: N_1  and  C_2
REMARK    2  A    between atoms: C_3  and  O_4
REMARK    3  A    between atoms: C_6  and  C_7
REMARK    4  A    between atoms: C_7  and  O_8
REMARK    5  A    between atoms: C_9  and  O_10
REMARK    6  A    between atoms: C_11  and  O_12
REMARK                            x       y       z     vdW  Elec       q    Type
REMARK                         _______ _______ _______ _____ _____    ______ ____
ROOT
ATOM      1  C   UNL     1      -1.466  -0.391   0.342  0.00  0.00    +0.000 C 
ATOM      2  C   UNL     1      -0.716  -1.344  -0.622  0.00  0.00    +0.000 C 
ATOM      3  O   UNL     1       0.682  -1.305  -0.385  0.00  0.00    +0.000 OA
ATOM      4  C   UNL     1       1.205  -0.022  -0.684  0.00  0.00    +0.000 C 
ATOM      5  C   UNL     1       0.624   1.035   0.282  0.00  0.00    +0.000 C 
ATOM      6  C   UNL     1      -0.911   1.041   0.183  0.00  0.00    +0.000 C 
ENDROOT
BRANCH   1   7
ATOM      7  N   UNL     1      -2.903  -0.409   0.052  0.00  0.00    +0.000 NA
ATOM      8  H   UNL     1      -3.393   0.178   0.765  0.00  0.00    +0.000 HD
ATOM      9  H   UNL     1      -3.262  -1.379   0.202  0.00  0.00    +0.000 HD
ENDBRANCH   1   7
BRANCH   2  10
ATOM     10  O   UNL     1      -1.170  -2.662  -0.457  0.00  0.00    +0.000 OA
ATOM     11  H   UNL     1      -0.877  -2.962   0.444  0.00  0.00    +0.000 HD
ENDBRANCH   2  10
BRANCH   5  12
ATOM     12  O   UNL     1       1.124   2.305  -0.052  0.00  0.00    +0.000 OA
ATOM     13  H   UNL     1       1.025   2.876   0.754  0.00  0.00    +0.000 HD
ENDBRANCH   5  12
BRANCH   6  14
ATOM     14  O   UNL     1      -1.430   1.871   1.193  0.00  0.00    +0.000 OA
ATOM     15  H   UNL     1      -2.239   2.313   0.823  0.00  0.00    +0.000 HD
ENDBRANCH   6  14
BRANCH   4  16
ATOM     16  C   UNL     1       2.739  -0.083  -0.598  0.00  0.00    +0.000 C 
BRANCH  16  17
ATOM     17  O   UNL     1       3.163  -0.415   0.697  0.00  0.00    +0.000 OA
ATOM     18  H   UNL     1       3.058  -1.398   0.790  0.00  0.00    +0.000 HD
ENDBRANCH  16  17
ENDBRANCH   4  16
TORSDOF 6
