REMARK  Name = 312829
REMARK  15 active torsions:
REMARK  status: ('A' for Active; 'I' for Inactive)
REMARK    1  A    between atoms: C_1  and  C_2
REMARK    2  A    between atoms: N_4  and  C_5
REMARK    3  A    between atoms: C_6  and  O_7
REMARK    4  A    between atoms: O_7  and  C_8
REMARK    5  A    between atoms: C_8  and  C_9
REMARK    6  A    between atoms: C_12  and  C_13
REMARK    7  A    between atoms: C_13  and  O_14
REMARK    8  A    between atoms: O_14  and  C_15
REMARK    9  A    between atoms: C_15  and  C_16
REMARK   10  A    between atoms: C_18  and  O_19
REMARK   11  A    between atoms: O_19  and  C_20
REMARK   12  A    between atoms: C_20  and  C_21
REMARK   13  A    between atoms: C_23  and  O_24
REMARK   14  A    between atoms: O_24  and  C_25
REMARK   15  A    between atoms: C_25  and  C_26
REMARK                            x       y       z     vdW  Elec       q    Type
REMARK                         _______ _______ _______ _____ _____    ______ ____
ROOT
ATOM      1  C   UNL     1      -1.675  -1.041   1.345  0.00  0.00    +0.000 C 
ATOM      2  C   UNL     1      -1.126   0.398   1.236  0.00  0.00    +0.000 C 
ATOM      3  O   UNL     1       0.280   0.413   1.425  0.00  0.00    +0.000 OA
ATOM      4  C   UNL     1       0.927  -0.276   0.369  0.00  0.00    +0.000 C 
ATOM      5  C   UNL     1       0.566  -1.783   0.408  0.00  0.00    +0.000 C 
ATOM      6  C   UNL     1      -0.962  -1.948   0.312  0.00  0.00    +0.000 C 
ENDROOT
BRANCH   1  10
ATOM      7  C   UNL     1      -1.870  -3.285   4.528  0.00  0.00    +0.000 C 
ATOM      8  C   UNL     1      -2.173  -2.739   3.171  0.00  0.00    +0.000 C 
ATOM      9  O   UNL     1      -3.045  -3.300   2.454  0.00  0.00    +0.000 OA
ATOM     10  N   UNL     1      -1.492  -1.567   2.704  0.00  0.00    +0.000 N 
ATOM     11  H   UNL     1      -0.846  -1.078   3.366  0.00  0.00    +0.000 HD
ENDBRANCH   1  10
BRANCH   2  12
ATOM     12  O   UNL     1      -1.743   1.210   2.233  0.00  0.00    +0.000 OA
BRANCH  12  13
ATOM     13  C   UNL     1      -1.529   2.588   2.332  0.00  0.00    +0.000 C 
ATOM     14  C   UNL     1      -2.220   3.364   3.400  0.00  0.00    +0.000 C 
ATOM     15  O   UNL     1      -0.791   3.188   1.503  0.00  0.00    +0.000 OA
ENDBRANCH  12  13
ENDBRANCH   2  12
BRANCH   4  16
ATOM     16  C   UNL     1       2.441  -0.040   0.487  0.00  0.00    +0.000 C 
BRANCH  16  17
ATOM     17  O   UNL     1       3.157  -0.730  -0.536  0.00  0.00    +0.000 OA
BRANCH  17  18
ATOM     18  C   UNL     1       3.190  -0.314  -1.871  0.00  0.00    +0.000 C 
ATOM     19  C   UNL     1       3.875  -1.163  -2.887  0.00  0.00    +0.000 C 
ATOM     20  O   UNL     1       2.623   0.754  -2.231  0.00  0.00    +0.000 OA
ENDBRANCH  17  18
ENDBRANCH  16  17
ENDBRANCH   4  16
BRANCH   5  21
ATOM     21  O   UNL     1       1.019  -2.380   1.627  0.00  0.00    +0.000 OA
BRANCH  21  22
ATOM     22  C   UNL     1       2.180  -3.152   1.745  0.00  0.00    +0.000 C 
ATOM     23  C   UNL     1       2.555  -3.703   3.078  0.00  0.00    +0.000 C 
ATOM     24  O   UNL     1       2.884  -3.426   0.736  0.00  0.00    +0.000 OA
ENDBRANCH  21  22
ENDBRANCH   5  21
BRANCH   6  25
ATOM     25  O   UNL     1      -1.384  -1.616  -1.013  0.00  0.00    +0.000 OA
BRANCH  25  26
ATOM     26  C   UNL     1      -2.630  -1.973  -1.540  0.00  0.00    +0.000 C 
ATOM     27  C   UNL     1      -2.989  -1.545  -2.921  0.00  0.00    +0.000 C 
ATOM     28  O   UNL     1      -3.428  -2.693  -0.880  0.00  0.00    +0.000 OA
ENDBRANCH  25  26
ENDBRANCH   6  25
TORSDOF 10
