REMARK  Name = 35717
REMARK  7 active torsions:
REMARK  status: ('A' for Active; 'I' for Inactive)
REMARK    1  A    between atoms: C_1  and  C_2
REMARK    2  A    between atoms: N_4  and  C_5
REMARK    3  A    between atoms: C_6  and  O_7
REMARK    4  A    between atoms: C_9  and  C_10
REMARK    5  A    between atoms: C_10  and  O_11
REMARK    6  A    between atoms: C_12  and  O_13
REMARK    7  A    between atoms: C_14  and  O_15
REMARK                            x       y       z     vdW  Elec       q    Type
REMARK                         _______ _______ _______ _____ _____    ______ ____
ROOT
ATOM      1  C   UNL     1       0.815  -1.122   0.577  0.00  0.00    +0.000 C 
ATOM      2  C   UNL     1      -0.209  -0.876   1.709  0.00  0.00    +0.000 C 
ATOM      3  O   UNL     1      -0.930   0.337   1.538  0.00  0.00    +0.000 OA
ATOM      4  C   UNL     1      -1.634   0.427   0.303  0.00  0.00    +0.000 C 
ATOM      5  C   UNL     1      -0.723   0.180  -0.932  0.00  0.00    +0.000 C 
ATOM      6  C   UNL     1       0.120  -1.096  -0.796  0.00  0.00    +0.000 C 
ENDROOT
BRANCH   1  10
ATOM      7  C   UNL     1       4.177   0.783   0.035  0.00  0.00    +0.000 C 
ATOM      8  C   UNL     1       3.143  -0.294  -0.028  0.00  0.00    +0.000 C 
ATOM      9  O   UNL     1       3.401  -1.370  -0.632  0.00  0.00    +0.000 OA
ATOM     10  N   UNL     1       1.880  -0.112   0.628  0.00  0.00    +0.000 N 
ATOM     11  H   UNL     1       1.734   0.766   1.176  0.00  0.00    +0.000 HD
ENDBRANCH   1  10
BRANCH   2  12
ATOM     12  O   UNL     1      -1.087  -1.963   1.857  0.00  0.00    +0.000 OA
ATOM     13  H   UNL     1      -0.560  -2.713   2.238  0.00  0.00    +0.000 HD
ENDBRANCH   2  12
BRANCH   5  14
ATOM     14  O   UNL     1      -1.474   0.127  -2.119  0.00  0.00    +0.000 OA
ATOM     15  H   UNL     1      -1.763   1.056  -2.317  0.00  0.00    +0.000 HD
ENDBRANCH   5  14
BRANCH   6  16
ATOM     16  O   UNL     1      -0.684  -2.235  -0.965  0.00  0.00    +0.000 OA
ATOM     17  H   UNL     1      -0.070  -2.998  -1.130  0.00  0.00    +0.000 HD
ENDBRANCH   6  16
BRANCH   4  18
ATOM     18  C   UNL     1      -2.949  -0.383   0.324  0.00  0.00    +0.000 C 
BRANCH  18  19
ATOM     19  O   UNL     1      -3.850   0.135  -0.616  0.00  0.00    +0.000 OA
ATOM     20  H   UNL     1      -4.673  -0.416  -0.545  0.00  0.00    +0.000 HD
ENDBRANCH  18  19
ENDBRANCH   4  18
TORSDOF 6
