REMARK  Name = 433580
REMARK  9 active torsions:
REMARK  status: ('A' for Active; 'I' for Inactive)
REMARK    1  A    between atoms: C_1  and  C_2
REMARK    2  A    between atoms: C_2  and  O_3
REMARK    3  A    between atoms: C_2  and  C_15
REMARK    4  A    between atoms: O_3  and  C_4
REMARK    5  A    between atoms: C_5  and  N_6
REMARK    6  A    between atoms: C_7  and  O_8
REMARK    7  A    between atoms: C_10  and  C_11
REMARK    8  A    between atoms: C_11  and  O_12
REMARK    9  A    between atoms: C_13  and  O_14
REMARK                            x       y       z     vdW  Elec       q    Type
REMARK                         _______ _______ _______ _____ _____    ______ ____
ROOT
ATOM      1  C   UNL     1      -0.479  -0.309   0.200  0.00  0.00    +0.000 C 
ATOM      2  C   UNL     1       0.062  -1.012  -1.066  0.00  0.00    +0.000 C 
ATOM      3  C   UNL     1      -0.395  -2.495  -1.084  0.00  0.00    +0.000 C 
ATOM      4  O   UNL     1      -1.807  -2.582  -1.000  0.00  0.00    +0.000 OA
ATOM      5  C   UNL     1      -2.267  -2.074   0.240  0.00  0.00    +0.000 C 
ATOM      6  C   UNL     1      -1.996  -0.557   0.334  0.00  0.00    +0.000 C 
ENDROOT
BRANCH   2   7
ATOM      7  N   UNL     1       1.528  -0.914  -1.122  0.00  0.00    +0.000 N 
ATOM      8  H   UNL     1       1.823   0.088  -1.087  0.00  0.00    +0.000 HD
ATOM      9  H   UNL     1       1.962  -1.426  -0.319  0.00  0.00    +0.000 HD
ATOM     10  H   UNL     1       1.881  -1.316  -2.020  0.00  0.00    +0.000 HD
ENDBRANCH   2   7
BRANCH   3  11
ATOM     11  O   UNL     1       0.001  -3.093  -2.291  0.00  0.00    +0.000 OA
ATOM     12  H   UNL     1       0.888  -3.513  -2.138  0.00  0.00    +0.000 HD
ENDBRANCH   3  11
BRANCH   6  13
ATOM     13  O   UNL     1      -2.687   0.121  -0.687  0.00  0.00    +0.000 OA
ATOM     14  H   UNL     1      -2.816   1.055  -0.378  0.00  0.00    +0.000 HD
ENDBRANCH   6  13
BRANCH   1  15
ATOM     15  O   UNL     1      -0.221   1.084   0.101  0.00  0.00    +0.000 OA
BRANCH  15  17
ATOM     16  C   UNL     1       1.504   1.684   1.678  0.00  0.00    +0.000 C 
ATOM     17  C   UNL     1       0.005   1.675   1.370  0.00  0.00    +0.000 C 
BRANCH  17  18
ATOM     18  C   UNL     1      -0.506   3.083   1.337  0.00  0.00    +0.000 C 
ATOM     19  O   UNL     1      -1.124   3.557   2.327  0.00  0.00    +0.000 OA
ATOM     20  O   UNL     1      -0.265   3.889   0.230  0.00  0.00    +0.000 OA
ENDBRANCH  17  18
ENDBRANCH  15  17
ENDBRANCH   1  15
BRANCH   5  21
ATOM     21  C   UNL     1      -3.759  -2.405   0.410  0.00  0.00    +0.000 C 
BRANCH  21  22
ATOM     22  O   UNL     1      -4.522  -1.914  -0.661  0.00  0.00    +0.000 OA
ATOM     23  H   UNL     1      -4.417  -2.559  -1.408  0.00  0.00    +0.000 HD
ENDBRANCH  21  22
ENDBRANCH   5  21
TORSDOF 8
