REMARK  Name = 57339290
REMARK  11 active torsions:
REMARK  status: ('A' for Active; 'I' for Inactive)
REMARK    1  A    between atoms: C_1  and  C_2
REMARK    2  A    between atoms: N_4  and  C_5
REMARK    3  A    between atoms: C_6  and  O_7
REMARK    4  A    between atoms: O_7  and  C_8
REMARK    5  A    between atoms: C_8  and  C_9
REMARK    6  A    between atoms: C_8  and  C_13
REMARK    7  A    between atoms: C_9  and  C_10
REMARK    8  A    between atoms: C_17  and  C_18
REMARK    9  A    between atoms: C_18  and  O_19
REMARK   10  A    between atoms: C_20  and  O_21
REMARK   11  A    between atoms: C_22  and  O_23
REMARK                            x       y       z     vdW  Elec       q    Type
REMARK                         _______ _______ _______ _____ _____    ______ ____
ROOT
ATOM      1  C   UNL     1      -0.455   0.720  -0.754  0.00  0.00    +0.000 C 
ATOM      2  C   UNL     1      -0.510   0.964   0.768  0.00  0.00    +0.000 C 
ATOM      3  O   UNL     1       0.252   2.108   1.127  0.00  0.00    +0.000 OA
ATOM      4  C   UNL     1       1.630   1.946   0.825  0.00  0.00    +0.000 C 
ATOM      5  C   UNL     1       1.834   1.800  -0.703  0.00  0.00    +0.000 C 
ATOM      6  C   UNL     1       1.013   0.603  -1.214  0.00  0.00    +0.000 C 
ENDROOT
BRANCH   1  10
ATOM      7  C   UNL     1      -3.339  -1.839  -1.333  0.00  0.00    +0.000 C 
ATOM      8  C   UNL     1      -2.637  -0.543  -1.090  0.00  0.00    +0.000 C 
ATOM      9  O   UNL     1      -3.312   0.497  -0.861  0.00  0.00    +0.000 OA
ATOM     10  N   UNL     1      -1.204  -0.494  -1.102  0.00  0.00    +0.000 N 
ATOM     11  H   UNL     1      -0.685  -1.362  -1.368  0.00  0.00    +0.000 HD
ENDBRANCH   1  10
BRANCH   5  12
ATOM     12  O   UNL     1       3.190   1.575  -0.998  0.00  0.00    +0.000 OA
ATOM     13  H   UNL     1       3.574   2.440  -1.296  0.00  0.00    +0.000 HD
ENDBRANCH   5  12
BRANCH   6  14
ATOM     14  O   UNL     1       1.094   0.503  -2.615  0.00  0.00    +0.000 OA
ATOM     15  H   UNL     1       0.706   1.331  -3.002  0.00  0.00    +0.000 HD
ENDBRANCH   6  14
BRANCH   2  16
ATOM     16  O   UNL     1      -0.069  -0.192   1.465  0.00  0.00    +0.000 OA
BRANCH  16  17
ATOM     17  C   UNL     1      -0.507  -0.186   2.813  0.00  0.00    +0.000 C 
BRANCH  17  18
ATOM     18  C   UNL     1       0.596  -0.746   3.663  0.00  0.00    +0.000 C 
ATOM     19  O   UNL     1       0.945  -0.157   4.719  0.00  0.00    +0.000 OA
ATOM     20  O   UNL     1       1.225  -1.931   3.299  0.00  0.00    +0.000 OA
ENDBRANCH  17  18
BRANCH  17  21
ATOM     21  C   UNL     1      -1.773  -1.052   2.936  0.00  0.00    +0.000 C 
BRANCH  21  22
ATOM     22  C   UNL     1      -2.363  -0.978   4.312  0.00  0.00    +0.000 C 
ATOM     23  O   UNL     1      -2.103  -1.869   5.162  0.00  0.00    +0.000 OA
ATOM     24  O   UNL     1      -3.166   0.099   4.665  0.00  0.00    +0.000 OA
ENDBRANCH  21  22
ENDBRANCH  17  21
ENDBRANCH  16  17
ENDBRANCH   2  16
BRANCH   4  25
ATOM     25  C   UNL     1       2.378   3.170   1.379  0.00  0.00    +0.000 C 
BRANCH  25  26
ATOM     26  O   UNL     1       3.767   2.980   1.339  0.00  0.00    +0.000 OA
ATOM     27  H   UNL     1       3.991   2.352   2.074  0.00  0.00    +0.000 HD
ENDBRANCH  25  26
ENDBRANCH   4  25
TORSDOF 10
