REMARK  Name = 446101
REMARK  9 active torsions:
REMARK  status: ('A' for Active; 'I' for Inactive)
REMARK    1  A    between atoms: O_2  and  C_3
REMARK    2  A    between atoms: C_3  and  C_30
REMARK    3  A    between atoms: N_4  and  C_5
REMARK    4  A    between atoms: C_7  and  O_9
REMARK    5  A    between atoms: C_12  and  C_14
REMARK    6  A    between atoms: C_14  and  O_17
REMARK    7  A    between atoms: C_19  and  O_21
REMARK    8  A    between atoms: O_21  and  S_22
REMARK    9  A    between atoms: C_26  and  O_28
REMARK                            x       y       z     vdW  Elec       q    Type
REMARK                         _______ _______ _______ _____ _____    ______ ____
ROOT
ATOM      1  C   UNL     1      -1.216  -0.652   0.522  0.00  0.00    +0.000 C 
ATOM      2  C   UNL     1      -0.410  -1.696  -0.284  0.00  0.00    +0.000 C 
ATOM      3  O   UNL     1       0.845  -1.154  -0.649  0.00  0.00    +0.000 OA
ATOM      4  C   UNL     1       0.702  -0.192  -1.688  0.00  0.00    +0.000 C 
ATOM      5  C   UNL     1      -0.491   0.799  -1.435  0.00  0.00    +0.000 C 
ATOM      6  C   UNL     1      -0.884   0.793   0.052  0.00  0.00    +0.000 C 
ENDROOT
BRANCH   1   8
ATOM      7  C   UNL     1      -3.573  -0.461   1.145  0.00  0.00    +0.000 C 
ATOM      8  N   UNL     1      -2.646  -0.931   0.365  0.00  0.00    +0.000 NA
ATOM      9  C   UNL     1      -5.004  -0.794   0.871  0.00  0.00    +0.000 C 
BRANCH   7  11
ATOM     10  H   UNL     1      -3.965   0.758   2.817  0.00  0.00    +0.000 HD
ATOM     11  O   UNL     1      -3.247   0.373   2.214  0.00  0.00    +0.000 OA
ENDBRANCH   7  11
ENDBRANCH   1   8
BRANCH   2  12
ATOM     12  O   UNL     1      -0.209  -2.834   0.509  0.00  0.00    +0.000 OA
ATOM     13  H   UNL     1       0.231  -3.507  -0.074  0.00  0.00    +0.000 HD
ENDBRANCH   2  12
BRANCH   6  14
ATOM     14  O   UNL     1       0.173   1.316   0.816  0.00  0.00    +0.000 OA
ATOM     15  H   UNL     1      -0.209   1.578   1.694  0.00  0.00    +0.000 HD
ENDBRANCH   6  14
BRANCH   4  16
ATOM     16  C   UNL     1       2.049   0.528  -1.852  0.00  0.00    +0.000 C 
BRANCH  16  17
ATOM     17  O   UNL     1       3.066  -0.412  -2.062  0.00  0.00    +0.000 OA
ATOM     18  H   UNL     1       3.909   0.106  -2.145  0.00  0.00    +0.000 HD
ENDBRANCH  16  17
ENDBRANCH   4  16
BRANCH   5  19
ATOM     19  O   UNL     1      -0.178   2.126  -1.820  0.00  0.00    +0.000 OA
BRANCH  19  20
ATOM     20  S   UNL     1      -0.755   2.426  -3.387  0.00  0.00    +0.000 S 
ATOM     21  O   UNL     1      -0.176   3.722  -3.878  0.00  0.00    +0.000 OA
ATOM     22  O   UNL     1      -2.254   2.535  -3.364  0.00  0.00    +0.000 OA
ATOM     23  O   UNL     1      -0.296   1.194  -4.435  0.00  0.00    +0.000 OA
ENDBRANCH  19  20
ENDBRANCH   5  19
TORSDOF 8
