REMARK  Name = 439213
REMARK  6 active torsions:
REMARK  status: ('A' for Active; 'I' for Inactive)
REMARK    1  A    between atoms: N_1  and  C_2
REMARK    2  A    between atoms: C_3  and  O_4
REMARK    3  A    between atoms: C_6  and  C_7
REMARK    4  A    between atoms: C_7  and  O_8
REMARK    5  A    between atoms: C_9  and  O_10
REMARK    6  A    between atoms: C_11  and  O_12
REMARK                            x       y       z     vdW  Elec       q    Type
REMARK                         _______ _______ _______ _____ _____    ______ ____
ROOT
ATOM      1  C   UNL     1      -1.661  -0.217  -0.133  0.00  0.00    +0.000 C 
ATOM      2  C   UNL     1      -1.071   1.170  -0.470  0.00  0.00    +0.000 C 
ATOM      3  O   UNL     1       0.207   1.023  -1.065  0.00  0.00    +0.000 OA
ATOM      4  C   UNL     1       1.136   0.484  -0.139  0.00  0.00    +0.000 C 
ATOM      5  C   UNL     1       0.737  -0.964   0.235  0.00  0.00    +0.000 C 
ATOM      6  C   UNL     1      -0.698  -0.974   0.803  0.00  0.00    +0.000 C 
ENDROOT
BRANCH   1   7
ATOM      7  N   UNL     1      -2.979  -0.103   0.498  0.00  0.00    +0.000 NA
ATOM      8  H   UNL     1      -3.653   0.295  -0.196  0.00  0.00    +0.000 HD
ATOM      9  H   UNL     1      -2.925   0.564   1.303  0.00  0.00    +0.000 HD
ENDBRANCH   1   7
BRANCH   2  10
ATOM     10  O   UNL     1      -1.918   1.820  -1.379  0.00  0.00    +0.000 OA
ATOM     11  H   UNL     1      -1.562   2.740  -1.486  0.00  0.00    +0.000 HD
ENDBRANCH   2  10
BRANCH   5  12
ATOM     12  O   UNL     1       1.625  -1.473   1.198  0.00  0.00    +0.000 OA
ATOM     13  H   UNL     1       1.556  -2.462   1.158  0.00  0.00    +0.000 HD
ENDBRANCH   5  12
BRANCH   6  14
ATOM     14  O   UNL     1      -1.143  -2.289   1.023  0.00  0.00    +0.000 OA
ATOM     15  H   UNL     1      -1.149  -2.757   0.147  0.00  0.00    +0.000 HD
ENDBRANCH   6  14
BRANCH   4  16
ATOM     16  C   UNL     1       2.530   0.533  -0.787  0.00  0.00    +0.000 C 
BRANCH  16  17
ATOM     17  O   UNL     1       3.533   0.189   0.131  0.00  0.00    +0.000 OA
ATOM     18  H   UNL     1       3.647   0.969   0.734  0.00  0.00    +0.000 HD
ENDBRANCH  16  17
ENDBRANCH   4  16
TORSDOF 6
