REMARK  Name = 82398
REMARK  10 active torsions:
REMARK  status: ('A' for Active; 'I' for Inactive)
REMARK    1  A    between atoms: O_2  and  C_3
REMARK    2  A    between atoms: C_3  and  C_39
REMARK    3  A    between atoms: N_4  and  C_5
REMARK    4  A    between atoms: C_7  and  O_9
REMARK    5  A    between atoms: O_9  and  C_10
REMARK    6  A    between atoms: C_15  and  N_16
REMARK    7  A    between atoms: C_24  and  C_26
REMARK    8  A    between atoms: C_26  and  O_29
REMARK    9  A    between atoms: C_31  and  O_33
REMARK   10  A    between atoms: C_35  and  O_37
REMARK                            x       y       z     vdW  Elec       q    Type
REMARK                         _______ _______ _______ _____ _____    ______ ____
ROOT
ATOM      1  C   UNL     1       0.167   1.166   2.300  0.00  0.00    +0.000 C 
ATOM      2  C   UNL     1       0.699   1.049   0.849  0.00  0.00    +0.000 C 
ATOM      3  O   UNL     1       0.917   2.340   0.300  0.00  0.00    +0.000 OA
ATOM      4  C   UNL     1      -0.291   3.080   0.190  0.00  0.00    +0.000 C 
ATOM      5  C   UNL     1      -0.915   3.319   1.587  0.00  0.00    +0.000 C 
ATOM      6  C   UNL     1      -1.138   1.979   2.308  0.00  0.00    +0.000 C 
ENDROOT
BRANCH   1   8
ATOM      7  C   UNL     1       0.812  -0.966   3.375  0.00  0.00    +0.000 C 
ATOM      8  N   UNL     1      -0.080  -0.154   2.884  0.00  0.00    +0.000 NA
ATOM      9  C   UNL     1       0.366  -2.278   3.926  0.00  0.00    +0.000 C 
BRANCH   7  11
ATOM     10  H   UNL     1       2.554   0.222   3.069  0.00  0.00    +0.000 HD
ATOM     11  O   UNL     1       2.171  -0.645   3.422  0.00  0.00    +0.000 OA
ENDBRANCH   7  11
ENDBRANCH   1   8
BRANCH   5  12
ATOM     12  O   UNL     1      -2.124   4.034   1.493  0.00  0.00    +0.000 OA
ATOM     13  H   UNL     1      -2.746   3.501   0.930  0.00  0.00    +0.000 HD
ENDBRANCH   5  12
BRANCH   6  14
ATOM     14  O   UNL     1      -1.542   2.231   3.631  0.00  0.00    +0.000 OA
ATOM     15  H   UNL     1      -2.012   1.417   3.950  0.00  0.00    +0.000 HD
ENDBRANCH   6  14
BRANCH   2  16
ATOM     16  O   UNL     1      -0.199   0.303   0.012  0.00  0.00    +0.000 OA
BRANCH  16  17
ATOM     17  C   UNL     1      -0.310  -1.095  -0.057  0.00  0.00    +0.000 A 
ATOM     18  C   UNL     1       0.735  -1.967   0.302  0.00  0.00    +0.000 A 
ATOM     19  C   UNL     1       0.558  -3.351   0.223  0.00  0.00    +0.000 A 
ATOM     20  C   UNL     1      -0.657  -3.893  -0.227  0.00  0.00    +0.000 A 
ATOM     21  C   UNL     1      -1.691  -3.018  -0.606  0.00  0.00    +0.000 A 
ATOM     22  C   UNL     1      -1.513  -1.634  -0.525  0.00  0.00    +0.000 A 
BRANCH  20  23
ATOM     23  N   UNL     1      -0.837  -5.319  -0.302  0.00  0.00    +0.000 N 
ATOM     24  O   UNL     1      -1.914  -5.805  -0.705  0.00  0.00    +0.000 OA
ATOM     25  O   UNL     1       0.177  -6.171   0.072  0.00  0.00    +0.000 OA
ENDBRANCH  20  23
ENDBRANCH  16  17
ENDBRANCH   2  16
BRANCH   4  26
ATOM     26  C   UNL     1       0.022   4.414  -0.497  0.00  0.00    +0.000 C 
BRANCH  26  27
ATOM     27  O   UNL     1       0.565   4.176  -1.766  0.00  0.00    +0.000 OA
ATOM     28  H   UNL     1       0.755   5.068  -2.156  0.00  0.00    +0.000 HD
ENDBRANCH  26  27
ENDBRANCH   4  26
TORSDOF 9
