REMARK  Name = 5300
REMARK  8 active torsions:
REMARK  status: ('A' for Active; 'I' for Inactive)
REMARK    1  A    between atoms: C_1  and  N_2
REMARK    2  A    between atoms: N_2  and  N_3
REMARK    3  A    between atoms: N_7  and  C_8
REMARK    4  A    between atoms: C_9  and  O_10
REMARK    5  A    between atoms: C_12  and  C_13
REMARK    6  A    between atoms: C_13  and  O_14
REMARK    7  A    between atoms: C_15  and  O_16
REMARK    8  A    between atoms: C_17  and  O_18
REMARK                            x       y       z     vdW  Elec       q    Type
REMARK                         _______ _______ _______ _____ _____    ______ ____
ROOT
ATOM      1  C   UNL     1      -0.552  -0.902  -0.155  0.00  0.00    +0.000 C 
ATOM      2  C   UNL     1      -2.012  -0.541   0.234  0.00  0.00    +0.000 C 
ATOM      3  O   UNL     1      -2.056  -0.140   1.589  0.00  0.00    +0.000 OA
ATOM      4  C   UNL     1      -1.501   1.160   1.742  0.00  0.00    +0.000 C 
ATOM      5  C   UNL     1      -0.106   1.306   1.044  0.00  0.00    +0.000 C 
ATOM      6  C   UNL     1       0.470  -0.071   0.670  0.00  0.00    +0.000 C 
ENDROOT
BRANCH   1  11
ATOM      7  C   UNL     1       2.090  -1.698  -4.400  0.00  0.00    +0.000 C 
ATOM      8  N   UNL     1       0.999  -1.031  -3.683  0.00  0.00    +0.000 N 
ATOM      9  C   UNL     1       0.779  -1.298  -2.285  0.00  0.00    +0.000 C 
ATOM     10  O   UNL     1       1.568  -2.059  -1.660  0.00  0.00    +0.000 OA
ATOM     11  N   UNL     1      -0.333  -0.703  -1.595  0.00  0.00    +0.000 N 
ATOM     12  H   UNL     1      -1.026  -0.153  -2.149  0.00  0.00    +0.000 HD
BRANCH   8  13
ATOM     13  N   UNL     1       0.260  -0.010  -4.308  0.00  0.00    +0.000 NA
ATOM     14  O   UNL     1       0.481   0.328  -5.489  0.00  0.00    +0.000 OA
ENDBRANCH   8  13
ENDBRANCH   1  11
BRANCH   2  15
ATOM     15  O   UNL     1      -2.838  -1.663   0.075  0.00  0.00    +0.000 OA
ATOM     16  H   UNL     1      -2.948  -1.802  -0.902  0.00  0.00    +0.000 HD
ENDBRANCH   2  15
BRANCH   5  17
ATOM     17  O   UNL     1      -0.232   2.078  -0.123  0.00  0.00    +0.000 OA
ATOM     18  H   UNL     1      -0.337   3.022   0.168  0.00  0.00    +0.000 HD
ENDBRANCH   5  17
BRANCH   6  19
ATOM     19  O   UNL     1       0.804  -0.758   1.850  0.00  0.00    +0.000 OA
ATOM     20  H   UNL     1       1.439  -1.478   1.594  0.00  0.00    +0.000 HD
ENDBRANCH   6  19
BRANCH   4  21
ATOM     21  C   UNL     1      -1.405   1.462   3.242  0.00  0.00    +0.000 C 
BRANCH  21  22
ATOM     22  O   UNL     1      -1.051   2.803   3.442  0.00  0.00    +0.000 OA
ATOM     23  H   UNL     1      -0.992   2.928   4.425  0.00  0.00    +0.000 HD
ENDBRANCH  21  22
ENDBRANCH   4  21
TORSDOF 7
