REMARK  Name = 129618
REMARK  16 active torsions:
REMARK  status: ('A' for Active; 'I' for Inactive)
REMARK    1  A    between atoms: O_2  and  C_3
REMARK    2  A    between atoms: C_3  and  N_7
REMARK    3  A    between atoms: N_7  and  C_9
REMARK    4  A    between atoms: C_11  and  O_13
REMARK    5  A    between atoms: O_13  and  C_14
REMARK    6  A    between atoms: C_14  and  C_16
REMARK    7  A    between atoms: C_21  and  C_23
REMARK    8  A    between atoms: C_23  and  O_26
REMARK    9  A    between atoms: O_26  and  C_27
REMARK   10  A    between atoms: C_27  and  C_29
REMARK   11  A    between atoms: C_33  and  O_35
REMARK   12  A    between atoms: O_35  and  C_36
REMARK   13  A    between atoms: C_36  and  C_38
REMARK   14  A    between atoms: C_42  and  O_44
REMARK   15  A    between atoms: O_44  and  C_45
REMARK   16  A    between atoms: C_45  and  C_47
REMARK                            x       y       z     vdW  Elec       q    Type
REMARK                         _______ _______ _______ _____ _____    ______ ____
ROOT
ATOM      1  C   UNL     1      -1.510   0.756  -0.549  0.00  0.00    +0.000 C 
ATOM      2  C   UNL     1      -0.758   2.074  -0.246  0.00  0.00    +0.000 C 
ATOM      3  O   UNL     1       0.537   2.026  -0.817  0.00  0.00    +0.000 OA
ATOM      4  C   UNL     1       1.322   1.009  -0.214  0.00  0.00    +0.000 C 
ATOM      5  C   UNL     1       0.735  -0.384  -0.547  0.00  0.00    +0.000 C 
ATOM      6  C   UNL     1      -0.716  -0.461  -0.040  0.00  0.00    +0.000 C 
ENDROOT
BRANCH   1   7
ATOM      7  N   UNL     1      -2.882   0.763  -0.022  0.00  0.00    +0.000 N 
ATOM      8  H   UNL     1      -3.643   0.719  -0.736  0.00  0.00    +0.000 HD
BRANCH   7   9
ATOM      9  C   UNL     1      -3.225   0.785   1.379  0.00  0.00    +0.000 C 
ATOM     10  C   UNL     1      -4.492   0.629   1.788  0.00  0.00    +0.000 C 
ATOM     11 CL   UNL     1      -5.840   0.364   0.691  0.00  0.00    +0.000 Cl
BRANCH   9  13
ATOM     12  H   UNL     1      -2.425   1.008   3.328  0.00  0.00    +0.000 HD
ATOM     13  O   UNL     1      -2.226   0.982   2.334  0.00  0.00    +0.000 OA
ENDBRANCH   9  13
ENDBRANCH   7   9
ENDBRANCH   1   7
BRANCH   2  14
ATOM     14  O   UNL     1      -1.456   3.165  -0.849  0.00  0.00    +0.000 OA
BRANCH  14  15
ATOM     15  C   UNL     1      -2.442   3.922  -0.205  0.00  0.00    +0.000 C 
ATOM     16  O   UNL     1      -2.669   3.782   1.027  0.00  0.00    +0.000 OA
ATOM     17  C   UNL     1      -3.188   4.957  -0.976  0.00  0.00    +0.000 C 
ENDBRANCH  14  15
ENDBRANCH   2  14
BRANCH   4  18
ATOM     18  C   UNL     1       2.758   1.147  -0.738  0.00  0.00    +0.000 C 
BRANCH  18  19
ATOM     19  O   UNL     1       3.630   0.271  -0.029  0.00  0.00    +0.000 OA
BRANCH  19  20
ATOM     20  C   UNL     1       4.985   0.138  -0.337  0.00  0.00    +0.000 C 
ATOM     21  O   UNL     1       5.506   0.817  -1.264  0.00  0.00    +0.000 OA
ATOM     22  C   UNL     1       5.808  -0.861   0.402  0.00  0.00    +0.000 C 
ENDBRANCH  19  20
ENDBRANCH  18  19
ENDBRANCH   4  18
BRANCH   5  23
ATOM     23  O   UNL     1       1.521  -1.399   0.083  0.00  0.00    +0.000 OA
BRANCH  23  24
ATOM     24  C   UNL     1       1.820  -2.633  -0.504  0.00  0.00    +0.000 C 
ATOM     25  O   UNL     1       1.369  -2.937  -1.642  0.00  0.00    +0.000 OA
ATOM     26  C   UNL     1       2.653  -3.616   0.243  0.00  0.00    +0.000 C 
ENDBRANCH  23  24
ENDBRANCH   5  23
BRANCH   6  27
ATOM     27  O   UNL     1      -1.347  -1.654  -0.509  0.00  0.00    +0.000 OA
BRANCH  27  28
ATOM     28  C   UNL     1      -1.376  -2.855   0.210  0.00  0.00    +0.000 C 
ATOM     29  O   UNL     1      -0.862  -2.936   1.358  0.00  0.00    +0.000 OA
ATOM     30  C   UNL     1      -1.991  -4.064  -0.407  0.00  0.00    +0.000 C 
ENDBRANCH  27  28
ENDBRANCH   6  27
TORSDOF 12
