REMARK  Name = 84265
REMARK  8 active torsions:
REMARK  status: ('A' for Active; 'I' for Inactive)
REMARK    1  A    between atoms: O_2  and  C_3
REMARK    2  A    between atoms: C_3  and  C_27
REMARK    3  A    between atoms: N_4  and  C_5
REMARK    4  A    between atoms: C_7  and  O_9
REMARK    5  A    between atoms: C_12  and  C_14
REMARK    6  A    between atoms: C_14  and  O_17
REMARK    7  A    between atoms: C_19  and  O_21
REMARK    8  A    between atoms: C_23  and  O_25
REMARK                            x       y       z     vdW  Elec       q    Type
REMARK                         _______ _______ _______ _____ _____    ______ ____
ROOT
ATOM      1  C   UNL     1       1.009   0.261  -0.350  0.00  0.00    +0.000 C 
ATOM      2  C   UNL     1       0.664   1.357  -1.375  0.00  0.00    +0.000 C 
ATOM      3  O   UNL     1      -0.725   1.649  -1.377  0.00  0.00    +0.000 OA
ATOM      4  C   UNL     1      -1.185   2.159  -0.131  0.00  0.00    +0.000 C 
ATOM      5  C   UNL     1      -0.825   1.255   1.084  0.00  0.00    +0.000 C 
ATOM      6  C   UNL     1       0.634   0.744   1.061  0.00  0.00    +0.000 C 
ENDROOT
BRANCH   1   8
ATOM      7  C   UNL     1       0.594  -2.149  -0.228  0.00  0.00    +0.000 C 
ATOM      8  N   UNL     1       0.285  -0.971  -0.681  0.00  0.00    +0.000 NA
ATOM      9  C   UNL     1      -0.219  -3.333  -0.642  0.00  0.00    +0.000 C 
BRANCH   7  11
ATOM     10  H   UNL     1       1.954  -3.239   0.954  0.00  0.00    +0.000 HD
ATOM     11  O   UNL     1       1.696  -2.322   0.610  0.00  0.00    +0.000 OA
ENDBRANCH   7  11
ENDBRANCH   1   8
BRANCH   2  12
ATOM     12  O   UNL     1       1.061   0.952  -2.660  0.00  0.00    +0.000 OA
ATOM     13  H   UNL     1       0.399   0.286  -2.982  0.00  0.00    +0.000 HD
ENDBRANCH   2  12
BRANCH   5  14
ATOM     14  O   UNL     1      -1.104   1.922   2.289  0.00  0.00    +0.000 OA
ATOM     15  H   UNL     1      -1.126   1.231   3.002  0.00  0.00    +0.000 HD
ENDBRANCH   5  14
BRANCH   6  16
ATOM     16  O   UNL     1       1.534   1.744   1.466  0.00  0.00    +0.000 OA
ATOM     17  H   UNL     1       1.510   1.774   2.459  0.00  0.00    +0.000 HD
ENDBRANCH   6  16
BRANCH   4  18
ATOM     18  C   UNL     1      -0.901   3.670   0.031  0.00  0.00    +0.000 C 
BRANCH  18  19
ATOM     19  O   UNL     1       0.421   3.924   0.411  0.00  0.00    +0.000 OA
ATOM     20  H   UNL     1       0.505   4.910   0.479  0.00  0.00    +0.000 HD
ENDBRANCH  18  19
ENDBRANCH   4  18
TORSDOF 7
