REMARK  Name = 18897
REMARK  6 active torsions:
REMARK  status: ('A' for Active; 'I' for Inactive)
REMARK    1  A    between atoms: N_1  and  C_2
REMARK    2  A    between atoms: C_3  and  O_4
REMARK    3  A    between atoms: C_5  and  O_6
REMARK    4  A    between atoms: C_7  and  C_8
REMARK    5  A    between atoms: C_8  and  O_9
REMARK    6  A    between atoms: C_11  and  O_12
REMARK                            x       y       z     vdW  Elec       q    Type
REMARK                         _______ _______ _______ _____ _____    ______ ____
ROOT
ATOM      1  C   UNL     1       0.268  -0.568   1.023  0.00  0.00    +0.000 C 
ATOM      2  C   UNL     1      -0.080  -1.387  -0.239  0.00  0.00    +0.000 C 
ATOM      3  C   UNL     1       0.137  -0.545  -1.509  0.00  0.00    +0.000 C 
ATOM      4  C   UNL     1      -0.550   0.843  -1.389  0.00  0.00    +0.000 C 
ATOM      5  O   UNL     1      -0.196   1.520  -0.188  0.00  0.00    +0.000 OA
ATOM      6  C   UNL     1      -0.512   0.768   0.978  0.00  0.00    +0.000 C 
ENDROOT
BRANCH   1   7
ATOM      7  N   UNL     1       1.718  -0.342   1.159  0.00  0.00    +0.000 N 
ATOM      8  H   UNL     1       2.074   0.307   0.421  0.00  0.00    +0.000 HD
ATOM      9  H   UNL     1       1.923   0.072   2.097  0.00  0.00    +0.000 HD
ATOM     10  H   UNL     1       2.239  -1.246   1.104  0.00  0.00    +0.000 HD
ENDBRANCH   1   7
BRANCH   2  11
ATOM     11  O   UNL     1       0.698  -2.557  -0.287  0.00  0.00    +0.000 OA
ATOM     12  H   UNL     1       0.236  -3.188  -0.898  0.00  0.00    +0.000 HD
ENDBRANCH   2  11
BRANCH   3  13
ATOM     13  O   UNL     1      -0.347  -1.247  -2.626  0.00  0.00    +0.000 OA
ATOM     14  H   UNL     1       0.026  -0.799  -3.429  0.00  0.00    +0.000 HD
ENDBRANCH   3  13
BRANCH   6  15
ATOM     15  O   UNL     1      -0.241   1.530   2.126  0.00  0.00    +0.000 OA
ATOM     16  H   UNL     1       0.597   2.037   1.962  0.00  0.00    +0.000 HD
ENDBRANCH   6  15
BRANCH   4  17
ATOM     17  C   UNL     1      -2.077   0.808  -1.619  0.00  0.00    +0.000 C 
BRANCH  17  18
ATOM     18  O   UNL     1      -2.621   2.076  -1.376  0.00  0.00    +0.000 OA
ATOM     19  H   UNL     1      -3.597   1.993  -1.538  0.00  0.00    +0.000 HD
ENDBRANCH  17  18
ENDBRANCH   4  17
TORSDOF 6
