REMARK  Name = ZINC000001471333
REMARK  9 active torsions:
REMARK  status: ('A' for Active; 'I' for Inactive)
REMARK    1  A    between atoms: C_1  and  C_2
REMARK    2  A    between atoms: N_4  and  C_5
REMARK    3  A    between atoms: C_6  and  O_7
REMARK    4  A    between atoms: O_7  and  C_8
REMARK    5  A    between atoms: C_11  and  C_12
REMARK    6  A    between atoms: C_16  and  C_17
REMARK    7  A    between atoms: C_17  and  O_18
REMARK    8  A    between atoms: C_19  and  O_20
REMARK    9  A    between atoms: C_21  and  O_22
REMARK                            x       y       z     vdW  Elec       q    Type
REMARK                         _______ _______ _______ _____ _____    ______ ____
ROOT
ATOM      1  C   UNL     1      -1.683   0.227  -1.876  0.00  0.00    +0.000 C 
ATOM      2  C   UNL     1      -0.405   0.011  -1.041  0.00  0.00    +0.000 C 
ATOM      3  O   UNL     1      -0.085  -1.369  -0.993  0.00  0.00    +0.000 OA
ATOM      4  C   UNL     1      -1.074  -2.089  -0.277  0.00  0.00    +0.000 C 
ATOM      5  C   UNL     1      -2.422  -2.038  -1.038  0.00  0.00    +0.000 C 
ATOM      6  C   UNL     1      -2.849  -0.572  -1.262  0.00  0.00    +0.000 C 
ENDROOT
BRANCH   1  10
ATOM      7  C   UNL     1      -3.255   3.635  -2.935  0.00  0.00    +0.000 C 
ATOM      8  C   UNL     1      -2.922   2.179  -2.934  0.00  0.00    +0.000 C 
ATOM      9  O   UNL     1      -3.437   1.421  -3.800  0.00  0.00    +0.000 OA
ATOM     10  N   UNL     1      -2.021   1.653  -1.949  0.00  0.00    +0.000 N 
ATOM     11  H   UNL     1      -1.579   2.323  -1.279  0.00  0.00    +0.000 HD
ENDBRANCH   1  10
BRANCH   5  12
ATOM     12  O   UNL     1      -3.414  -2.723  -0.317  0.00  0.00    +0.000 OA
ATOM     13  H   UNL     1      -4.163  -2.888  -0.948  0.00  0.00    +0.000 HD
ENDBRANCH   5  12
BRANCH   6  14
ATOM     14  O   UNL     1      -3.233   0.017  -0.042  0.00  0.00    +0.000 OA
ATOM     15  H   UNL     1      -4.181  -0.232   0.114  0.00  0.00    +0.000 HD
ENDBRANCH   6  14
BRANCH   2  16
ATOM     16  O   UNL     1       0.672   0.713  -1.660  0.00  0.00    +0.000 OA
BRANCH  16  17
ATOM     17  C   UNL     1       1.963   0.837  -1.123  0.00  0.00    +0.000 A 
ATOM     18  C   UNL     1       2.322   0.288   0.123  0.00  0.00    +0.000 A 
ATOM     19  C   UNL     1       3.623   0.441   0.612  0.00  0.00    +0.000 A 
ATOM     20  C   UNL     1       4.579   1.154  -0.128  0.00  0.00    +0.000 A 
ATOM     21  C   UNL     1       5.984   1.282   0.379  0.00  0.00    +0.000 C 
ATOM     22  C   UNL     1       4.225   1.687  -1.377  0.00  0.00    +0.000 A 
ATOM     23  C   UNL     1       2.924   1.534  -1.865  0.00  0.00    +0.000 A 
ENDBRANCH  16  17
ENDBRANCH   2  16
BRANCH   4  24
ATOM     24  C   UNL     1      -0.575  -3.534  -0.110  0.00  0.00    +0.000 C 
BRANCH  24  25
ATOM     25  O   UNL     1      -1.407  -4.265   0.750  0.00  0.00    +0.000 OA
ATOM     26  H   UNL     1      -1.206  -3.956   1.671  0.00  0.00    +0.000 HD
ENDBRANCH  24  25
ENDBRANCH   4  24
TORSDOF 7
