REMARK  Name = 129618
REMARK  16 active torsions:
REMARK  status: ('A' for Active; 'I' for Inactive)
REMARK    1  A    between atoms: O_2  and  C_3
REMARK    2  A    between atoms: C_3  and  N_7
REMARK    3  A    between atoms: N_7  and  C_9
REMARK    4  A    between atoms: C_11  and  O_13
REMARK    5  A    between atoms: O_13  and  C_14
REMARK    6  A    between atoms: C_14  and  C_16
REMARK    7  A    between atoms: C_21  and  C_23
REMARK    8  A    between atoms: C_23  and  O_26
REMARK    9  A    between atoms: O_26  and  C_27
REMARK   10  A    between atoms: C_27  and  C_29
REMARK   11  A    between atoms: C_33  and  O_35
REMARK   12  A    between atoms: O_35  and  C_36
REMARK   13  A    between atoms: C_36  and  C_38
REMARK   14  A    between atoms: C_42  and  O_44
REMARK   15  A    between atoms: O_44  and  C_45
REMARK   16  A    between atoms: C_45  and  C_47
REMARK                            x       y       z     vdW  Elec       q    Type
REMARK                         _______ _______ _______ _____ _____    ______ ____
ROOT
ATOM      1  C   UNL     1       0.272  -0.828  -0.159  0.00  0.00    +0.000 C 
ATOM      2  C   UNL     1      -0.589  -1.783   0.698  0.00  0.00    +0.000 C 
ATOM      3  O   UNL     1      -1.863  -1.210   0.931  0.00  0.00    +0.000 OA
ATOM      4  C   UNL     1      -1.749  -0.037   1.718  0.00  0.00    +0.000 C 
ATOM      5  C   UNL     1      -0.994   1.062   0.936  0.00  0.00    +0.000 C 
ATOM      6  C   UNL     1       0.397   0.542   0.535  0.00  0.00    +0.000 C 
ENDROOT
BRANCH   1   7
ATOM      7  N   UNL     1       1.603  -1.403  -0.372  0.00  0.00    +0.000 N 
ATOM      8  H   UNL     1       2.162  -1.637   0.478  0.00  0.00    +0.000 HD
BRANCH   7   9
ATOM      9  C   UNL     1       2.175  -1.571  -1.682  0.00  0.00    +0.000 C 
ATOM     10  C   UNL     1       3.361  -2.170  -1.853  0.00  0.00    +0.000 C 
ATOM     11 CL   UNL     1       4.314  -2.823  -0.527  0.00  0.00    +0.000 Cl
BRANCH   9  13
ATOM     12  H   UNL     1       1.849  -1.188  -3.740  0.00  0.00    +0.000 HD
ATOM     13  O   UNL     1       1.483  -1.096  -2.799  0.00  0.00    +0.000 OA
ENDBRANCH   9  13
ENDBRANCH   7   9
ENDBRANCH   1   7
BRANCH   2  14
ATOM     14  O   UNL     1      -0.787  -3.010  -0.008  0.00  0.00    +0.000 OA
BRANCH  14  15
ATOM     15  C   UNL     1       0.096  -4.095   0.041  0.00  0.00    +0.000 C 
ATOM     16  O   UNL     1       1.067  -4.106   0.846  0.00  0.00    +0.000 OA
ATOM     17  C   UNL     1      -0.151  -5.280  -0.829  0.00  0.00    +0.000 C 
ENDBRANCH  14  15
ENDBRANCH   2  14
BRANCH   4  18
ATOM     18  C   UNL     1      -3.158   0.426   2.110  0.00  0.00    +0.000 C 
BRANCH  18  19
ATOM     19  O   UNL     1      -3.931   0.701   0.945  0.00  0.00    +0.000 OA
BRANCH  19  20
ATOM     20  C   UNL     1      -5.253   1.150   1.006  0.00  0.00    +0.000 C 
ATOM     21  O   UNL     1      -5.815   1.350   2.117  0.00  0.00    +0.000 OA
ATOM     22  C   UNL     1      -5.988   1.443  -0.258  0.00  0.00    +0.000 C 
ENDBRANCH  19  20
ENDBRANCH  18  19
ENDBRANCH   4  18
BRANCH   5  23
ATOM     23  O   UNL     1      -0.860   2.223   1.760  0.00  0.00    +0.000 OA
BRANCH  23  24
ATOM     24  C   UNL     1      -0.697   3.519   1.259  0.00  0.00    +0.000 C 
ATOM     25  O   UNL     1      -0.717   3.742   0.018  0.00  0.00    +0.000 OA
ATOM     26  C   UNL     1      -0.462   4.646   2.206  0.00  0.00    +0.000 C 
ENDBRANCH  23  24
ENDBRANCH   5  23
BRANCH   6  27
ATOM     27  O   UNL     1       1.010   1.482  -0.351  0.00  0.00    +0.000 OA
BRANCH  27  28
ATOM     28  C   UNL     1       2.393   1.671  -0.455  0.00  0.00    +0.000 C 
ATOM     29  O   UNL     1       3.192   1.052   0.299  0.00  0.00    +0.000 OA
ATOM     30  C   UNL     1       2.928   2.589  -1.500  0.00  0.00    +0.000 C 
ENDBRANCH  27  28
ENDBRANCH   6  27
TORSDOF 12
