REMARK  Name = 24154
REMARK  6 active torsions:
REMARK  status: ('A' for Active; 'I' for Inactive)
REMARK    1  A    between atoms: N_1  and  C_2
REMARK    2  A    between atoms: C_3  and  O_4
REMARK    3  A    between atoms: C_6  and  C_7
REMARK    4  A    between atoms: C_7  and  O_8
REMARK    5  A    between atoms: C_9  and  O_10
REMARK    6  A    between atoms: C_11  and  O_12
REMARK                            x       y       z     vdW  Elec       q    Type
REMARK                         _______ _______ _______ _____ _____    ______ ____
ROOT
ATOM      1  C   UNL     1       1.554  -0.123  -1.793  0.00  0.00    +0.000 C 
ATOM      2  C   UNL     1       2.272  -0.438  -0.456  0.00  0.00    +0.000 C 
ATOM      3  O   UNL     1       1.418  -1.201   0.376  0.00  0.00    +0.000 OA
ATOM      4  C   UNL     1       0.377  -0.395   0.916  0.00  0.00    +0.000 C 
ATOM      5  C   UNL     1      -0.280   0.539  -0.162  0.00  0.00    +0.000 C 
ATOM      6  C   UNL     1       0.020   0.032  -1.583  0.00  0.00    +0.000 C 
ENDROOT
BRANCH   1   7
ATOM      7  N   UNL     1       2.124   1.082  -2.411  0.00  0.00    +0.000 N 
ATOM      8  H   UNL     1       1.703   1.228  -3.357  0.00  0.00    +0.000 HD
ATOM      9  H   UNL     1       1.938   1.924  -1.819  0.00  0.00    +0.000 HD
ATOM     10  H   UNL     1       3.157   0.966  -2.528  0.00  0.00    +0.000 HD
ENDBRANCH   1   7
BRANCH   2  11
ATOM     11  O   UNL     1       3.436  -1.173  -0.719  0.00  0.00    +0.000 OA
ATOM     12  H   UNL     1       3.906  -1.273   0.149  0.00  0.00    +0.000 HD
ENDBRANCH   2  11
BRANCH   5  13
ATOM     13  O   UNL     1      -1.670   0.667   0.007  0.00  0.00    +0.000 OA
ATOM     14  H   UNL     1      -1.812   1.349   0.714  0.00  0.00    +0.000 HD
ENDBRANCH   5  13
BRANCH   6  15
ATOM     15  O   UNL     1      -0.621  -1.204  -1.777  0.00  0.00    +0.000 OA
ATOM     16  H   UNL     1      -0.672  -1.350  -2.757  0.00  0.00    +0.000 HD
ENDBRANCH   6  15
BRANCH   4  17
ATOM     17  C   UNL     1      -0.632  -1.341   1.597  0.00  0.00    +0.000 C 
BRANCH  17  18
ATOM     18  O   UNL     1      -1.500  -0.635   2.442  0.00  0.00    +0.000 OA
ATOM     19  H   UNL     1      -0.982  -0.406   3.257  0.00  0.00    +0.000 HD
ENDBRANCH  17  18
ENDBRANCH   4  17
TORSDOF 6
