REMARK  Name = 2733335
REMARK  9 active torsions:
REMARK  status: ('A' for Active; 'I' for Inactive)
REMARK    1  A    between atoms: O_2  and  C_3
REMARK    2  A    between atoms: N_4  and  C_5
REMARK    3  A    between atoms: C_7  and  O_9
REMARK    4  A    between atoms: C_12  and  C_14
REMARK    5  A    between atoms: C_14  and  O_17
REMARK    6  A    between atoms: C_19  and  O_21
REMARK    7  A    between atoms: C_23  and  O_25
REMARK    8  A    between atoms: N_27  and  N_28
REMARK    9  A    between atoms: N_27  and  C_30
REMARK                            x       y       z     vdW  Elec       q    Type
REMARK                         _______ _______ _______ _____ _____    ______ ____
ROOT
ATOM      1  C   UNL     1       0.298  -1.240   0.127  0.00  0.00    +0.000 C 
ATOM      2  C   UNL     1      -1.198  -0.859   0.091  0.00  0.00    +0.000 C 
ATOM      3  O   UNL     1      -1.358   0.544  -0.038  0.00  0.00    +0.000 OA
ATOM      4  C   UNL     1      -0.837   1.047  -1.262  0.00  0.00    +0.000 C 
ATOM      5  C   UNL     1       0.667   0.712  -1.458  0.00  0.00    +0.000 C 
ATOM      6  C   UNL     1       0.974  -0.774  -1.173  0.00  0.00    +0.000 C 
ENDROOT
BRANCH   1   8
ATOM      7  C   UNL     1       1.048  -1.046   2.495  0.00  0.00    +0.000 C 
ATOM      8  N   UNL     1       0.966  -0.607   1.269  0.00  0.00    +0.000 NA
ATOM      9  N   UNL     1       1.724  -0.258   3.488  0.00  0.00    +0.000 N 
ATOM     10  C   UNL     1       2.313   1.042   3.145  0.00  0.00    +0.000 C 
BRANCH   7  12
ATOM     11  H   UNL     1       0.034  -2.908   2.245  0.00  0.00    +0.000 HD
ATOM     12  O   UNL     1       0.497  -2.273   2.879  0.00  0.00    +0.000 OA
ENDBRANCH   7  12
BRANCH   9  13
ATOM     13  N   UNL     1       1.683  -0.695   4.824  0.00  0.00    +0.000 NA
ATOM     14  O   UNL     1       2.166  -0.013   5.751  0.00  0.00    +0.000 OA
ENDBRANCH   9  13
ENDBRANCH   1   8
BRANCH   2  15
ATOM     15  O   UNL     1      -1.825  -1.261   1.280  0.00  0.00    +0.000 OA
ATOM     16  H   UNL     1      -2.031  -2.229   1.188  0.00  0.00    +0.000 HD
ENDBRANCH   2  15
BRANCH   5  17
ATOM     17  O   UNL     1       1.442   1.508  -0.598  0.00  0.00    +0.000 OA
ATOM     18  H   UNL     1       1.494   2.412  -1.006  0.00  0.00    +0.000 HD
ENDBRANCH   5  17
BRANCH   6  19
ATOM     19  O   UNL     1       0.542  -1.581  -2.239  0.00  0.00    +0.000 OA
ATOM     20  H   UNL     1       1.188  -1.449  -2.982  0.00  0.00    +0.000 HD
ENDBRANCH   6  19
BRANCH   4  21
ATOM     21  C   UNL     1      -1.711   0.686  -2.479  0.00  0.00    +0.000 C 
BRANCH  21  22
ATOM     22  O   UNL     1      -3.051   0.989  -2.205  0.00  0.00    +0.000 OA
ATOM     23  H   UNL     1      -3.561   0.749  -3.022  0.00  0.00    +0.000 HD
ENDBRANCH  21  22
ENDBRANCH   4  21
TORSDOF 8
