REMARK  Name = ZINC000004027857
REMARK  6 active torsions:
REMARK  status: ('A' for Active; 'I' for Inactive)
REMARK    1  A    between atoms: O_2  and  C_3
REMARK    2  A    between atoms: C_3  and  C_38
REMARK    3  A    between atoms: N_4  and  C_5
REMARK    4  A    between atoms: C_7  and  O_9
REMARK    5  A    between atoms: C_14  and  C_16
REMARK    6  A    between atoms: C_34  and  O_36
REMARK                            x       y       z     vdW  Elec       q    Type
REMARK                         _______ _______ _______ _____ _____    ______ ____
ROOT
ATOM      1  C   UNL     1      -2.329   0.930  -0.046  0.00  0.00    +0.000 C 
ATOM      2  C   UNL     1      -1.491   0.033   0.888  0.00  0.00    +0.000 C 
ATOM      3  C   UNL     1      -0.091  -0.161   0.285  0.00  0.00    +0.000 C 
ATOM      4  O   UNL     1       0.735  -0.888   1.174  0.00  0.00    +0.000 OA
ATOM      5  C   UNL     1       2.046  -1.062   0.640  0.00  0.00    +0.000 C 
ATOM      6  O   UNL     1       2.678   0.179   0.331  0.00  0.00    +0.000 OA
ATOM      7  C   UNL     1       1.912   0.951  -0.574  0.00  0.00    +0.000 C 
ATOM      8  C   UNL     1       0.524   1.209  -0.009  0.00  0.00    +0.000 C 
ATOM      9  O   UNL     1      -0.265   1.912  -0.950  0.00  0.00    +0.000 OA
ATOM     10  C   UNL     1      -1.535   2.221  -0.391  0.00  0.00    +0.000 C 
ENDROOT
BRANCH   5  11
ATOM     11  C   UNL     1       2.113  -2.077  -0.493  0.00  0.00    +0.000 A 
ATOM     12  C   UNL     1       1.191  -3.140  -0.553  0.00  0.00    +0.000 A 
ATOM     13  C   UNL     1       1.287  -4.105  -1.561  0.00  0.00    +0.000 A 
ATOM     14  C   UNL     1       2.317  -4.037  -2.501  0.00  0.00    +0.000 A 
ATOM     15  C   UNL     1       3.261  -3.011  -2.428  0.00  0.00    +0.000 A 
ATOM     16  C   UNL     1       3.170  -2.043  -1.423  0.00  0.00    +0.000 A 
ENDBRANCH   5  11
BRANCH   1  18
ATOM     17  C   UNL     1      -4.729   1.563   0.061  0.00  0.00    +0.000 C 
ATOM     18  N   UNL     1      -3.591   1.263   0.621  0.00  0.00    +0.000 NA
ATOM     19  C   UNL     1      -5.893   1.892   0.934  0.00  0.00    +0.000 C 
BRANCH  17  21
ATOM     20  H   UNL     1      -4.196   1.302  -1.987  0.00  0.00    +0.000 HD
ATOM     21  O   UNL     1      -4.913   1.559  -1.324  0.00  0.00    +0.000 OA
ENDBRANCH  17  21
ENDBRANCH   1  18
BRANCH   2  22
ATOM     22  O   UNL     1      -1.401   0.618   2.164  0.00  0.00    +0.000 OA
ATOM     23  H   UNL     1      -1.193  -0.112   2.804  0.00  0.00    +0.000 HD
ENDBRANCH   2  22
BRANCH  10  24
ATOM     24  O   UNL     1      -2.259   3.012  -1.296  0.00  0.00    +0.000 OA
ATOM     25  H   UNL     1      -2.184   2.580  -2.187  0.00  0.00    +0.000 HD
ENDBRANCH  10  24
TORSDOF 5
