REMARK  Name = 448882
REMARK  9 active torsions:
REMARK  status: ('A' for Active; 'I' for Inactive)
REMARK    1  A    between atoms: O_2  and  C_3
REMARK    2  A    between atoms: C_3  and  C_30
REMARK    3  A    between atoms: N_4  and  C_5
REMARK    4  A    between atoms: C_7  and  O_9
REMARK    5  A    between atoms: O_9  and  C_10
REMARK    6  A    between atoms: C_15  and  C_17
REMARK    7  A    between atoms: C_17  and  O_20
REMARK    8  A    between atoms: C_22  and  O_24
REMARK    9  A    between atoms: C_26  and  O_28
REMARK                            x       y       z     vdW  Elec       q    Type
REMARK                         _______ _______ _______ _____ _____    ______ ____
ROOT
ATOM      1  C   UNL     1      -0.133   1.200   0.346  0.00  0.00    +0.000 C 
ATOM      2  C   UNL     1       0.974   0.128   0.247  0.00  0.00    +0.000 C 
ATOM      3  O   UNL     1       0.455  -1.074  -0.306  0.00  0.00    +0.000 OA
ATOM      4  C   UNL     1      -0.001  -0.909  -1.644  0.00  0.00    +0.000 C 
ATOM      5  C   UNL     1      -1.096   0.187  -1.758  0.00  0.00    +0.000 C 
ATOM      6  C   UNL     1      -0.690   1.498  -1.054  0.00  0.00    +0.000 C 
ENDROOT
BRANCH   1   8
ATOM      7  C   UNL     1      -1.248   0.867   2.506  0.00  0.00    +0.000 C 
ATOM      8  N   UNL     1      -1.224   0.740   1.212  0.00  0.00    +0.000 NA
ATOM      9  C   UNL     1      -2.424   0.353   3.272  0.00  0.00    +0.000 C 
BRANCH   7  11
ATOM     10  H   UNL     1      -0.229   1.627   4.184  0.00  0.00    +0.000 HD
ATOM     11  O   UNL     1      -0.209   1.510   3.179  0.00  0.00    +0.000 OA
ENDBRANCH   7  11
ENDBRANCH   1   8
BRANCH   2  12
ATOM     12  O   UNL     1       1.472  -0.135   1.545  0.00  0.00    +0.000 OA
ATOM     13  C   UNL     1       2.690  -0.844   1.466  0.00  0.00    +0.000 C 
ENDBRANCH   2  12
BRANCH   5  14
ATOM     14  O   UNL     1      -1.423   0.442  -3.101  0.00  0.00    +0.000 OA
ATOM     15  H   UNL     1      -1.916  -0.353  -3.432  0.00  0.00    +0.000 HD
ENDBRANCH   5  14
BRANCH   6  16
ATOM     16  O   UNL     1       0.275   2.195  -1.804  0.00  0.00    +0.000 OA
ATOM     17  H   UNL     1      -0.210   2.686  -2.518  0.00  0.00    +0.000 HD
ENDBRANCH   6  16
BRANCH   4  18
ATOM     18  C   UNL     1       1.160  -0.766  -2.651  0.00  0.00    +0.000 C 
BRANCH  18  19
ATOM     19  O   UNL     1       2.123  -1.753  -2.404  0.00  0.00    +0.000 OA
ATOM     20  H   UNL     1       2.839  -1.616  -3.078  0.00  0.00    +0.000 HD
ENDBRANCH  18  19
ENDBRANCH   4  18
TORSDOF 7
