REMARK  Name = 202260
REMARK  14 active torsions:
REMARK  status: ('A' for Active; 'I' for Inactive)
REMARK    1  A    between atoms: C_1  and  C_2
REMARK    2  A    between atoms: C_2  and  O_4
REMARK    3  A    between atoms: O_4  and  C_5
REMARK    4  A    between atoms: C_5  and  C_6
REMARK    5  A    between atoms: C_8  and  O_9
REMARK    6  A    between atoms: O_9  and  C_10
REMARK    7  A    between atoms: C_10  and  C_11
REMARK    8  A    between atoms: C_13  and  N_14
REMARK    9  A    between atoms: C_15  and  O_16
REMARK   10  A    between atoms: O_16  and  C_17
REMARK   11  A    between atoms: C_17  and  C_18
REMARK   12  A    between atoms: C_20  and  O_21
REMARK   13  A    between atoms: O_21  and  C_22
REMARK   14  A    between atoms: C_22  and  C_23
REMARK                            x       y       z     vdW  Elec       q    Type
REMARK                         _______ _______ _______ _____ _____    ______ ____
ROOT
ATOM      1  C   UNL     1      -0.077   0.009   0.775  0.00  0.00    +0.000 C 
ATOM      2  O   UNL     1      -0.921   0.690  -0.137  0.00  0.00    +0.000 OA
ATOM      3  C   UNL     1      -0.417   0.578  -1.455  0.00  0.00    +0.000 C 
ATOM      4  C   UNL     1       0.925   1.324  -1.575  0.00  0.00    +0.000 C 
ATOM      5  C   UNL     1       1.936   0.752  -0.552  0.00  0.00    +0.000 C 
ATOM      6  C   UNL     1       1.299   0.706   0.851  0.00  0.00    +0.000 C 
ENDROOT
BRANCH   4   7
ATOM      7  N   UNL     1       1.425   1.222  -2.948  0.00  0.00    +0.000 NA
ATOM      8  H   UNL     1       1.762   0.249  -3.130  0.00  0.00    +0.000 HD
ATOM      9  H   UNL     1       2.235   1.873  -3.065  0.00  0.00    +0.000 HD
ENDBRANCH   4   7
BRANCH   1  10
ATOM     10  C   UNL     1      -0.759  -0.003   2.151  0.00  0.00    +0.000 C 
BRANCH  10  11
ATOM     11  O   UNL     1      -2.068  -0.562   2.059  0.00  0.00    +0.000 OA
BRANCH  11  13
ATOM     12  C   UNL     1      -3.711  -2.408   1.707  0.00  0.00    +0.000 C 
ATOM     13  C   UNL     1      -2.313  -1.932   1.911  0.00  0.00    +0.000 C 
ATOM     14  O   UNL     1      -1.364  -2.762   1.909  0.00  0.00    +0.000 OA
ENDBRANCH  11  13
ENDBRANCH  10  11
ENDBRANCH   1  10
BRANCH   3  15
ATOM     15  O   UNL     1      -1.354   1.162  -2.358  0.00  0.00    +0.000 OA
BRANCH  15  16
ATOM     16  C   UNL     1      -2.637   0.643  -2.560  0.00  0.00    +0.000 C 
ATOM     17  C   UNL     1      -3.567   1.331  -3.499  0.00  0.00    +0.000 C 
ATOM     18  O   UNL     1      -3.028  -0.376  -1.928  0.00  0.00    +0.000 OA
ENDBRANCH  15  16
ENDBRANCH   3  15
BRANCH   5  19
ATOM     19  O   UNL     1       3.105   1.573  -0.505  0.00  0.00    +0.000 OA
BRANCH  19  20
ATOM     20  C   UNL     1       4.271   1.319  -1.236  0.00  0.00    +0.000 C 
ATOM     21  C   UNL     1       5.433   2.242  -1.099  0.00  0.00    +0.000 C 
ATOM     22  O   UNL     1       4.369   0.297  -1.967  0.00  0.00    +0.000 OA
ENDBRANCH  19  20
ENDBRANCH   5  19
BRANCH   6  23
ATOM     23  O   UNL     1       2.147  -0.020   1.745  0.00  0.00    +0.000 OA
BRANCH  23  24
ATOM     24  C   UNL     1       3.244   0.542   2.407  0.00  0.00    +0.000 C 
ATOM     25  C   UNL     1       4.106  -0.324   3.261  0.00  0.00    +0.000 C 
ATOM     26  O   UNL     1       3.482   1.778   2.333  0.00  0.00    +0.000 OA
ENDBRANCH  23  24
ENDBRANCH   6  23
TORSDOF 10
