REMARK  Name = ZINC000257346903
REMARK  12 active torsions:
REMARK  status: ('A' for Active; 'I' for Inactive)
REMARK    1  A    between atoms: O_2  and  C_3
REMARK    2  A    between atoms: C_3  and  C_39
REMARK    3  A    between atoms: N_4  and  C_5
REMARK    4  A    between atoms: C_7  and  O_9
REMARK    5  A    between atoms: O_9  and  S_10
REMARK    6  A    between atoms: S_10  and  C_13
REMARK    7  A    between atoms: C_17  and  O_19
REMARK    8  A    between atoms: C_21  and  C_23
REMARK    9  A    between atoms: C_23  and  O_26
REMARK   10  A    between atoms: C_29  and  O_31
REMARK   11  A    between atoms: O_31  and  C_32
REMARK   12  A    between atoms: C_32  and  C_35
REMARK                            x       y       z     vdW  Elec       q    Type
REMARK                         _______ _______ _______ _____ _____    ______ ____
ROOT
ATOM      1  C   UNL     1      -0.068  -1.470   0.249  0.00  0.00    +0.000 C 
ATOM      2  C   UNL     1      -0.590  -1.686  -1.188  0.00  0.00    +0.000 C 
ATOM      3  C   UNL     1      -1.486  -2.942  -1.217  0.00  0.00    +0.000 C 
ATOM      4  C   UNL     1      -2.557  -2.858  -0.104  0.00  0.00    +0.000 C 
ATOM      5  O   UNL     1      -1.935  -2.715   1.162  0.00  0.00    +0.000 OA
ATOM      6  C   UNL     1      -1.242  -1.481   1.245  0.00  0.00    +0.000 C 
ENDROOT
BRANCH   1   8
ATOM      7  C   UNL     1       1.853   0.015  -0.066  0.00  0.00    +0.000 C 
ATOM      8  N   UNL     1       0.641  -0.195   0.356  0.00  0.00    +0.000 NA
BRANCH   7   9
ATOM      9  C   UNL     1       2.452   1.362   0.094  0.00  0.00    +0.000 A 
ATOM     10  C   UNL     1       3.459   1.813  -0.779  0.00  0.00    +0.000 A 
ATOM     11  C   UNL     1       4.010   3.090  -0.625  0.00  0.00    +0.000 A 
ATOM     12  C   UNL     1       3.560   3.930   0.396  0.00  0.00    +0.000 A 
ATOM     13  C   UNL     1       2.554   3.498   1.262  0.00  0.00    +0.000 A 
ATOM     14  C   UNL     1       1.999   2.224   1.113  0.00  0.00    +0.000 A 
ENDBRANCH   7   9
BRANCH   7  16
ATOM     15  H   UNL     1       3.546  -0.937  -0.916  0.00  0.00    +0.000 HD
ATOM     16  O   UNL     1       2.572  -1.026  -0.659  0.00  0.00    +0.000 OA
ENDBRANCH   7  16
ENDBRANCH   1   8
BRANCH   3  17
ATOM     17  O   UNL     1      -2.107  -3.061  -2.472  0.00  0.00    +0.000 OA
ATOM     18  H   UNL     1      -1.428  -3.436  -3.092  0.00  0.00    +0.000 HD
ENDBRANCH   3  17
BRANCH   2  19
ATOM     19  O   UNL     1      -1.347  -0.555  -1.587  0.00  0.00    +0.000 OA
BRANCH  19  20
ATOM     20  S   UNL     1      -0.753   0.085  -3.043  0.00  0.00    +0.000 S 
ATOM     21  O   UNL     1       0.665   0.552  -2.872  0.00  0.00    +0.000 OA
ATOM     22  O   UNL     1      -0.819  -0.946  -4.135  0.00  0.00    +0.000 OA
ATOM     23  C   UNL     1      -1.763   1.473  -3.501  0.00  0.00    +0.000 C 
ENDBRANCH  19  20
ENDBRANCH   2  19
BRANCH   4  24
ATOM     24  C   UNL     1      -3.419  -4.129  -0.082  0.00  0.00    +0.000 C 
BRANCH  24  25
ATOM     25  O   UNL     1      -4.426  -4.019   0.888  0.00  0.00    +0.000 OA
ATOM     26  H   UNL     1      -4.011  -4.249   1.760  0.00  0.00    +0.000 HD
ENDBRANCH  24  25
ENDBRANCH   4  24
BRANCH   6  27
ATOM     27  O   UNL     1      -0.714  -1.341   2.551  0.00  0.00    +0.000 OA
BRANCH  27  28
ATOM     28  C   UNL     1      -1.705  -0.891   3.457  0.00  0.00    +0.000 C 
ATOM     29  C   UNL     1      -1.619   0.623   3.618  0.00  0.00    +0.000 C 
ENDBRANCH  27  28
ENDBRANCH   6  27
TORSDOF 10
