REMARK  Name = ZINC000102863660
REMARK  12 active torsions:
REMARK  status: ('A' for Active; 'I' for Inactive)
REMARK    1  A    between atoms: O_2  and  C_3
REMARK    2  A    between atoms: C_3  and  C_39
REMARK    3  A    between atoms: N_4  and  C_5
REMARK    4  A    between atoms: C_7  and  O_9
REMARK    5  A    between atoms: O_9  and  C_10
REMARK    6  A    between atoms: C_10  and  C_11
REMARK    7  A    between atoms: C_10  and  C_15
REMARK    8  A    between atoms: C_10  and  C_19
REMARK    9  A    between atoms: C_24  and  C_26
REMARK   10  A    between atoms: C_26  and  O_29
REMARK   11  A    between atoms: C_31  and  O_33
REMARK   12  A    between atoms: C_35  and  O_37
REMARK                            x       y       z     vdW  Elec       q    Type
REMARK                         _______ _______ _______ _____ _____    ______ ____
ROOT
ATOM      1  C   UNL     1      -1.235   0.402   0.527  0.00  0.00    +0.000 C 
ATOM      2  C   UNL     1       0.036  -0.180  -0.146  0.00  0.00    +0.000 C 
ATOM      3  O   UNL     1       1.123   0.705   0.060  0.00  0.00    +0.000 OA
ATOM      4  C   UNL     1       0.987   1.861  -0.757  0.00  0.00    +0.000 C 
ATOM      5  C   UNL     1      -0.422   2.527  -0.622  0.00  0.00    +0.000 C 
ATOM      6  C   UNL     1      -1.165   1.950   0.593  0.00  0.00    +0.000 C 
ENDROOT
BRANCH   1   8
ATOM      7  C   UNL     1      -2.994  -1.184  -0.088  0.00  0.00    +0.000 C 
ATOM      8  N   UNL     1      -2.429  -0.020  -0.212  0.00  0.00    +0.000 NA
ATOM      9  C   UNL     1      -4.202  -1.506  -0.906  0.00  0.00    +0.000 C 
BRANCH   7  11
ATOM     10  H   UNL     1      -2.949  -3.022   0.938  0.00  0.00    +0.000 HD
ATOM     11  O   UNL     1      -2.507  -2.118   0.826  0.00  0.00    +0.000 OA
ENDBRANCH   7  11
ENDBRANCH   1   8
BRANCH   5  12
ATOM     12  O   UNL     1      -1.179   2.295  -1.783  0.00  0.00    +0.000 OA
ATOM     13  H   UNL     1      -0.816   2.895  -2.485  0.00  0.00    +0.000 HD
ENDBRANCH   5  12
BRANCH   6  14
ATOM     14  O   UNL     1      -2.448   2.517   0.684  0.00  0.00    +0.000 OA
ATOM     15  H   UNL     1      -2.793   2.297   1.589  0.00  0.00    +0.000 HD
ENDBRANCH   6  14
BRANCH   2  16
ATOM     16  O   UNL     1       0.339  -1.428   0.460  0.00  0.00    +0.000 OA
BRANCH  16  17
ATOM     17  C   UNL     1       1.018  -2.362  -0.382  0.00  0.00    +0.000 C 
ATOM     18  C   UNL     1       0.055  -2.981  -1.420  0.00  0.00    +0.000 C 
ATOM     19  C   UNL     1       2.260  -1.762  -1.087  0.00  0.00    +0.000 C 
ATOM     20  C   UNL     1       1.505  -3.491   0.542  0.00  0.00    +0.000 C 
ENDBRANCH  16  17
ENDBRANCH   2  16
BRANCH   4  21
ATOM     21  C   UNL     1       2.093   2.850  -0.377  0.00  0.00    +0.000 C 
BRANCH  21  22
ATOM     22  O   UNL     1       3.346   2.246  -0.541  0.00  0.00    +0.000 OA
ATOM     23  H   UNL     1       4.017   2.926  -0.272  0.00  0.00    +0.000 HD
ENDBRANCH  21  22
ENDBRANCH   4  21
TORSDOF 8
