REMARK  Name = ZINC000056871016
REMARK  9 active torsions:
REMARK  status: ('A' for Active; 'I' for Inactive)
REMARK    1  A    between atoms: O_2  and  C_3
REMARK    2  A    between atoms: C_3  and  C_30
REMARK    3  A    between atoms: N_4  and  C_5
REMARK    4  A    between atoms: C_7  and  O_9
REMARK    5  A    between atoms: C_11  and  O_13
REMARK    6  A    between atoms: C_15  and  C_17
REMARK    7  A    between atoms: C_17  and  O_20
REMARK    8  A    between atoms: C_23  and  O_25
REMARK    9  A    between atoms: O_25  and  C_26
REMARK                            x       y       z     vdW  Elec       q    Type
REMARK                         _______ _______ _______ _____ _____    ______ ____
ROOT
ATOM      1  C   UNL     1       0.485   0.911  -0.639  0.00  0.00    +0.000 C 
ATOM      2  C   UNL     1       1.125   1.346   0.694  0.00  0.00    +0.000 C 
ATOM      3  C   UNL     1       0.100   1.212   1.835  0.00  0.00    +0.000 C 
ATOM      4  C   UNL     1      -0.534  -0.200   1.810  0.00  0.00    +0.000 C 
ATOM      5  O   UNL     1      -1.138  -0.439   0.549  0.00  0.00    +0.000 OA
ATOM      6  C   UNL     1      -0.160  -0.480  -0.478  0.00  0.00    +0.000 C 
ENDROOT
BRANCH   1   8
ATOM      7  C   UNL     1       1.879   1.842  -2.463  0.00  0.00    +0.000 C 
ATOM      8  N   UNL     1       1.497   0.858  -1.700  0.00  0.00    +0.000 NA
ATOM      9  C   UNL     1       1.267   3.214  -2.376  0.00  0.00    +0.000 C 
BRANCH   7  11
ATOM     10  H   UNL     1       3.203   2.321  -4.034  0.00  0.00    +0.000 HD
ATOM     11  O   UNL     1       2.874   1.596  -3.407  0.00  0.00    +0.000 OA
ENDBRANCH   7  11
ENDBRANCH   1   8
BRANCH   2  12
ATOM     12  O   UNL     1       2.257   0.552   0.957  0.00  0.00    +0.000 OA
ATOM     13  H   UNL     1       2.856   1.082   1.546  0.00  0.00    +0.000 HD
ENDBRANCH   2  12
BRANCH   3  14
ATOM     14  O   UNL     1       0.739   1.445   3.066  0.00  0.00    +0.000 OA
ATOM     15  H   UNL     1       0.086   1.907   3.654  0.00  0.00    +0.000 HD
ENDBRANCH   3  14
BRANCH   6  16
ATOM     16  O   UNL     1      -0.788  -0.821  -1.700  0.00  0.00    +0.000 OA
ATOM     17  C   UNL     1      -1.089  -2.199  -1.723  0.00  0.00    +0.000 C 
ENDBRANCH   6  16
BRANCH   4  18
ATOM     18  C   UNL     1      -1.612  -0.338   2.896  0.00  0.00    +0.000 C 
BRANCH  18  19
ATOM     19  O   UNL     1      -2.224  -1.598   2.821  0.00  0.00    +0.000 OA
ATOM     20  H   UNL     1      -1.576  -2.251   3.196  0.00  0.00    +0.000 HD
ENDBRANCH  18  19
ENDBRANCH   4  18
TORSDOF 7
