REMARK  Name = ZINC000032106887
REMARK  5 active torsions:
REMARK  status: ('A' for Active; 'I' for Inactive)
REMARK    1  A    between atoms: O_2  and  C_3
REMARK    2  A    between atoms: C_8  and  C_10
REMARK    3  A    between atoms: C_28  and  O_30
REMARK    4  A    between atoms: O_30  and  C_31
REMARK    5  A    between atoms: C_35  and  N_37
REMARK                            x       y       z     vdW  Elec       q    Type
REMARK                         _______ _______ _______ _____ _____    ______ ____
ROOT
ATOM      1  C   UNL     1      -1.327   1.345  -0.837  0.00  0.00    +0.000 C 
ATOM      2  C   UNL     1      -0.372   0.718   0.185  0.00  0.00    +0.000 C 
ATOM      3  O   UNL     1       0.911   0.531  -0.377  0.00  0.00    +0.000 OA
ATOM      4  C   UNL     1       1.781  -0.018   0.606  0.00  0.00    +0.000 C 
ATOM      5  O   UNL     1       1.343  -1.318   0.981  0.00  0.00    +0.000 OA
ATOM      6  C   UNL     1       0.075  -1.241   1.604  0.00  0.00    +0.000 C 
ATOM      7  C   UNL     1      -0.942  -0.630   0.644  0.00  0.00    +0.000 C 
ATOM      8  O   UNL     1      -2.190  -0.450   1.291  0.00  0.00    +0.000 OA
ATOM      9  C   UNL     1      -3.167   0.046   0.378  0.00  0.00    +0.000 C 
ATOM     10  C   UNL     1      -2.740   1.414  -0.220  0.00  0.00    +0.000 C 
ENDROOT
BRANCH   4  11
ATOM     11  C   UNL     1       3.188  -0.097   0.053  0.00  0.00    +0.000 A 
ATOM     12  C   UNL     1       4.102  -1.043   0.558  0.00  0.00    +0.000 A 
ATOM     13  C   UNL     1       5.418  -1.082   0.086  0.00  0.00    +0.000 A 
ATOM     14  C   UNL     1       5.845  -0.164  -0.876  0.00  0.00    +0.000 A 
ATOM     15  C   UNL     1       4.960   0.801  -1.361  0.00  0.00    +0.000 A 
ATOM     16  C   UNL     1       3.643   0.844  -0.892  0.00  0.00    +0.000 A 
ENDBRANCH   4  11
BRANCH  10  17
ATOM     17  N   UNL     1      -3.702   1.872  -1.219  0.00  0.00    +0.000 NA
ATOM     18  N   UNL     1      -4.869   2.122  -0.914  0.00  0.00    +0.000 NA
ATOM     19  N   UNL     1      -6.034   2.371  -0.609  0.00  0.00    +0.000 NA
ENDBRANCH  10  17
BRANCH   1  21
ATOM     20  H   UNL     1      -1.607   1.185  -2.754  0.00  0.00    +0.000 HD
ATOM     21  O   UNL     1      -1.330   0.580  -2.018  0.00  0.00    +0.000 OA
ENDBRANCH   1  21
BRANCH   9  22
ATOM     22  O   UNL     1      -3.424  -0.886  -0.662  0.00  0.00    +0.000 OA
ATOM     23  C   UNL     1      -4.153  -1.984  -0.160  0.00  0.00    +0.000 C 
ENDBRANCH   9  22
TORSDOF 4
