REMARK  Name = ZINC000015205946
REMARK  10 active torsions:
REMARK  status: ('A' for Active; 'I' for Inactive)
REMARK    1  A    between atoms: O_2  and  C_3
REMARK    2  A    between atoms: C_3  and  C_39
REMARK    3  A    between atoms: N_4  and  C_5
REMARK    4  A    between atoms: C_7  and  O_9
REMARK    5  A    between atoms: C_11  and  O_13
REMARK    6  A    between atoms: C_15  and  C_17
REMARK    7  A    between atoms: C_17  and  O_20
REMARK    8  A    between atoms: C_23  and  O_25
REMARK    9  A    between atoms: O_25  and  C_26
REMARK   10  A    between atoms: C_35  and  N_36
REMARK                            x       y       z     vdW  Elec       q    Type
REMARK                         _______ _______ _______ _____ _____    ______ ____
ROOT
ATOM      1  C   UNL     1       0.814  -0.723   0.557  0.00  0.00    +0.000 C 
ATOM      2  C   UNL     1       2.298  -0.934   0.972  0.00  0.00    +0.000 C 
ATOM      3  C   UNL     1       3.154  -1.216  -0.273  0.00  0.00    +0.000 C 
ATOM      4  C   UNL     1       3.031  -0.028  -1.270  0.00  0.00    +0.000 C 
ATOM      5  O   UNL     1       1.790   0.671  -1.189  0.00  0.00    +0.000 OA
ATOM      6  C   UNL     1       0.705  -0.191  -0.900  0.00  0.00    +0.000 C 
ENDROOT
BRANCH   1   8
ATOM      7  C   UNL     1      -0.285  -0.071   2.678  0.00  0.00    +0.000 C 
ATOM      8  N   UNL     1       0.135   0.199   1.475  0.00  0.00    +0.000 NA
ATOM      9  C   UNL     1      -0.953   1.006   3.464  0.00  0.00    +0.000 C 
BRANCH   7  11
ATOM     10  H   UNL     1       0.310  -2.113   2.791  0.00  0.00    +0.000 HD
ATOM     11  O   UNL     1      -0.127  -1.332   3.260  0.00  0.00    +0.000 OA
ENDBRANCH   7  11
ENDBRANCH   1   8
BRANCH   2  12
ATOM     12  O   UNL     1       2.806   0.204   1.627  0.00  0.00    +0.000 OA
ATOM     13  H   UNL     1       2.640   0.083   2.598  0.00  0.00    +0.000 HD
ENDBRANCH   2  12
BRANCH   3  14
ATOM     14  O   UNL     1       4.500  -1.397   0.087  0.00  0.00    +0.000 OA
ATOM     15  H   UNL     1       4.566  -2.293   0.509  0.00  0.00    +0.000 HD
ENDBRANCH   3  14
BRANCH   4  16
ATOM     16  C   UNL     1       3.314  -0.464  -2.715  0.00  0.00    +0.000 C 
BRANCH  16  17
ATOM     17  O   UNL     1       3.275   0.650  -3.562  0.00  0.00    +0.000 OA
ATOM     18  H   UNL     1       3.465   0.310  -4.474  0.00  0.00    +0.000 HD
ENDBRANCH  16  17
ENDBRANCH   4  16
BRANCH   6  19
ATOM     19  O   UNL     1      -0.509   0.543  -1.086  0.00  0.00    +0.000 OA
BRANCH  19  20
ATOM     20  C   UNL     1      -1.812   0.012  -1.067  0.00  0.00    +0.000 A 
ATOM     21  C   UNL     1      -2.044  -1.377  -1.139  0.00  0.00    +0.000 A 
ATOM     22  C   UNL     1      -3.345  -1.881  -1.134  0.00  0.00    +0.000 A 
ATOM     23  C   UNL     1      -4.431  -1.012  -1.063  0.00  0.00    +0.000 A 
ATOM     24  C   UNL     1      -4.221   0.365  -0.994  0.00  0.00    +0.000 A 
ATOM     25  C   UNL     1      -2.917   0.896  -0.989  0.00  0.00    +0.000 A 
BRANCH  25  26
ATOM     26  N   UNL     1      -2.739   2.326  -0.899  0.00  0.00    +0.000 N 
ATOM     27  O   UNL     1      -1.627   2.822  -0.625  0.00  0.00    +0.000 OA
ATOM     28  O   UNL     1      -3.814   3.171  -1.054  0.00  0.00    +0.000 OA
ENDBRANCH  25  26
ENDBRANCH  19  20
ENDBRANCH   6  19
TORSDOF 9
