REMARK  Name = ZINC000032106889
REMARK  5 active torsions:
REMARK  status: ('A' for Active; 'I' for Inactive)
REMARK    1  A    between atoms: O_2  and  C_3
REMARK    2  A    between atoms: C_8  and  C_10
REMARK    3  A    between atoms: C_28  and  O_30
REMARK    4  A    between atoms: O_30  and  C_31
REMARK    5  A    between atoms: C_35  and  N_37
REMARK                            x       y       z     vdW  Elec       q    Type
REMARK                         _______ _______ _______ _____ _____    ______ ____
ROOT
ATOM      1  C   UNL     1       1.852  -0.481   0.162  0.00  0.00    +0.000 C 
ATOM      2  C   UNL     1       0.679   0.467  -0.170  0.00  0.00    +0.000 C 
ATOM      3  O   UNL     1       0.805   0.972  -1.487  0.00  0.00    +0.000 OA
ATOM      4  C   UNL     1      -0.142   2.000  -1.777  0.00  0.00    +0.000 C 
ATOM      5  O   UNL     1      -1.117   2.188  -0.759  0.00  0.00    +0.000 OA
ATOM      6  C   UNL     1      -0.486   2.596   0.439  0.00  0.00    +0.000 C 
ATOM      7  C   UNL     1       0.623   1.615   0.860  0.00  0.00    +0.000 C 
ATOM      8  O   UNL     1       0.408   1.183   2.203  0.00  0.00    +0.000 OA
ATOM      9  C   UNL     1       0.842  -0.150   2.477  0.00  0.00    +0.000 C 
ATOM     10  C   UNL     1       2.115  -0.542   1.693  0.00  0.00    +0.000 C 
ENDROOT
BRANCH   4  11
ATOM     11  C   UNL     1      -0.851   1.650  -3.058  0.00  0.00    +0.000 A 
ATOM     12  C   UNL     1      -1.615   0.472  -3.140  0.00  0.00    +0.000 A 
ATOM     13  C   UNL     1      -2.277   0.141  -4.326  0.00  0.00    +0.000 A 
ATOM     14  C   UNL     1      -2.183   0.981  -5.439  0.00  0.00    +0.000 A 
ATOM     15  C   UNL     1      -1.427   2.153  -5.367  0.00  0.00    +0.000 A 
ATOM     16  C   UNL     1      -0.763   2.489  -4.183  0.00  0.00    +0.000 A 
ENDBRANCH   4  11
BRANCH  10  17
ATOM     17  N   UNL     1       3.210   0.352   2.072  0.00  0.00    +0.000 NA
ATOM     18  N   UNL     1       4.236  -0.083   2.595  0.00  0.00    +0.000 NA
ATOM     19  N   UNL     1       5.261  -0.517   3.117  0.00  0.00    +0.000 NA
ENDBRANCH  10  17
BRANCH   1  21
ATOM     20  H   UNL     1       3.639  -0.851  -0.498  0.00  0.00    +0.000 HD
ATOM     21  O   UNL     1       3.010  -0.083  -0.530  0.00  0.00    +0.000 OA
ENDBRANCH   1  21
BRANCH   9  22
ATOM     22  O   UNL     1       1.114  -0.277   3.861  0.00  0.00    +0.000 OA
ATOM     23  C   UNL     1      -0.091  -0.329   4.593  0.00  0.00    +0.000 C 
ENDBRANCH   9  22
TORSDOF 4
