REMARK  Name = ZINC000019893747
REMARK  11 active torsions:
REMARK  status: ('A' for Active; 'I' for Inactive)
REMARK    1  A    between atoms: O_2  and  C_3
REMARK    2  A    between atoms: C_3  and  C_36
REMARK    3  A    between atoms: N_4  and  C_5
REMARK    4  A    between atoms: C_7  and  O_9
REMARK    5  A    between atoms: O_9  and  S_10
REMARK    6  A    between atoms: S_10  and  C_13
REMARK    7  A    between atoms: C_17  and  O_19
REMARK    8  A    between atoms: C_21  and  C_23
REMARK    9  A    between atoms: C_23  and  O_26
REMARK   10  A    between atoms: C_29  and  O_31
REMARK   11  A    between atoms: O_31  and  C_32
REMARK                            x       y       z     vdW  Elec       q    Type
REMARK                         _______ _______ _______ _____ _____    ______ ____
ROOT
ATOM      1  C   UNL     1       0.657  -0.068   0.833  0.00  0.00    +0.000 C 
ATOM      2  C   UNL     1      -0.537   0.629   0.152  0.00  0.00    +0.000 C 
ATOM      3  C   UNL     1      -1.129   1.684   1.112  0.00  0.00    +0.000 C 
ATOM      4  C   UNL     1      -0.011   2.608   1.660  0.00  0.00    +0.000 C 
ATOM      5  O   UNL     1       0.980   1.832   2.311  0.00  0.00    +0.000 OA
ATOM      6  C   UNL     1       1.645   0.985   1.387  0.00  0.00    +0.000 C 
ENDROOT
BRANCH   1   8
ATOM      7  C   UNL     1       2.005  -2.008   0.167  0.00  0.00    +0.000 C 
ATOM      8  N   UNL     1       1.331  -0.938  -0.136  0.00  0.00    +0.000 NA
BRANCH   7   9
ATOM      9  C   UNL     1       2.677  -2.778  -0.911  0.00  0.00    +0.000 A 
ATOM     10  C   UNL     1       3.787  -3.598  -0.632  0.00  0.00    +0.000 A 
ATOM     11  C   UNL     1       4.417  -4.312  -1.656  0.00  0.00    +0.000 A 
ATOM     12  C   UNL     1       3.954  -4.212  -2.969  0.00  0.00    +0.000 A 
ATOM     13  C   UNL     1       2.863  -3.392  -3.263  0.00  0.00    +0.000 A 
ATOM     14  C   UNL     1       2.229  -2.675  -2.244  0.00  0.00    +0.000 A 
ENDBRANCH   7   9
BRANCH   7  16
ATOM     15  H   UNL     1       2.499  -3.304   1.775  0.00  0.00    +0.000 HD
ATOM     16  O   UNL     1       2.082  -2.425   1.500  0.00  0.00    +0.000 OA
ENDBRANCH   7  16
ENDBRANCH   1   8
BRANCH   3  17
ATOM     17  O   UNL     1      -2.154   2.415   0.484  0.00  0.00    +0.000 OA
ATOM     18  H   UNL     1      -1.735   3.014  -0.188  0.00  0.00    +0.000 HD
ENDBRANCH   3  17
BRANCH   6  19
ATOM     19  O   UNL     1       2.694   0.314   2.059  0.00  0.00    +0.000 OA
ATOM     20  C   UNL     1       3.789   1.185   2.243  0.00  0.00    +0.000 C 
ENDBRANCH   6  19
BRANCH   2  21
ATOM     21  O   UNL     1      -0.095   1.257  -1.040  0.00  0.00    +0.000 OA
BRANCH  21  22
ATOM     22  S   UNL     1      -1.014   0.730  -2.367  0.00  0.00    +0.000 S 
ATOM     23  O   UNL     1      -2.449   1.149  -2.205  0.00  0.00    +0.000 OA
ATOM     24  O   UNL     1      -0.937  -0.765  -2.501  0.00  0.00    +0.000 OA
ATOM     25  C   UNL     1      -0.356   1.474  -3.841  0.00  0.00    +0.000 C 
ENDBRANCH  21  22
ENDBRANCH   2  21
BRANCH   4  26
ATOM     26  C   UNL     1      -0.581   3.612   2.668  0.00  0.00    +0.000 C 
BRANCH  26  27
ATOM     27  O   UNL     1       0.447   4.436   3.145  0.00  0.00    +0.000 OA
ATOM     28  H   UNL     1       0.025   5.054   3.796  0.00  0.00    +0.000 HD
ENDBRANCH  26  27
ENDBRANCH   4  26
TORSDOF 9
