REMARK  Name = ZINC000196304985
REMARK  9 active torsions:
REMARK  status: ('A' for Active; 'I' for Inactive)
REMARK    1  A    between atoms: O_2  and  C_3
REMARK    2  A    between atoms: C_3  and  C_30
REMARK    3  A    between atoms: N_4  and  C_5
REMARK    4  A    between atoms: C_7  and  O_9
REMARK    5  A    between atoms: O_9  and  C_10
REMARK    6  A    between atoms: C_15  and  C_17
REMARK    7  A    between atoms: C_17  and  O_20
REMARK    8  A    between atoms: C_22  and  O_24
REMARK    9  A    between atoms: C_26  and  O_28
REMARK                            x       y       z     vdW  Elec       q    Type
REMARK                         _______ _______ _______ _____ _____    ______ ____
ROOT
ATOM      1  C   UNL     1      -0.623   0.363   0.592  0.00  0.00    +0.000 C 
ATOM      2  C   UNL     1      -0.088  -1.000   0.111  0.00  0.00    +0.000 C 
ATOM      3  O   UNL     1       0.781  -0.832  -1.004  0.00  0.00    +0.000 OA
ATOM      4  C   UNL     1       1.951  -0.086  -0.686  0.00  0.00    +0.000 C 
ATOM      5  C   UNL     1       1.613   1.333  -0.158  0.00  0.00    +0.000 C 
ATOM      6  C   UNL     1       0.572   1.257   0.979  0.00  0.00    +0.000 C 
ENDROOT
BRANCH   1   8
ATOM      7  C   UNL     1      -2.713   1.008  -0.583  0.00  0.00    +0.000 C 
ATOM      8  N   UNL     1      -1.414   0.998  -0.471  0.00  0.00    +0.000 NA
ATOM      9  C   UNL     1      -3.618   0.377   0.434  0.00  0.00    +0.000 C 
BRANCH   7  11
ATOM     10  H   UNL     1      -2.720   2.099  -2.381  0.00  0.00    +0.000 HD
ATOM     11  O   UNL     1      -3.292   1.651  -1.673  0.00  0.00    +0.000 OA
ENDBRANCH   7  11
ENDBRANCH   1   8
BRANCH   2  12
ATOM     12  O   UNL     1      -1.184  -1.807  -0.274  0.00  0.00    +0.000 OA
ATOM     13  C   UNL     1      -0.783  -3.155  -0.384  0.00  0.00    +0.000 C 
ENDBRANCH   2  12
BRANCH   5  14
ATOM     14  O   UNL     1       1.113   2.117  -1.212  0.00  0.00    +0.000 OA
ATOM     15  H   UNL     1       1.894   2.409  -1.751  0.00  0.00    +0.000 HD
ENDBRANCH   5  14
BRANCH   6  16
ATOM     16  O   UNL     1       0.158   2.535   1.398  0.00  0.00    +0.000 OA
ATOM     17  H   UNL     1      -0.295   2.984   0.639  0.00  0.00    +0.000 HD
ENDBRANCH   6  16
BRANCH   4  18
ATOM     18  C   UNL     1       2.924  -0.877   0.217  0.00  0.00    +0.000 C 
BRANCH  18  19
ATOM     19  O   UNL     1       4.226  -0.365   0.104  0.00  0.00    +0.000 OA
ATOM     20  H   UNL     1       4.321   0.341   0.796  0.00  0.00    +0.000 HD
ENDBRANCH  18  19
ENDBRANCH   4  18
TORSDOF 7
