REMARK  Name = ZINC000252694384
REMARK  16 active torsions:
REMARK  status: ('A' for Active; 'I' for Inactive)
REMARK    1  A    between atoms: O_2  and  C_3
REMARK    2  A    between atoms: C_3  and  C_51
REMARK    3  A    between atoms: N_4  and  C_5
REMARK    4  A    between atoms: C_7  and  O_9
REMARK    5  A    between atoms: C_11  and  O_13
REMARK    6  A    between atoms: C_15  and  C_17
REMARK    7  A    between atoms: C_17  and  O_20
REMARK    8  A    between atoms: C_23  and  O_25
REMARK    9  A    between atoms: O_25  and  C_26
REMARK   10  A    between atoms: C_26  and  C_29
REMARK   11  A    between atoms: C_29  and  C_32
REMARK   12  A    between atoms: C_32  and  C_35
REMARK   13  A    between atoms: C_35  and  C_38
REMARK   14  A    between atoms: C_38  and  C_41
REMARK   15  A    between atoms: C_41  and  C_44
REMARK   16  A    between atoms: C_44  and  C_47
REMARK                            x       y       z     vdW  Elec       q    Type
REMARK                         _______ _______ _______ _____ _____    ______ ____
ROOT
ATOM      1  C   UNL     1      -1.960  -0.152  -0.724  0.00  0.00    +0.000 C 
ATOM      2  C   UNL     1      -3.132  -1.154  -0.638  0.00  0.00    +0.000 C 
ATOM      3  C   UNL     1      -2.672  -2.414   0.119  0.00  0.00    +0.000 C 
ATOM      4  C   UNL     1      -1.996  -2.027   1.461  0.00  0.00    +0.000 C 
ATOM      5  O   UNL     1      -0.915  -1.141   1.224  0.00  0.00    +0.000 OA
ATOM      6  C   UNL     1      -1.375   0.086   0.681  0.00  0.00    +0.000 C 
ENDROOT
BRANCH   1   8
ATOM      7  C   UNL     1      -2.480   1.439  -2.550  0.00  0.00    +0.000 C 
ATOM      8  N   UNL     1      -2.409   1.126  -1.287  0.00  0.00    +0.000 NA
ATOM      9  C   UNL     1      -2.054   0.492  -3.640  0.00  0.00    +0.000 C 
BRANCH   7  11
ATOM     10  H   UNL     1      -3.012   3.007  -3.854  0.00  0.00    +0.000 HD
ATOM     11  O   UNL     1      -2.950   2.705  -2.890  0.00  0.00    +0.000 OA
ENDBRANCH   7  11
ENDBRANCH   1   8
BRANCH   2  12
ATOM     12  O   UNL     1      -4.226  -0.571   0.026  0.00  0.00    +0.000 OA
ATOM     13  H   UNL     1      -4.737  -0.055  -0.651  0.00  0.00    +0.000 HD
ENDBRANCH   2  12
BRANCH   3  14
ATOM     14  O   UNL     1      -3.747  -3.304   0.306  0.00  0.00    +0.000 OA
ATOM     15  H   UNL     1      -4.355  -2.909   0.985  0.00  0.00    +0.000 HD
ENDBRANCH   3  14
BRANCH   4  16
ATOM     16  C   UNL     1      -1.455  -3.273   2.171  0.00  0.00    +0.000 C 
BRANCH  16  17
ATOM     17  O   UNL     1      -0.811  -2.898   3.357  0.00  0.00    +0.000 OA
ATOM     18  H   UNL     1      -0.452  -3.736   3.751  0.00  0.00    +0.000 HD
ENDBRANCH  16  17
ENDBRANCH   4  16
BRANCH   6  19
ATOM     19  O   UNL     1      -0.280   0.971   0.556  0.00  0.00    +0.000 OA
BRANCH  19  20
ATOM     20  C   UNL     1       0.062   1.516   1.815  0.00  0.00    +0.000 C 
BRANCH  20  21
ATOM     21  C   UNL     1       1.427   2.206   1.726  0.00  0.00    +0.000 C 
BRANCH  21  22
ATOM     22  C   UNL     1       2.553   1.270   1.254  0.00  0.00    +0.000 C 
BRANCH  22  23
ATOM     23  C   UNL     1       2.972   0.253   2.330  0.00  0.00    +0.000 C 
BRANCH  23  24
ATOM     24  C   UNL     1       4.045  -0.728   1.813  0.00  0.00    +0.000 C 
BRANCH  24  25
ATOM     25  C   UNL     1       3.485  -2.115   1.456  0.00  0.00    +0.000 C 
BRANCH  25  26
ATOM     26  C   UNL     1       2.529  -2.085   0.256  0.00  0.00    +0.000 C 
ATOM     27  C   UNL     1       2.106  -3.495  -0.146  0.00  0.00    +0.000 C 
ENDBRANCH  25  26
ENDBRANCH  24  25
ENDBRANCH  23  24
ENDBRANCH  22  23
ENDBRANCH  21  22
ENDBRANCH  20  21
ENDBRANCH  19  20
ENDBRANCH   6  19
TORSDOF 14
