REMARK  Name = ZINC000012364260
REMARK  6 active torsions:
REMARK  status: ('A' for Active; 'I' for Inactive)
REMARK    1  A    between atoms: O_2  and  C_3
REMARK    2  A    between atoms: C_3  and  C_38
REMARK    3  A    between atoms: N_4  and  C_5
REMARK    4  A    between atoms: C_7  and  O_9
REMARK    5  A    between atoms: C_18  and  C_20
REMARK    6  A    between atoms: C_34  and  O_36
REMARK                            x       y       z     vdW  Elec       q    Type
REMARK                         _______ _______ _______ _____ _____    ______ ____
ROOT
ATOM      1  C   UNL     1      -0.513   1.579  -2.757  0.00  0.00    +0.000 C 
ATOM      2  C   UNL     1      -2.050   1.640  -2.576  0.00  0.00    +0.000 C 
ATOM      3  O   UNL     1      -2.402   2.040  -1.258  0.00  0.00    +0.000 OA
ATOM      4  C   UNL     1      -1.909   1.123  -0.294  0.00  0.00    +0.000 C 
ATOM      5  C   UNL     1      -2.368   1.534   1.118  0.00  0.00    +0.000 C 
ATOM      6  O   UNL     1      -1.292   1.561   2.039  0.00  0.00    +0.000 OA
ATOM      7  C   UNL     1      -0.535   0.361   1.942  0.00  0.00    +0.000 C 
ATOM      8  O   UNL     1       0.127   0.207   0.687  0.00  0.00    +0.000 OA
ATOM      9  C   UNL     1      -0.370   1.090  -0.303  0.00  0.00    +0.000 C 
ATOM     10  C   UNL     1       0.130   0.666  -1.688  0.00  0.00    +0.000 C 
ENDROOT
BRANCH   7  11
ATOM     11  C   UNL     1       0.502   0.365   3.033  0.00  0.00    +0.000 A 
ATOM     12  C   UNL     1       1.521   1.334   3.029  0.00  0.00    +0.000 A 
ATOM     13  C   UNL     1       2.485   1.349   4.043  0.00  0.00    +0.000 A 
ATOM     14  C   UNL     1       2.438   0.400   5.068  0.00  0.00    +0.000 A 
ATOM     15  C   UNL     1       1.426  -0.564   5.082  0.00  0.00    +0.000 A 
ATOM     16  C   UNL     1       0.460  -0.583   4.071  0.00  0.00    +0.000 A 
ENDBRANCH   7  11
BRANCH   1  18
ATOM     17  C   UNL     1       0.881   1.387  -4.798  0.00  0.00    +0.000 C 
ATOM     18  N   UNL     1      -0.191   1.111  -4.110  0.00  0.00    +0.000 NA
ATOM     19  C   UNL     1       1.958   2.299  -4.287  0.00  0.00    +0.000 C 
BRANCH  17  21
ATOM     20  H   UNL     1       0.326   0.217  -6.455  0.00  0.00    +0.000 HD
ATOM     21  O   UNL     1       1.030   0.834  -6.067  0.00  0.00    +0.000 OA
ENDBRANCH  17  21
ENDBRANCH   1  18
BRANCH   2  22
ATOM     22  O   UNL     1      -2.663   0.413  -2.898  0.00  0.00    +0.000 OA
ATOM     23  H   UNL     1      -2.737   0.374  -3.887  0.00  0.00    +0.000 HD
ENDBRANCH   2  22
BRANCH  10  24
ATOM     24  O   UNL     1      -0.196  -0.683  -1.919  0.00  0.00    +0.000 OA
ATOM     25  H   UNL     1       0.443  -1.022  -2.599  0.00  0.00    +0.000 HD
ENDBRANCH  10  24
TORSDOF 5
