REMARK  Name = ZINC000616582683
REMARK  10 active torsions:
REMARK  status: ('A' for Active; 'I' for Inactive)
REMARK    1  A    between atoms: O_2  and  C_3
REMARK    2  A    between atoms: C_3  and  C_34
REMARK    3  A    between atoms: N_4  and  C_5
REMARK    4  A    between atoms: C_7  and  O_9
REMARK    5  A    between atoms: O_9  and  C_10
REMARK    6  A    between atoms: C_10  and  C_13
REMARK    7  A    between atoms: C_19  and  C_21
REMARK    8  A    between atoms: C_21  and  O_24
REMARK    9  A    between atoms: C_26  and  O_28
REMARK   10  A    between atoms: C_30  and  O_32
REMARK                            x       y       z     vdW  Elec       q    Type
REMARK                         _______ _______ _______ _____ _____    ______ ____
ROOT
ATOM      1  C   UNL     1      -1.688   0.728  -1.242  0.00  0.00    +0.000 C 
ATOM      2  C   UNL     1      -0.352   1.159  -0.603  0.00  0.00    +0.000 C 
ATOM      3  O   UNL     1       0.727   0.393  -1.121  0.00  0.00    +0.000 OA
ATOM      4  C   UNL     1       0.582  -0.989  -0.826  0.00  0.00    +0.000 C 
ATOM      5  C   UNL     1      -0.683  -1.564  -1.510  0.00  0.00    +0.000 C 
ATOM      6  C   UNL     1      -1.926  -0.783  -1.050  0.00  0.00    +0.000 C 
ENDROOT
BRANCH   1   8
ATOM      7  C   UNL     1      -3.964   1.626  -1.193  0.00  0.00    +0.000 C 
ATOM      8  N   UNL     1      -2.784   1.508  -0.661  0.00  0.00    +0.000 NA
ATOM      9  C   UNL     1      -5.011   2.428  -0.490  0.00  0.00    +0.000 C 
BRANCH   7  11
ATOM     10  H   UNL     1      -5.189   1.068  -2.812  0.00  0.00    +0.000 HD
ATOM     11  O   UNL     1      -4.268   0.993  -2.398  0.00  0.00    +0.000 OA
ENDBRANCH   7  11
ENDBRANCH   1   8
BRANCH   5  12
ATOM     12  O   UNL     1      -0.843  -2.924  -1.191  0.00  0.00    +0.000 OA
ATOM     13  H   UNL     1      -0.404  -3.448  -1.911  0.00  0.00    +0.000 HD
ENDBRANCH   5  12
BRANCH   6  14
ATOM     14  O   UNL     1      -2.209  -1.056   0.301  0.00  0.00    +0.000 OA
ATOM     15  H   UNL     1      -2.735  -1.897   0.324  0.00  0.00    +0.000 HD
ENDBRANCH   6  14
BRANCH   2  16
ATOM     16  O   UNL     1      -0.425   1.066   0.812  0.00  0.00    +0.000 OA
BRANCH  16  17
ATOM     17  C   UNL     1       0.631   1.792   1.405  0.00  0.00    +0.000 C 
BRANCH  17  18
ATOM     18  C   UNL     1       0.616   1.562   2.886  0.00  0.00    +0.000 C 
ATOM     19  C   UNL     1       0.832   0.349   3.403  0.00  0.00    +0.000 C 
ENDBRANCH  17  18
ENDBRANCH  16  17
ENDBRANCH   2  16
BRANCH   4  20
ATOM     20  C   UNL     1       1.854  -1.715  -1.283  0.00  0.00    +0.000 C 
BRANCH  20  21
ATOM     21  O   UNL     1       2.034  -1.565  -2.665  0.00  0.00    +0.000 OA
ATOM     22  H   UNL     1       2.866  -2.058  -2.889  0.00  0.00    +0.000 HD
ENDBRANCH  20  21
ENDBRANCH   4  20
TORSDOF 9
