REMARK  Name = ZINC000616582813
REMARK  10 active torsions:
REMARK  status: ('A' for Active; 'I' for Inactive)
REMARK    1  A    between atoms: O_2  and  C_3
REMARK    2  A    between atoms: C_3  and  C_33
REMARK    3  A    between atoms: N_4  and  C_5
REMARK    4  A    between atoms: C_7  and  O_9
REMARK    5  A    between atoms: C_11  and  O_13
REMARK    6  A    between atoms: C_15  and  C_17
REMARK    7  A    between atoms: C_17  and  O_20
REMARK    8  A    between atoms: C_23  and  O_25
REMARK    9  A    between atoms: O_25  and  C_26
REMARK   10  A    between atoms: C_26  and  C_29
REMARK                            x       y       z     vdW  Elec       q    Type
REMARK                         _______ _______ _______ _____ _____    ______ ____
ROOT
ATOM      1  C   UNL     1       0.713  -0.131   1.363  0.00  0.00    +0.000 C 
ATOM      2  C   UNL     1      -0.799   0.153   1.345  0.00  0.00    +0.000 C 
ATOM      3  C   UNL     1      -1.060   1.578   0.824  0.00  0.00    +0.000 C 
ATOM      4  C   UNL     1      -0.314   1.791  -0.517  0.00  0.00    +0.000 C 
ATOM      5  O   UNL     1       1.073   1.559  -0.339  0.00  0.00    +0.000 OA
ATOM      6  C   UNL     1       1.325   0.200  -0.016  0.00  0.00    +0.000 C 
ENDROOT
BRANCH   1   8
ATOM      7  C   UNL     1       2.015  -2.004   2.262  0.00  0.00    +0.000 C 
ATOM      8  N   UNL     1       0.936  -1.538   1.706  0.00  0.00    +0.000 NA
ATOM      9  C   UNL     1       2.118  -3.466   2.557  0.00  0.00    +0.000 C 
BRANCH   7  11
ATOM     10  H   UNL     1       3.896  -1.504   3.067  0.00  0.00    +0.000 HD
ATOM     11  O   UNL     1       3.058  -1.150   2.620  0.00  0.00    +0.000 OA
ENDBRANCH   7  11
ENDBRANCH   1   8
BRANCH   2  12
ATOM     12  O   UNL     1      -1.451  -0.793   0.531  0.00  0.00    +0.000 OA
ATOM     13  H   UNL     1      -2.388  -0.857   0.852  0.00  0.00    +0.000 HD
ENDBRANCH   2  12
BRANCH   3  14
ATOM     14  O   UNL     1      -2.444   1.765   0.659  0.00  0.00    +0.000 OA
ATOM     15  H   UNL     1      -2.655   2.688   0.960  0.00  0.00    +0.000 HD
ENDBRANCH   3  14
BRANCH   4  16
ATOM     16  C   UNL     1      -0.487   3.227  -1.040  0.00  0.00    +0.000 C 
BRANCH  16  17
ATOM     17  O   UNL     1      -1.803   3.458  -1.468  0.00  0.00    +0.000 OA
ATOM     18  H   UNL     1      -1.904   2.996  -2.340  0.00  0.00    +0.000 HD
ENDBRANCH  16  17
ENDBRANCH   4  16
BRANCH   6  19
ATOM     19  O   UNL     1       2.723  -0.001   0.049  0.00  0.00    +0.000 OA
BRANCH  19  20
ATOM     20  C   UNL     1       3.269  -0.086  -1.251  0.00  0.00    +0.000 C 
ATOM     21  C   UNL     1       4.782  -0.199  -1.148  0.00  0.00    +0.000 C 
ENDBRANCH  19  20
ENDBRANCH   6  19
TORSDOF 8
