REMARK  Name = 52944904
REMARK  15 active torsions:
REMARK  status: ('A' for Active; 'I' for Inactive)
REMARK    1  A    between atoms: C_1  and  O_2
REMARK    2  A    between atoms: O_2  and  C_3
REMARK    3  A    between atoms: C_3  and  C_4
REMARK    4  A    between atoms: C_6  and  O_7
REMARK    5  A    between atoms: O_7  and  C_8
REMARK    6  A    between atoms: C_8  and  C_9
REMARK    7  A    between atoms: C_9  and  C_10
REMARK    8  A    between atoms: C_16  and  N_17
REMARK    9  A    between atoms: N_17  and  C_18
REMARK   10  A    between atoms: C_18  and  C_19
REMARK   11  A    between atoms: C_19  and  N_20
REMARK   12  A    between atoms: C_21  and  O_22
REMARK   13  A    between atoms: O_22  and  C_23
REMARK   14  A    between atoms: C_23  and  C_24
REMARK   15  A    between atoms: C_34  and  O_35
REMARK                            x       y       z     vdW  Elec       q    Type
REMARK                         _______ _______ _______ _____ _____    ______ ____
ROOT
ATOM      1  C   UNL     1      -1.968  -1.841   1.964  0.00  0.00    +0.000 C 
ATOM      2  O   UNL     1      -3.020  -0.893   1.888  0.00  0.00    +0.000 OA
ATOM      3  C   UNL     1      -2.874  -0.046   0.757  0.00  0.00    +0.000 C 
ATOM      4  C   UNL     1      -1.581   0.803   0.861  0.00  0.00    +0.000 C 
ATOM      5  C   UNL     1      -0.350  -0.129   1.034  0.00  0.00    +0.000 C 
ATOM      6  C   UNL     1      -0.617  -1.123   2.189  0.00  0.00    +0.000 C 
ENDROOT
BRANCH   4   7
ATOM      7  N   UNL     1      -1.448   1.691  -0.327  0.00  0.00    +0.000 N 
ATOM      8  H   UNL     1      -0.853   1.236  -1.058  0.00  0.00    +0.000 HD
ATOM      9  H   UNL     1      -2.387   1.862  -0.759  0.00  0.00    +0.000 HD
BRANCH   7  10
ATOM     10  C   UNL     1      -0.885   3.007   0.018  0.00  0.00    +0.000 C 
BRANCH  10  11
ATOM     11  C   UNL     1      -0.751   3.885  -1.232  0.00  0.00    +0.000 C 
BRANCH  11  12
ATOM     12  N   UNL     1      -0.086   5.140  -0.893  0.00  0.00    +0.000 NA
ATOM     13  H   UNL     1       0.214   5.594  -1.785  0.00  0.00    +0.000 HD
ATOM     14  H   UNL     1      -0.794   5.774  -0.455  0.00  0.00    +0.000 HD
ENDBRANCH  11  12
ENDBRANCH  10  11
ENDBRANCH   7  10
ENDBRANCH   4   7
BRANCH   6  15
ATOM     15  O   UNL     1       0.434  -2.050   2.305  0.00  0.00    +0.000 OA
ATOM     16  H   UNL     1       0.454  -2.589   1.473  0.00  0.00    +0.000 HD
ENDBRANCH   6  15
BRANCH   1  17
ATOM     17  C   UNL     1      -2.280  -2.825   3.095  0.00  0.00    +0.000 C 
BRANCH  17  19
ATOM     18  C   UNL     1      -3.743  -4.466   3.782  0.00  0.00    +0.000 C 
ATOM     19  O   UNL     1      -3.499  -3.478   2.808  0.00  0.00    +0.000 OA
ENDBRANCH  17  19
ENDBRANCH   1  17
BRANCH   3  20
ATOM     20  O   UNL     1      -2.878  -0.785  -0.455  0.00  0.00    +0.000 OA
BRANCH  20  21
ATOM     21  C   UNL     1      -4.174  -1.273  -0.730  0.00  0.00    +0.000 C 
BRANCH  21  22
ATOM     22  C   UNL     1      -4.085  -2.344  -1.817  0.00  0.00    +0.000 C 
BRANCH  22  23
ATOM     23  C   UNL     1      -3.427  -3.592  -1.287  0.00  0.00    +0.000 A 
ATOM     24  C   UNL     1      -4.192  -4.565  -0.622  0.00  0.00    +0.000 A 
ATOM     25  C   UNL     1      -3.575  -5.694  -0.073  0.00  0.00    +0.000 A 
ATOM     26  C   UNL     1      -2.191  -5.852  -0.176  0.00  0.00    +0.000 A 
ATOM     27  C   UNL     1      -1.419  -4.883  -0.825  0.00  0.00    +0.000 A 
ATOM     28  C   UNL     1      -2.033  -3.755  -1.379  0.00  0.00    +0.000 A 
ENDBRANCH  22  23
ENDBRANCH  21  22
ENDBRANCH  20  21
ENDBRANCH   3  20
BRANCH   5  29
ATOM     29  O   UNL     1       0.794   0.654   1.342  0.00  0.00    +0.000 OA
BRANCH  29  30
ATOM     30  C   UNL     1       1.958   0.181   0.684  0.00  0.00    +0.000 C 
BRANCH  30  31
ATOM     31  C   UNL     1       2.087   0.805  -0.680  0.00  0.00    +0.000 A 
ATOM     32  C   UNL     1       1.733   0.080  -1.829  0.00  0.00    +0.000 A 
ATOM     33  C   UNL     1       1.795   0.677  -3.090  0.00  0.00    +0.000 A 
ATOM     34  C   UNL     1       2.216   2.009  -3.220  0.00  0.00    +0.000 A 
ATOM     35  C   UNL     1       2.261   2.627  -4.480  0.00  0.00    +0.000 A 
ATOM     36  C   UNL     1       2.668   3.960  -4.593  0.00  0.00    +0.000 A 
ATOM     37  C   UNL     1       3.031   4.683  -3.454  0.00  0.00    +0.000 A 
ATOM     38  C   UNL     1       2.993   4.079  -2.194  0.00  0.00    +0.000 A 
ATOM     39  C   UNL     1       2.586   2.742  -2.066  0.00  0.00    +0.000 A 
ATOM     40  C   UNL     1       2.517   2.134  -0.804  0.00  0.00    +0.000 A 
ENDBRANCH  30  31
ENDBRANCH  29  30
ENDBRANCH   5  29
TORSDOF 14
