REMARK  Name = ZINC000102974493
REMARK  9 active torsions:
REMARK  status: ('A' for Active; 'I' for Inactive)
REMARK    1  A    between atoms: O_2  and  C_3
REMARK    2  A    between atoms: C_3  and  C_37
REMARK    3  A    between atoms: N_4  and  C_5
REMARK    4  A    between atoms: C_7  and  O_9
REMARK    5  A    between atoms: O_9  and  C_10
REMARK    6  A    between atoms: C_22  and  C_24
REMARK    7  A    between atoms: C_24  and  O_27
REMARK    8  A    between atoms: C_29  and  O_31
REMARK    9  A    between atoms: C_33  and  O_35
REMARK                            x       y       z     vdW  Elec       q    Type
REMARK                         _______ _______ _______ _____ _____    ______ ____
ROOT
ATOM      1  C   UNL     1      -0.610   1.860   0.320  0.00  0.00    +0.000 C 
ATOM      2  C   UNL     1      -0.035   0.530   0.841  0.00  0.00    +0.000 C 
ATOM      3  O   UNL     1      -0.005   0.534   2.258  0.00  0.00    +0.000 OA
ATOM      4  C   UNL     1       0.907   1.508   2.736  0.00  0.00    +0.000 C 
ATOM      5  C   UNL     1       0.423   2.929   2.359  0.00  0.00    +0.000 C 
ATOM      6  C   UNL     1       0.247   3.036   0.830  0.00  0.00    +0.000 C 
ENDROOT
BRANCH   1   8
ATOM      7  C   UNL     1      -1.339   2.654  -1.875  0.00  0.00    +0.000 C 
ATOM      8  N   UNL     1      -0.640   1.839  -1.144  0.00  0.00    +0.000 NA
ATOM      9  C   UNL     1      -1.269   2.552  -3.365  0.00  0.00    +0.000 C 
BRANCH   7  11
ATOM     10  H   UNL     1      -2.670   4.285  -1.847  0.00  0.00    +0.000 HD
ATOM     11  O   UNL     1      -2.134   3.636  -1.284  0.00  0.00    +0.000 OA
ENDBRANCH   7  11
ENDBRANCH   1   8
BRANCH   5  12
ATOM     12  O   UNL     1       1.346   3.887   2.811  0.00  0.00    +0.000 OA
ATOM     13  H   UNL     1       0.886   4.766   2.775  0.00  0.00    +0.000 HD
ENDBRANCH   5  12
BRANCH   6  14
ATOM     14  O   UNL     1       1.501   3.022   0.191  0.00  0.00    +0.000 OA
ATOM     15  H   UNL     1       1.850   3.950   0.216  0.00  0.00    +0.000 HD
ENDBRANCH   6  14
BRANCH   2  16
ATOM     16  O   UNL     1      -0.875  -0.536   0.400  0.00  0.00    +0.000 OA
BRANCH  16  17
ATOM     17  C   UNL     1      -0.606  -1.900   0.592  0.00  0.00    +0.000 A 
ATOM     18  C   UNL     1      -1.541  -2.833   0.124  0.00  0.00    +0.000 A 
ATOM     19  C   UNL     1      -1.321  -4.203   0.290  0.00  0.00    +0.000 A 
ATOM     20  C   UNL     1      -0.162  -4.655   0.927  0.00  0.00    +0.000 A 
ATOM     21 CL   UNL     1       0.113  -6.375   1.136  0.00  0.00    +0.000 Cl
ATOM     22  C   UNL     1       0.779  -3.733   1.397  0.00  0.00    +0.000 A 
ATOM     23  C   UNL     1       0.562  -2.361   1.232  0.00  0.00    +0.000 A 
ENDBRANCH  16  17
ENDBRANCH   2  16
BRANCH   4  24
ATOM     24  C   UNL     1       1.044   1.343   4.255  0.00  0.00    +0.000 C 
BRANCH  24  25
ATOM     25  O   UNL     1      -0.202   1.498   4.878  0.00  0.00    +0.000 OA
ATOM     26  H   UNL     1      -0.039   1.380   5.850  0.00  0.00    +0.000 HD
ENDBRANCH  24  25
ENDBRANCH   4  24
TORSDOF 8
