REMARK  Name = ZINC000252694384
REMARK  15 active torsions:
REMARK  status: ('A' for Active; 'I' for Inactive)
REMARK    1  A    between atoms: C_1  and  C_2
REMARK    2  A    between atoms: C_2  and  C_3
REMARK    3  A    between atoms: C_3  and  C_4
REMARK    4  A    between atoms: C_4  and  C_5
REMARK    5  A    between atoms: C_5  and  C_6
REMARK    6  A    between atoms: C_6  and  C_7
REMARK    7  A    between atoms: C_7  and  C_8
REMARK    8  A    between atoms: C_8  and  O_9
REMARK    9  A    between atoms: O_9  and  C_10
REMARK   10  A    between atoms: C_12  and  C_13
REMARK   11  A    between atoms: C_13  and  O_14
REMARK   12  A    between atoms: C_15  and  O_16
REMARK   13  A    between atoms: C_17  and  O_18
REMARK   14  A    between atoms: C_19  and  N_20
REMARK   15  A    between atoms: C_21  and  C_22
REMARK                            x       y       z     vdW  Elec       q    Type
REMARK                         _______ _______ _______ _____ _____    ______ ____
ROOT
ATOM      1  C   UNL     1      -2.221   0.788   0.326  0.00  0.00    +0.000 C 
ATOM      2  O   UNL     1      -3.066  -0.174   0.934  0.00  0.00    +0.000 OA
ATOM      3  C   UNL     1      -3.658   0.345   2.115  0.00  0.00    +0.000 C 
ATOM      4  C   UNL     1      -4.605   1.520   1.764  0.00  0.00    +0.000 C 
ATOM      5  C   UNL     1      -3.822   2.616   1.020  0.00  0.00    +0.000 C 
ATOM      6  C   UNL     1      -3.054   1.990  -0.160  0.00  0.00    +0.000 C 
ENDROOT
BRANCH   6   7
ATOM      7  N   UNL     1      -2.181   2.984  -0.797  0.00  0.00    +0.000 N 
ATOM      8  C   UNL     1      -1.971   3.032  -2.216  0.00  0.00    +0.000 C 
ATOM      9  C   UNL     1      -0.910   3.920  -2.781  0.00  0.00    +0.000 C 
ATOM     10  O   UNL     1      -2.647   2.303  -2.990  0.00  0.00    +0.000 OA
ATOM     11  H   UNL     1      -1.541   3.549  -0.194  0.00  0.00    +0.000 HD
ENDBRANCH   6   7
BRANCH   4  12
ATOM     12  O   UNL     1      -5.172   2.063   2.931  0.00  0.00    +0.000 OA
ATOM     13  H   UNL     1      -6.047   1.615   3.069  0.00  0.00    +0.000 HD
ENDBRANCH   4  12
BRANCH   5  14
ATOM     14  O   UNL     1      -2.924   3.251   1.899  0.00  0.00    +0.000 OA
ATOM     15  H   UNL     1      -3.429   3.967   2.365  0.00  0.00    +0.000 HD
ENDBRANCH   5  14
BRANCH   1  16
ATOM     16  O   UNL     1      -1.601   0.196  -0.801  0.00  0.00    +0.000 OA
BRANCH  16  17
ATOM     17  C   UNL     1      -0.436  -0.517  -0.431  0.00  0.00    +0.000 C 
BRANCH  17  18
ATOM     18  C   UNL     1       0.798   0.372  -0.611  0.00  0.00    +0.000 C 
BRANCH  18  19
ATOM     19  C   UNL     1       2.085  -0.389  -0.271  0.00  0.00    +0.000 C 
BRANCH  19  20
ATOM     20  C   UNL     1       3.318   0.508  -0.458  0.00  0.00    +0.000 C 
BRANCH  20  21
ATOM     21  C   UNL     1       4.637  -0.249  -0.237  0.00  0.00    +0.000 C 
BRANCH  21  22
ATOM     22  C   UNL     1       4.867  -0.618   1.239  0.00  0.00    +0.000 C 
BRANCH  22  24
ATOM     23  C   UNL     1       6.531  -2.518   0.875  0.00  0.00    +0.000 C 
ATOM     24  C   UNL     1       6.287  -1.144   1.499  0.00  0.00    +0.000 C 
ENDBRANCH  22  24
ENDBRANCH  21  22
ENDBRANCH  20  21
ENDBRANCH  19  20
ENDBRANCH  18  19
ENDBRANCH  17  18
ENDBRANCH  16  17
ENDBRANCH   1  16
BRANCH   3  25
ATOM     25  C   UNL     1      -4.424  -0.790   2.810  0.00  0.00    +0.000 C 
BRANCH  25  26
ATOM     26  O   UNL     1      -3.569  -1.873   3.065  0.00  0.00    +0.000 OA
ATOM     27  H   UNL     1      -3.001  -1.611   3.836  0.00  0.00    +0.000 HD
ENDBRANCH  25  26
ENDBRANCH   3  25
TORSDOF 13
