REMARK  Name = ZINC000575124622
REMARK  7 active torsions:
REMARK  status: ('A' for Active; 'I' for Inactive)
REMARK    1  A    between atoms: O_2  and  C_3
REMARK    2  A    between atoms: C_3  and  C_41
REMARK    3  A    between atoms: N_4  and  C_5
REMARK    4  A    between atoms: C_7  and  O_9
REMARK    5  A    between atoms: C_14  and  C_16
REMARK    6  A    between atoms: C_34  and  O_36
REMARK    7  A    between atoms: O_36  and  C_37
REMARK                            x       y       z     vdW  Elec       q    Type
REMARK                         _______ _______ _______ _____ _____    ______ ____
ROOT
ATOM      1  C   UNL     1       0.889  -2.184  -0.724  0.00  0.00    +0.000 C 
ATOM      2  C   UNL     1       0.176  -1.097   0.110  0.00  0.00    +0.000 C 
ATOM      3  C   UNL     1      -0.238   0.060  -0.814  0.00  0.00    +0.000 C 
ATOM      4  O   UNL     1      -0.994   1.020  -0.097  0.00  0.00    +0.000 OA
ATOM      5  C   UNL     1      -1.662   1.945  -0.956  0.00  0.00    +0.000 C 
ATOM      6  O   UNL     1      -1.165   1.937  -2.289  0.00  0.00    +0.000 OA
ATOM      7  C   UNL     1      -1.439   0.691  -2.904  0.00  0.00    +0.000 C 
ATOM      8  C   UNL     1      -1.032  -0.494  -2.009  0.00  0.00    +0.000 C 
ATOM      9  O   UNL     1      -0.242  -1.417  -2.739  0.00  0.00    +0.000 OA
ATOM     10  C   UNL     1       0.029  -2.567  -1.949  0.00  0.00    +0.000 C 
ENDROOT
BRANCH   5  11
ATOM     11  C   UNL     1      -1.490   3.330  -0.393  0.00  0.00    +0.000 A 
ATOM     12  C   UNL     1      -2.608   4.118  -0.067  0.00  0.00    +0.000 A 
ATOM     13  C   UNL     1      -2.435   5.407   0.447  0.00  0.00    +0.000 A 
ATOM     14  C   UNL     1      -1.149   5.921   0.636  0.00  0.00    +0.000 A 
ATOM     15  C   UNL     1      -0.033   5.146   0.310  0.00  0.00    +0.000 A 
ATOM     16  C   UNL     1      -0.201   3.857  -0.204  0.00  0.00    +0.000 A 
ENDBRANCH   5  11
BRANCH   1  18
ATOM     17  C   UNL     1       2.151  -3.601   0.869  0.00  0.00    +0.000 C 
ATOM     18  N   UNL     1       1.128  -3.379   0.093  0.00  0.00    +0.000 NA
ATOM     19  C   UNL     1       3.292  -2.634   1.001  0.00  0.00    +0.000 C 
BRANCH  17  21
ATOM     20  H   UNL     1       1.463  -5.476   1.529  0.00  0.00    +0.000 HD
ATOM     21  O   UNL     1       2.206  -4.790   1.591  0.00  0.00    +0.000 OA
ENDBRANCH  17  21
ENDBRANCH   1  18
BRANCH   2  22
ATOM     22  O   UNL     1      -0.953  -1.646   0.745  0.00  0.00    +0.000 OA
ATOM     23  H   UNL     1      -1.166  -1.059   1.517  0.00  0.00    +0.000 HD
ENDBRANCH   2  22
BRANCH  10  24
ATOM     24  O   UNL     1       0.757  -3.499  -2.726  0.00  0.00    +0.000 OA
ATOM     25  C   UNL     1      -0.101  -4.145  -3.641  0.00  0.00    +0.000 C 
ENDBRANCH  10  24
TORSDOF 5
