REMARK  Name = ZINC000307008534
REMARK  8 active torsions:
REMARK  status: ('A' for Active; 'I' for Inactive)
REMARK    1  A    between atoms: C_1  and  N_2
REMARK    2  A    between atoms: N_2  and  C_3
REMARK    3  A    between atoms: C_4  and  O_5
REMARK    4  A    between atoms: O_5  and  C_6
REMARK    5  A    between atoms: C_8  and  C_9
REMARK    6  A    between atoms: C_9  and  O_10
REMARK    7  A    between atoms: C_11  and  O_12
REMARK    8  A    between atoms: C_13  and  O_14
REMARK                            x       y       z     vdW  Elec       q    Type
REMARK                         _______ _______ _______ _____ _____    ______ ____
ROOT
ATOM      1  C   UNL     1      -0.390   0.009   0.644  0.00  0.00    +0.000 C 
ATOM      2  C   UNL     1      -0.243  -0.468  -0.824  0.00  0.00    +0.000 C 
ATOM      3  O   UNL     1       1.038  -1.057  -1.014  0.00  0.00    +0.000 OA
ATOM      4  C   UNL     1       2.093  -0.131  -0.780  0.00  0.00    +0.000 C 
ATOM      5  C   UNL     1       2.085   0.373   0.690  0.00  0.00    +0.000 C 
ATOM      6  C   UNL     1       0.724   1.018   1.012  0.00  0.00    +0.000 C 
ENDROOT
BRANCH   1   8
ATOM      7  C   UNL     1      -2.197   1.756   0.577  0.00  0.00    +0.000 C 
ATOM      8  N   UNL     1      -1.768   0.422   1.017  0.00  0.00    +0.000 N 
ATOM      9  H   UNL     1      -2.447  -0.282   0.644  0.00  0.00    +0.000 HD
ATOM     10  H   UNL     1      -1.848   0.394   2.061  0.00  0.00    +0.000 HD
ENDBRANCH   1   8
BRANCH   2  11
ATOM     11  O   UNL     1      -0.456   0.594  -1.740  0.00  0.00    +0.000 OA
ATOM     12  C   UNL     1      -0.682   0.081  -3.034  0.00  0.00    +0.000 C 
ENDBRANCH   2  11
BRANCH   5  13
ATOM     13  O   UNL     1       3.107   1.318   0.893  0.00  0.00    +0.000 OA
ATOM     14  H   UNL     1       3.905   0.823   1.215  0.00  0.00    +0.000 HD
ENDBRANCH   5  13
BRANCH   6  15
ATOM     15  O   UNL     1       0.588   2.212   0.280  0.00  0.00    +0.000 OA
ATOM     16  H   UNL     1       1.020   2.930   0.812  0.00  0.00    +0.000 HD
ENDBRANCH   6  15
BRANCH   4  17
ATOM     17  C   UNL     1       3.423  -0.812  -1.138  0.00  0.00    +0.000 C 
BRANCH  17  18
ATOM     18  O   UNL     1       3.681  -1.902  -0.291  0.00  0.00    +0.000 OA
ATOM     19  H   UNL     1       3.124  -2.656  -0.618  0.00  0.00    +0.000 HD
ENDBRANCH  17  18
ENDBRANCH   4  17
TORSDOF 6
