REMARK  Name = ZINC000164373873
REMARK  7 active torsions:
REMARK  status: ('A' for Active; 'I' for Inactive)
REMARK    1  A    between atoms: C_1  and  O_2
REMARK    2  A    between atoms: O_2  and  C_3
REMARK    3  A    between atoms: C_5  and  C_6
REMARK    4  A    between atoms: C_6  and  O_7
REMARK    5  A    between atoms: C_8  and  O_9
REMARK    6  A    between atoms: C_10  and  O_11
REMARK    7  A    between atoms: C_12  and  N_13
REMARK                            x       y       z     vdW  Elec       q    Type
REMARK                         _______ _______ _______ _____ _____    ______ ____
ROOT
ATOM      1  C   UNL     1      -1.144   0.121  -0.346  0.00  0.00    +0.000 C 
ATOM      2  O   UNL     1      -0.204   1.134  -0.020  0.00  0.00    +0.000 OA
ATOM      3  C   UNL     1       0.756   0.655   0.906  0.00  0.00    +0.000 C 
ATOM      4  C   UNL     1       1.614  -0.460   0.262  0.00  0.00    +0.000 C 
ATOM      5  C   UNL     1       0.705  -1.601  -0.228  0.00  0.00    +0.000 C 
ATOM      6  C   UNL     1      -0.436  -1.029  -1.097  0.00  0.00    +0.000 C 
ENDROOT
BRANCH   6   7
ATOM      7  N   UNL     1      -1.392  -2.084  -1.443  0.00  0.00    +0.000 NA
ATOM      8  H   UNL     1      -2.081  -1.699  -2.129  0.00  0.00    +0.000 HD
ATOM      9  H   UNL     1      -0.878  -2.839  -1.954  0.00  0.00    +0.000 HD
ENDBRANCH   6   7
BRANCH   1  11
ATOM     10  C   UNL     1      -3.029   1.464  -0.446  0.00  0.00    +0.000 C 
ATOM     11  O   UNL     1      -2.133   0.673  -1.195  0.00  0.00    +0.000 OA
ENDBRANCH   1  11
BRANCH   4  12
ATOM     12  O   UNL     1       2.542  -0.951   1.196  0.00  0.00    +0.000 OA
ATOM     13  H   UNL     1       3.222  -1.460   0.681  0.00  0.00    +0.000 HD
ENDBRANCH   4  12
BRANCH   5  14
ATOM     14  O   UNL     1       0.180  -2.293   0.880  0.00  0.00    +0.000 OA
ATOM     15  H   UNL     1      -0.014  -3.219   0.581  0.00  0.00    +0.000 HD
ENDBRANCH   5  14
BRANCH   3  16
ATOM     16  C   UNL     1       1.622   1.836   1.365  0.00  0.00    +0.000 C 
BRANCH  16  17
ATOM     17  O   UNL     1       2.260   2.431   0.268  0.00  0.00    +0.000 OA
ATOM     18  H   UNL     1       2.799   3.179   0.635  0.00  0.00    +0.000 HD
ENDBRANCH  16  17
ENDBRANCH   3  16
TORSDOF 6
