REMARK  Name = ZINC000616583702
REMARK  13 active torsions:
REMARK  status: ('A' for Active; 'I' for Inactive)
REMARK    1  A    between atoms: O_2  and  C_3
REMARK    2  A    between atoms: C_3  and  C_42
REMARK    3  A    between atoms: N_4  and  C_5
REMARK    4  A    between atoms: C_7  and  O_9
REMARK    5  A    between atoms: C_11  and  O_13
REMARK    6  A    between atoms: C_15  and  C_17
REMARK    7  A    between atoms: C_17  and  O_20
REMARK    8  A    between atoms: C_23  and  O_25
REMARK    9  A    between atoms: O_25  and  C_26
REMARK   10  A    between atoms: C_26  and  C_29
REMARK   11  A    between atoms: C_29  and  C_32
REMARK   12  A    between atoms: C_32  and  C_35
REMARK   13  A    between atoms: C_35  and  C_38
REMARK                            x       y       z     vdW  Elec       q    Type
REMARK                         _______ _______ _______ _____ _____    ______ ____
ROOT
ATOM      1  C   UNL     1      -1.094   0.033  -0.423  0.00  0.00    +0.000 C 
ATOM      2  C   UNL     1      -2.637   0.067  -0.513  0.00  0.00    +0.000 C 
ATOM      3  C   UNL     1      -3.201  -1.326  -0.863  0.00  0.00    +0.000 C 
ATOM      4  C   UNL     1      -2.538  -2.426   0.003  0.00  0.00    +0.000 C 
ATOM      5  O   UNL     1      -1.126  -2.368  -0.126  0.00  0.00    +0.000 OA
ATOM      6  C   UNL     1      -0.615  -1.166   0.422  0.00  0.00    +0.000 C 
ENDROOT
BRANCH   1   8
ATOM      7  C   UNL     1      -0.489   2.401  -0.501  0.00  0.00    +0.000 C 
ATOM      8  N   UNL     1      -0.578   1.279   0.147  0.00  0.00    +0.000 NA
ATOM      9  C   UNL     1       0.079   3.603   0.182  0.00  0.00    +0.000 C 
BRANCH   7  11
ATOM     10  H   UNL     1      -0.802   3.353  -2.352  0.00  0.00    +0.000 HD
ATOM     11  O   UNL     1      -0.884   2.485  -1.836  0.00  0.00    +0.000 OA
ENDBRANCH   7  11
ENDBRANCH   1   8
BRANCH   2  12
ATOM     12  O   UNL     1      -3.219   0.591   0.658  0.00  0.00    +0.000 OA
ATOM     13  H   UNL     1      -3.014  -0.019   1.411  0.00  0.00    +0.000 HD
ENDBRANCH   2  12
BRANCH   3  14
ATOM     14  O   UNL     1      -4.595  -1.323  -0.675  0.00  0.00    +0.000 OA
ATOM     15  H   UNL     1      -4.990  -1.889  -1.388  0.00  0.00    +0.000 HD
ENDBRANCH   3  14
BRANCH   4  16
ATOM     16  C   UNL     1      -3.003  -3.820  -0.435  0.00  0.00    +0.000 C 
BRANCH  16  17
ATOM     17  O   UNL     1      -2.376  -4.795   0.351  0.00  0.00    +0.000 OA
ATOM     18  H   UNL     1      -2.704  -5.670   0.018  0.00  0.00    +0.000 HD
ENDBRANCH  16  17
ENDBRANCH   4  16
BRANCH   6  19
ATOM     19  O   UNL     1       0.800  -1.227   0.343  0.00  0.00    +0.000 OA
BRANCH  19  20
ATOM     20  C   UNL     1       1.412  -0.825   1.554  0.00  0.00    +0.000 C 
BRANCH  20  21
ATOM     21  C   UNL     1       2.867  -0.439   1.284  0.00  0.00    +0.000 C 
BRANCH  21  22
ATOM     22  C   UNL     1       2.956   0.829   0.424  0.00  0.00    +0.000 C 
BRANCH  22  23
ATOM     23  C   UNL     1       4.414   1.218   0.161  0.00  0.00    +0.000 C 
ATOM     24  C   UNL     1       4.499   2.485  -0.686  0.00  0.00    +0.000 C 
ENDBRANCH  22  23
ENDBRANCH  21  22
ENDBRANCH  20  21
ENDBRANCH  19  20
ENDBRANCH   6  19
TORSDOF 11
