REMARK  Name = ZINC000616582813
REMARK  10 active torsions:
REMARK  status: ('A' for Active; 'I' for Inactive)
REMARK    1  A    between atoms: O_2  and  C_3
REMARK    2  A    between atoms: C_3  and  C_33
REMARK    3  A    between atoms: N_4  and  C_5
REMARK    4  A    between atoms: C_7  and  O_9
REMARK    5  A    between atoms: C_11  and  O_13
REMARK    6  A    between atoms: C_15  and  C_17
REMARK    7  A    between atoms: C_17  and  O_20
REMARK    8  A    between atoms: C_23  and  O_25
REMARK    9  A    between atoms: O_25  and  C_26
REMARK   10  A    between atoms: C_26  and  C_29
REMARK                            x       y       z     vdW  Elec       q    Type
REMARK                         _______ _______ _______ _____ _____    ______ ____
ROOT
ATOM      1  C   UNL     1       0.952   0.218   0.507  0.00  0.00    +0.000 C 
ATOM      2  C   UNL     1       0.409  -1.149   0.956  0.00  0.00    +0.000 C 
ATOM      3  C   UNL     1      -0.116  -1.942  -0.251  0.00  0.00    +0.000 C 
ATOM      4  C   UNL     1      -1.093  -1.087  -1.094  0.00  0.00    +0.000 C 
ATOM      5  O   UNL     1      -0.581   0.202  -1.427  0.00  0.00    +0.000 OA
ATOM      6  C   UNL     1      -0.114   0.963  -0.316  0.00  0.00    +0.000 C 
ENDROOT
BRANCH   1   8
ATOM      7  C   UNL     1       3.369  -0.047   0.178  0.00  0.00    +0.000 C 
ATOM      8  N   UNL     1       2.167   0.071  -0.302  0.00  0.00    +0.000 NA
ATOM      9  C   UNL     1       4.524  -0.191  -0.759  0.00  0.00    +0.000 C 
BRANCH   7  11
ATOM     10  H   UNL     1       4.529  -0.076   1.935  0.00  0.00    +0.000 HD
ATOM     11  O   UNL     1       3.593  -0.002   1.554  0.00  0.00    +0.000 OA
ENDBRANCH   7  11
ENDBRANCH   1   8
BRANCH   2  12
ATOM     12  O   UNL     1       1.408  -1.876   1.625  0.00  0.00    +0.000 OA
ATOM     13  H   UNL     1       0.953  -2.620   2.099  0.00  0.00    +0.000 HD
ENDBRANCH   2  12
BRANCH   3  14
ATOM     14  O   UNL     1       0.964  -2.361  -1.049  0.00  0.00    +0.000 OA
ATOM     15  H   UNL     1       0.639  -3.119  -1.602  0.00  0.00    +0.000 HD
ENDBRANCH   3  14
BRANCH   4  16
ATOM     16  C   UNL     1      -2.514  -1.039  -0.501  0.00  0.00    +0.000 C 
BRANCH  16  17
ATOM     17  O   UNL     1      -3.337  -0.236  -1.301  0.00  0.00    +0.000 OA
ATOM     18  H   UNL     1      -4.230  -0.239  -0.869  0.00  0.00    +0.000 HD
ENDBRANCH  16  17
ENDBRANCH   4  16
BRANCH   6  19
ATOM     19  O   UNL     1      -1.181   1.367   0.525  0.00  0.00    +0.000 OA
BRANCH  19  20
ATOM     20  C   UNL     1      -1.866   2.466  -0.040  0.00  0.00    +0.000 C 
ATOM     21  C   UNL     1      -3.112   2.752   0.782  0.00  0.00    +0.000 C 
ENDBRANCH  19  20
ENDBRANCH   6  19
TORSDOF 8
