REMARK  Name = ZINC000616591357
REMARK  6 active torsions:
REMARK  status: ('A' for Active; 'I' for Inactive)
REMARK    1  A    between atoms: C_1  and  O_2
REMARK    2  A    between atoms: O_2  and  C_3
REMARK    3  A    between atoms: C_8  and  C_9
REMARK    4  A    between atoms: C_17  and  O_18
REMARK    5  A    between atoms: C_19  and  N_20
REMARK    6  A    between atoms: C_21  and  C_22
REMARK                            x       y       z     vdW  Elec       q    Type
REMARK                         _______ _______ _______ _____ _____    ______ ____
ROOT
ATOM      1  C   UNL     1      -1.717  -0.382   1.692  0.00  0.00    +0.000 C 
ATOM      2  O   UNL     1      -0.352  -0.620   2.020  0.00  0.00    +0.000 OA
ATOM      3  C   UNL     1       0.428  -0.663   0.839  0.00  0.00    +0.000 C 
ATOM      4  C   UNL     1       1.873  -1.096   1.139  0.00  0.00    +0.000 C 
ATOM      5  O   UNL     1       2.811  -0.079   0.830  0.00  0.00    +0.000 OA
ATOM      6  C   UNL     1       2.671   0.391  -0.513  0.00  0.00    +0.000 C 
ATOM      7  O   UNL     1       1.332   0.688  -0.915  0.00  0.00    +0.000 OA
ATOM      8  C   UNL     1       0.465   0.723   0.195  0.00  0.00    +0.000 C 
ATOM      9  C   UNL     1      -0.958   1.129  -0.215  0.00  0.00    +0.000 C 
ATOM     10  C   UNL     1      -1.884   1.005   1.017  0.00  0.00    +0.000 C 
ENDROOT
BRANCH   6  11
ATOM     11  C   UNL     1       3.324  -0.571  -1.482  0.00  0.00    +0.000 A 
ATOM     12  C   UNL     1       2.563  -1.512  -2.201  0.00  0.00    +0.000 A 
ATOM     13  C   UNL     1       3.191  -2.416  -3.064  0.00  0.00    +0.000 A 
ATOM     14  C   UNL     1       4.580  -2.397  -3.209  0.00  0.00    +0.000 A 
ATOM     15  C   UNL     1       5.345  -1.477  -2.487  0.00  0.00    +0.000 A 
ATOM     16  C   UNL     1       4.722  -0.572  -1.623  0.00  0.00    +0.000 A 
ENDBRANCH   6  11
BRANCH  10  17
ATOM     17  N   UNL     1      -3.282   1.228   0.630  0.00  0.00    +0.000 N 
ATOM     18  C   UNL     1      -3.794   2.532   0.321  0.00  0.00    +0.000 C 
ATOM     19  C   UNL     1      -5.220   2.693  -0.094  0.00  0.00    +0.000 C 
ATOM     20  O   UNL     1      -3.058   3.550   0.428  0.00  0.00    +0.000 OA
ATOM     21  H   UNL     1      -3.944   0.419   0.600  0.00  0.00    +0.000 HD
ENDBRANCH  10  17
BRANCH   1  23
ATOM     22  C   UNL     1      -2.670  -1.713   3.333  0.00  0.00    +0.000 C 
ATOM     23  O   UNL     1      -2.485  -0.389   2.881  0.00  0.00    +0.000 OA
ENDBRANCH   1  23
BRANCH   9  24
ATOM     24  O   UNL     1      -1.430   0.306  -1.254  0.00  0.00    +0.000 OA
ATOM     25  H   UNL     1      -1.035   0.650  -2.097  0.00  0.00    +0.000 HD
ENDBRANCH   9  24
TORSDOF 4
