REMARK  Name = 44630437
REMARK  8 active torsions:
REMARK  status: ('A' for Active; 'I' for Inactive)
REMARK    1  A    between atoms: C_1  and  C_2
REMARK    2  A    between atoms: C_2  and  C_3
REMARK    3  A    between atoms: N_5  and  C_6
REMARK    4  A    between atoms: C_7  and  O_8
REMARK    5  A    between atoms: C_10  and  C_11
REMARK    6  A    between atoms: C_11  and  O_12
REMARK    7  A    between atoms: C_13  and  O_14
REMARK    8  A    between atoms: C_15  and  O_16
REMARK                            x       y       z     vdW  Elec       q    Type
REMARK                         _______ _______ _______ _____ _____    ______ ____
ROOT
ATOM      1  C   UNL     1       0.108   0.416  -0.088  0.00  0.00    +0.000 C 
ATOM      2  C   UNL     1      -0.960  -0.296   0.782  0.00  0.00    +0.000 C 
ATOM      3  O   UNL     1      -0.393  -0.951   1.906  0.00  0.00    +0.000 OA
ATOM      4  C   UNL     1       0.579  -1.916   1.533  0.00  0.00    +0.000 C 
ATOM      5  C   UNL     1       1.770  -1.252   0.804  0.00  0.00    +0.000 C 
ATOM      6  C   UNL     1       1.266  -0.528  -0.456  0.00  0.00    +0.000 C 
ENDROOT
BRANCH   1   9
ATOM      7  C   UNL     1      -1.108   2.268  -1.335  0.00  0.00    +0.000 C 
ATOM      8  O   UNL     1      -0.955   3.070  -0.372  0.00  0.00    +0.000 OA
ATOM      9  N   UNL     1      -0.510   0.965  -1.300  0.00  0.00    +0.000 N 
ATOM     10  H   UNL     1      -0.675   0.325  -2.111  0.00  0.00    +0.000 HD
BRANCH   7  12
ATOM     11  C   UNL     1      -3.412   2.236  -2.257  0.00  0.00    +0.000 C 
ATOM     12  C   UNL     1      -1.968   2.667  -2.495  0.00  0.00    +0.000 C 
ENDBRANCH   7  12
ENDBRANCH   1   9
BRANCH   2  13
ATOM     13  O   UNL     1      -1.807  -1.160   0.058  0.00  0.00    +0.000 OA
ATOM     14  H   UNL     1      -1.264  -1.682  -0.583  0.00  0.00    +0.000 HD
ENDBRANCH   2  13
BRANCH   5  15
ATOM     15  O   UNL     1       2.707  -2.235   0.439  0.00  0.00    +0.000 OA
ATOM     16  H   UNL     1       3.586  -1.780   0.361  0.00  0.00    +0.000 HD
ENDBRANCH   5  15
BRANCH   6  17
ATOM     17  O   UNL     1       2.308   0.228  -1.022  0.00  0.00    +0.000 OA
ATOM     18  H   UNL     1       2.821  -0.382  -1.614  0.00  0.00    +0.000 HD
ENDBRANCH   6  17
BRANCH   4  19
ATOM     19  C   UNL     1       1.037  -2.649   2.801  0.00  0.00    +0.000 C 
BRANCH  19  20
ATOM     20  O   UNL     1       1.608  -1.748   3.710  0.00  0.00    +0.000 OA
ATOM     21  H   UNL     1       1.794  -2.265   4.535  0.00  0.00    +0.000 HD
ENDBRANCH  19  20
ENDBRANCH   4  19
TORSDOF 7
