REMARK  Name = 45933887
REMARK  6 active torsions:
REMARK  status: ('A' for Active; 'I' for Inactive)
REMARK    1  A    between atoms: N_1  and  C_2
REMARK    2  A    between atoms: C_3  and  O_4
REMARK    3  A    between atoms: C_6  and  C_7
REMARK    4  A    between atoms: C_7  and  O_8
REMARK    5  A    between atoms: C_9  and  O_10
REMARK    6  A    between atoms: C_11  and  O_12
REMARK                            x       y       z     vdW  Elec       q    Type
REMARK                         _______ _______ _______ _____ _____    ______ ____
ROOT
ATOM      1  C   UNL     1       0.670   0.079   1.216  0.00  0.00    +0.000 C 
ATOM      2  C   UNL     1       0.401  -1.443   1.175  0.00  0.00    +0.000 C 
ATOM      3  O   UNL     1      -0.219  -1.816  -0.047  0.00  0.00    +0.000 OA
ATOM      4  C   UNL     1       0.611  -1.533  -1.165  0.00  0.00    +0.000 C 
ATOM      5  C   UNL     1       0.878  -0.011  -1.288  0.00  0.00    +0.000 C 
ATOM      6  C   UNL     1       1.520   0.507   0.010  0.00  0.00    +0.000 C 
ENDROOT
BRANCH   1   7
ATOM      7  N   UNL     1       1.319   0.481   2.468  0.00  0.00    +0.000 NA
ATOM      8  H   UNL     1       2.225  -0.029   2.578  0.00  0.00    +0.000 HD
ATOM      9  H   UNL     1       0.704   0.206   3.268  0.00  0.00    +0.000 HD
ENDBRANCH   1   7
BRANCH   2  10
ATOM     10  O   UNL     1       1.582  -2.177   1.388  0.00  0.00    +0.000 OA
ATOM     11  H   UNL     1       1.310  -3.129   1.460  0.00  0.00    +0.000 HD
ENDBRANCH   2  10
BRANCH   5  12
ATOM     12  O   UNL     1       1.751   0.242  -2.360  0.00  0.00    +0.000 OA
ATOM     13  H   UNL     1       1.190   0.454  -3.151  0.00  0.00    +0.000 HD
ENDBRANCH   5  12
BRANCH   6  14
ATOM     14  O   UNL     1       1.603   1.909  -0.023  0.00  0.00    +0.000 OA
ATOM     15  H   UNL     1       2.393   2.139  -0.579  0.00  0.00    +0.000 HD
ENDBRANCH   6  14
BRANCH   4  16
ATOM     16  C   UNL     1      -0.070  -2.089  -2.423  0.00  0.00    +0.000 C 
BRANCH  16  17
ATOM     17  O   UNL     1      -1.315  -1.476  -2.619  0.00  0.00    +0.000 OA
ATOM     18  H   UNL     1      -1.693  -1.877  -3.444  0.00  0.00    +0.000 HD
ENDBRANCH  16  17
ENDBRANCH   4  16
TORSDOF 6
