REMARK  Name = 42612215
REMARK  9 active torsions:
REMARK  status: ('A' for Active; 'I' for Inactive)
REMARK    1  A    between atoms: O_2  and  C_3
REMARK    2  A    between atoms: C_3  and  N_9
REMARK    3  A    between atoms: C_4  and  N_6
REMARK    4  A    between atoms: N_9  and  C_11
REMARK    5  A    between atoms: C_13  and  O_15
REMARK    6  A    between atoms: C_18  and  C_20
REMARK    7  A    between atoms: C_20  and  O_23
REMARK    8  A    between atoms: C_25  and  O_27
REMARK    9  A    between atoms: C_29  and  O_31
REMARK                            x       y       z     vdW  Elec       q    Type
REMARK                         _______ _______ _______ _____ _____    ______ ____
ROOT
ATOM      1  C   UNL     1      -0.053  -0.712   0.060  0.00  0.00    +0.000 C 
ATOM      2  C   UNL     1       0.422  -0.897  -1.394  0.00  0.00    +0.000 C 
ATOM      3  O   UNL     1      -0.440  -0.213  -2.288  0.00  0.00    +0.000 OA
ATOM      4  C   UNL     1      -1.731  -0.799  -2.287  0.00  0.00    +0.000 C 
ATOM      5  C   UNL     1      -2.402  -0.627  -0.899  0.00  0.00    +0.000 C 
ATOM      6  C   UNL     1      -1.500  -1.229   0.195  0.00  0.00    +0.000 C 
ENDROOT
BRANCH   1   7
ATOM      7  N   UNL     1       0.035   0.701   0.453  0.00  0.00    +0.000 N 
ATOM      8  H   UNL     1      -0.295   1.420  -0.230  0.00  0.00    +0.000 HD
BRANCH   7   9
ATOM      9  C   UNL     1       0.418   1.105   1.780  0.00  0.00    +0.000 C 
ATOM     10  C   UNL     1       0.451   2.399   2.127  0.00  0.00    +0.000 C 
BRANCH  10  11
ATOM     11  N   UNL     1       0.113   3.428   1.196  0.00  0.00    +0.000 NA
ATOM     12  N   UNL     1       0.149   4.612   1.532  0.00  0.00    +0.000 NA
ATOM     13  N   UNL     1       0.185   5.795   1.866  0.00  0.00    +0.000 NA
ENDBRANCH  10  11
BRANCH   9  15
ATOM     14  H   UNL     1       1.033   0.372   3.669  0.00  0.00    +0.000 HD
ATOM     15  O   UNL     1       0.760   0.133   2.722  0.00  0.00    +0.000 OA
ENDBRANCH   9  15
ENDBRANCH   7   9
ENDBRANCH   1   7
BRANCH   2  16
ATOM     16  O   UNL     1       1.720  -0.383  -1.521  0.00  0.00    +0.000 OA
ATOM     17  H   UNL     1       2.022  -0.608  -2.440  0.00  0.00    +0.000 HD
ENDBRANCH   2  16
BRANCH   5  18
ATOM     18  O   UNL     1      -3.646  -1.279  -0.888  0.00  0.00    +0.000 OA
ATOM     19  H   UNL     1      -4.177  -0.875  -0.152  0.00  0.00    +0.000 HD
ENDBRANCH   5  18
BRANCH   6  20
ATOM     20  O   UNL     1      -2.020  -0.915   1.461  0.00  0.00    +0.000 OA
ATOM     21  H   UNL     1      -1.581  -1.525   2.110  0.00  0.00    +0.000 HD
ENDBRANCH   6  20
BRANCH   4  22
ATOM     22  C   UNL     1      -2.555  -0.125  -3.393  0.00  0.00    +0.000 C 
BRANCH  22  23
ATOM     23  O   UNL     1      -3.761  -0.809  -3.594  0.00  0.00    +0.000 OA
ATOM     24  H   UNL     1      -4.244  -0.314  -4.305  0.00  0.00    +0.000 HD
ENDBRANCH  22  23
ENDBRANCH   4  22
TORSDOF 9
