REMARK  Name = 42612215
REMARK  9 active torsions:
REMARK  status: ('A' for Active; 'I' for Inactive)
REMARK    1  A    between atoms: O_2  and  C_3
REMARK    2  A    between atoms: C_3  and  C_27
REMARK    3  A    between atoms: N_4  and  C_5
REMARK    4  A    between atoms: C_7  and  O_9
REMARK    5  A    between atoms: C_12  and  C_14
REMARK    6  A    between atoms: C_14  and  O_17
REMARK    7  A    between atoms: C_19  and  O_21
REMARK    8  A    between atoms: C_23  and  O_25
REMARK    9  A    between atoms: C_27  and  N_30
REMARK                            x       y       z     vdW  Elec       q    Type
REMARK                         _______ _______ _______ _____ _____    ______ ____
ROOT
ATOM      1  C   UNL     1      -0.724   0.499  -0.920  0.00  0.00    +0.000 C 
ATOM      2  C   UNL     1       0.740   0.830  -0.552  0.00  0.00    +0.000 C 
ATOM      3  O   UNL     1       1.055   0.291   0.719  0.00  0.00    +0.000 OA
ATOM      4  C   UNL     1       0.310   0.939   1.739  0.00  0.00    +0.000 C 
ATOM      5  C   UNL     1      -1.204   0.657   1.561  0.00  0.00    +0.000 C 
ATOM      6  C   UNL     1      -1.653   1.092   0.156  0.00  0.00    +0.000 C 
ENDROOT
BRANCH   1   8
ATOM      7  C   UNL     1      -0.714  -1.676  -2.054  0.00  0.00    +0.000 C 
ATOM      8  N   UNL     1      -0.923  -0.952  -0.995  0.00  0.00    +0.000 NA
BRANCH   7  10
ATOM      9  H   UNL     1      -0.157  -1.642  -4.084  0.00  0.00    +0.000 HD
ATOM     10  O   UNL     1      -0.301  -1.088  -3.249  0.00  0.00    +0.000 OA
ENDBRANCH   7  10
BRANCH   7  11
ATOM     11  C   UNL     1      -0.970  -3.152  -1.994  0.00  0.00    +0.000 C 
BRANCH  11  12
ATOM     12  N   UNL     1      -2.327  -3.447  -2.434  0.00  0.00    +0.000 NA
ATOM     13  N   UNL     1      -3.302  -3.065  -1.785  0.00  0.00    +0.000 NA
ATOM     14  N   UNL     1      -4.274  -2.683  -1.137  0.00  0.00    +0.000 NA
ENDBRANCH  11  12
ENDBRANCH   7  11
ENDBRANCH   1   8
BRANCH   2  15
ATOM     15  O   UNL     1       1.616   0.278  -1.498  0.00  0.00    +0.000 OA
ATOM     16  H   UNL     1       1.549   0.839  -2.314  0.00  0.00    +0.000 HD
ENDBRANCH   2  15
BRANCH   5  17
ATOM     17  O   UNL     1      -1.950   1.375   2.513  0.00  0.00    +0.000 OA
ATOM     18  H   UNL     1      -2.187   0.742   3.240  0.00  0.00    +0.000 HD
ENDBRANCH   5  17
BRANCH   6  19
ATOM     19  O   UNL     1      -2.979   0.682  -0.061  0.00  0.00    +0.000 OA
ATOM     20  H   UNL     1      -3.306   1.178  -0.856  0.00  0.00    +0.000 HD
ENDBRANCH   6  19
BRANCH   4  21
ATOM     21  C   UNL     1       0.823   0.424   3.095  0.00  0.00    +0.000 C 
BRANCH  21  22
ATOM     22  O   UNL     1       0.302   1.178   4.157  0.00  0.00    +0.000 OA
ATOM     23  H   UNL     1       0.790   2.042   4.159  0.00  0.00    +0.000 HD
ENDBRANCH  21  22
ENDBRANCH   4  21
TORSDOF 9
