REMARK  Name = 44229083
REMARK  9 active torsions:
REMARK  status: ('A' for Active; 'I' for Inactive)
REMARK    1  A    between atoms: O_2  and  C_3
REMARK    2  A    between atoms: C_3  and  C_30
REMARK    3  A    between atoms: N_4  and  C_5
REMARK    4  A    between atoms: C_7  and  O_9
REMARK    5  A    between atoms: C_12  and  C_14
REMARK    6  A    between atoms: C_14  and  O_17
REMARK    7  A    between atoms: O_17  and  P_18
REMARK    8  A    between atoms: C_22  and  O_24
REMARK    9  A    between atoms: C_26  and  O_28
REMARK                            x       y       z     vdW  Elec       q    Type
REMARK                         _______ _______ _______ _____ _____    ______ ____
ROOT
ATOM      1  C   UNL     1      -1.207  -0.176  -0.564  0.00  0.00    +0.000 C 
ATOM      2  C   UNL     1      -0.213   0.424  -1.582  0.00  0.00    +0.000 C 
ATOM      3  O   UNL     1       1.075  -0.142  -1.412  0.00  0.00    +0.000 OA
ATOM      4  C   UNL     1       1.623   0.232  -0.159  0.00  0.00    +0.000 C 
ATOM      5  C   UNL     1       0.794  -0.382   0.998  0.00  0.00    +0.000 C 
ATOM      6  C   UNL     1      -0.684   0.043   0.872  0.00  0.00    +0.000 C 
ENDROOT
BRANCH   1   8
ATOM      7  C   UNL     1      -3.650  -0.064  -0.404  0.00  0.00    +0.000 C 
ATOM      8  N   UNL     1      -2.511   0.472  -0.728  0.00  0.00    +0.000 NA
ATOM      9  C   UNL     1      -4.911   0.717  -0.594  0.00  0.00    +0.000 C 
BRANCH   7  11
ATOM     10  H   UNL     1      -4.589  -1.767   0.401  0.00  0.00    +0.000 HD
ATOM     11  O   UNL     1      -3.706  -1.349   0.135  0.00  0.00    +0.000 OA
ENDBRANCH   7  11
ENDBRANCH   1   8
BRANCH   2  12
ATOM     12  O   UNL     1      -0.645   0.131  -2.885  0.00  0.00    +0.000 OA
ATOM     13  H   UNL     1      -1.341   0.799  -3.121  0.00  0.00    +0.000 HD
ENDBRANCH   2  12
BRANCH   5  14
ATOM     14  O   UNL     1       0.919  -1.785   1.050  0.00  0.00    +0.000 OA
ATOM     15  H   UNL     1       0.661  -2.151   0.165  0.00  0.00    +0.000 HD
ENDBRANCH   5  14
BRANCH   6  16
ATOM     16  O   UNL     1      -1.473  -0.675   1.785  0.00  0.00    +0.000 OA
ATOM     17  H   UNL     1      -1.282  -0.302   2.684  0.00  0.00    +0.000 HD
ENDBRANCH   6  16
BRANCH   4  18
ATOM     18  C   UNL     1       3.090  -0.216  -0.109  0.00  0.00    +0.000 C 
BRANCH  18  19
ATOM     19  O   UNL     1       3.673   0.206   1.103  0.00  0.00    +0.000 OA
BRANCH  19  20
ATOM     20  P   UNL     1       5.279  -0.366   1.156  0.00  0.00    +0.000 P 
ATOM     21  O   UNL     1       5.288  -1.876   1.229  0.00  0.00    +0.000 OA
ATOM     22  O   UNL     1       6.036   0.257   2.534  0.00  0.00    +0.000 OA
ATOM     23  O   UNL     1       6.131   0.140  -0.215  0.00  0.00    +0.000 OA
ENDBRANCH  19  20
ENDBRANCH  18  19
ENDBRANCH   4  18
TORSDOF 8
