REMARK  Name = 25243963
REMARK  8 active torsions:
REMARK  status: ('A' for Active; 'I' for Inactive)
REMARK    1  A    between atoms: C_1  and  C_2
REMARK    2  A    between atoms: N_4  and  C_5
REMARK    3  A    between atoms: C_6  and  O_7
REMARK    4  A    between atoms: C_9  and  C_10
REMARK    5  A    between atoms: C_10  and  O_11
REMARK    6  A    between atoms: O_11  and  P_12
REMARK    7  A    between atoms: C_16  and  O_17
REMARK    8  A    between atoms: C_18  and  O_19
REMARK                            x       y       z     vdW  Elec       q    Type
REMARK                         _______ _______ _______ _____ _____    ______ ____
ROOT
ATOM      1  C   UNL     1       1.290  -0.919   0.939  0.00  0.00    +0.000 C 
ATOM      2  C   UNL     1       0.325  -0.268  -0.073  0.00  0.00    +0.000 C 
ATOM      3  O   UNL     1       0.020   1.070   0.292  0.00  0.00    +0.000 OA
ATOM      4  C   UNL     1      -0.646   1.138   1.544  0.00  0.00    +0.000 C 
ATOM      5  C   UNL     1       0.267   0.592   2.674  0.00  0.00    +0.000 C 
ATOM      6  C   UNL     1       0.698  -0.851   2.360  0.00  0.00    +0.000 C 
ENDROOT
BRANCH   1  10
ATOM      7  C   UNL     1       2.690  -4.077  -0.870  0.00  0.00    +0.000 C 
ATOM      8  C   UNL     1       2.481  -2.646  -0.497  0.00  0.00    +0.000 C 
ATOM      9  O   UNL     1       3.122  -1.744  -1.102  0.00  0.00    +0.000 OA
ATOM     10  N   UNL     1       1.566  -2.308   0.554  0.00  0.00    +0.000 N 
ATOM     11  H   UNL     1       1.076  -3.088   1.050  0.00  0.00    +0.000 HD
ENDBRANCH   1  10
BRANCH   2  12
ATOM     12  O   UNL     1      -0.844  -1.037  -0.218  0.00  0.00    +0.000 OA
ATOM     13  H   UNL     1      -1.362  -0.622  -0.956  0.00  0.00    +0.000 HD
ENDBRANCH   2  12
BRANCH   5  14
ATOM     14  O   UNL     1      -0.369   0.648   3.928  0.00  0.00    +0.000 OA
ATOM     15  H   UNL     1      -1.199   0.105   3.869  0.00  0.00    +0.000 HD
ENDBRANCH   5  14
BRANCH   6  16
ATOM     16  O   UNL     1       1.659  -1.257   3.302  0.00  0.00    +0.000 OA
ATOM     17  H   UNL     1       1.640  -2.249   3.327  0.00  0.00    +0.000 HD
ENDBRANCH   6  16
BRANCH   4  18
ATOM     18  C   UNL     1      -1.029   2.604   1.794  0.00  0.00    +0.000 C 
BRANCH  18  19
ATOM     19  O   UNL     1      -1.893   2.693   2.903  0.00  0.00    +0.000 OA
BRANCH  19  20
ATOM     20  P   UNL     1      -2.250   4.338   3.173  0.00  0.00    +0.000 P 
ATOM     21  O   UNL     1      -3.207   4.448   4.338  0.00  0.00    +0.000 OA
ATOM     22  O   UNL     1      -2.973   5.012   1.800  0.00  0.00    +0.000 OA
ATOM     23  O   UNL     1      -0.834   5.187   3.540  0.00  0.00    +0.000 OA
ENDBRANCH  19  20
ENDBRANCH  18  19
ENDBRANCH   4  18
TORSDOF 7
