REMARK  Name = 16738680
REMARK  11 active torsions:
REMARK  status: ('A' for Active; 'I' for Inactive)
REMARK    1  A    between atoms: O_2  and  C_3
REMARK    2  A    between atoms: C_3  and  C_35
REMARK    3  A    between atoms: N_4  and  C_5
REMARK    4  A    between atoms: C_7  and  O_9
REMARK    5  A    between atoms: C_12  and  C_14
REMARK    6  A    between atoms: C_14  and  O_17
REMARK    7  A    between atoms: C_19  and  O_21
REMARK    8  A    between atoms: C_23  and  O_25
REMARK    9  A    between atoms: O_25  and  C_26
REMARK   10  A    between atoms: C_26  and  C_28
REMARK   11  A    between atoms: C_26  and  C_31
REMARK                            x       y       z     vdW  Elec       q    Type
REMARK                         _______ _______ _______ _____ _____    ______ ____
ROOT
ATOM      1  C   UNL     1      -0.761  -0.416   2.095  0.00  0.00    +0.000 C 
ATOM      2  C   UNL     1      -0.573   1.097   2.339  0.00  0.00    +0.000 C 
ATOM      3  O   UNL     1      -1.425   1.839   1.483  0.00  0.00    +0.000 OA
ATOM      4  C   UNL     1      -1.046   1.664   0.128  0.00  0.00    +0.000 C 
ATOM      5  C   UNL     1      -1.254   0.194  -0.301  0.00  0.00    +0.000 C 
ATOM      6  C   UNL     1      -0.446  -0.739   0.623  0.00  0.00    +0.000 C 
ENDROOT
BRANCH   1   8
ATOM      7  C   UNL     1      -0.058  -1.561   4.181  0.00  0.00    +0.000 C 
ATOM      8  N   UNL     1       0.145  -1.189   2.949  0.00  0.00    +0.000 NA
ATOM      9  C   UNL     1       1.001  -2.348   4.877  0.00  0.00    +0.000 C 
BRANCH   7  11
ATOM     10  H   UNL     1      -2.023  -0.783   4.463  0.00  0.00    +0.000 HD
ATOM     11  O   UNL     1      -1.245  -1.287   4.865  0.00  0.00    +0.000 OA
ENDBRANCH   7  11
ENDBRANCH   1   8
BRANCH   2  12
ATOM     12  O   UNL     1      -0.896   1.402   3.667  0.00  0.00    +0.000 OA
ATOM     13  H   UNL     1      -0.656   2.356   3.803  0.00  0.00    +0.000 HD
ENDBRANCH   2  12
BRANCH   5  14
ATOM     14  O   UNL     1      -0.832   0.028  -1.631  0.00  0.00    +0.000 OA
ATOM     15  H   UNL     1      -1.335  -0.743  -2.000  0.00  0.00    +0.000 HD
ENDBRANCH   5  14
BRANCH   4  16
ATOM     16  C   UNL     1      -1.893   2.608  -0.738  0.00  0.00    +0.000 C 
BRANCH  16  17
ATOM     17  O   UNL     1      -1.715   3.938  -0.331  0.00  0.00    +0.000 OA
ATOM     18  H   UNL     1      -0.827   4.223  -0.671  0.00  0.00    +0.000 HD
ENDBRANCH  16  17
ENDBRANCH   4  16
BRANCH   6  19
ATOM     19  O   UNL     1      -0.810  -2.089   0.367  0.00  0.00    +0.000 OA
BRANCH  19  20
ATOM     20  C   UNL     1       0.194  -2.784  -0.352  0.00  0.00    +0.000 C 
ATOM     21  C   UNL     1      -0.454  -3.949  -1.096  0.00  0.00    +0.000 C 
BRANCH  20  22
ATOM     22  C   UNL     1       1.244  -3.302   0.591  0.00  0.00    +0.000 C 
ATOM     23  O   UNL     1       0.915  -3.986   1.597  0.00  0.00    +0.000 OA
ATOM     24  O   UNL     1       2.586  -3.039   0.348  0.00  0.00    +0.000 OA
ENDBRANCH  20  22
ENDBRANCH  19  20
ENDBRANCH   6  19
TORSDOF 9
