REMARK  Name = 24847493
REMARK  10 active torsions:
REMARK  status: ('A' for Active; 'I' for Inactive)
REMARK    1  A    between atoms: O_2  and  C_3
REMARK    2  A    between atoms: N_4  and  C_5
REMARK    3  A    between atoms: C_7  and  O_9
REMARK    4  A    between atoms: C_11  and  O_13
REMARK    5  A    between atoms: C_15  and  C_17
REMARK    6  A    between atoms: C_17  and  O_20
REMARK    7  A    between atoms: C_23  and  O_25
REMARK    8  A    between atoms: N_27  and  N_28
REMARK    9  A    between atoms: N_27  and  C_30
REMARK   10  A    between atoms: C_30  and  C_33
REMARK                            x       y       z     vdW  Elec       q    Type
REMARK                         _______ _______ _______ _____ _____    ______ ____
ROOT
ATOM      1  C   UNL     1      -0.143  -0.755   0.927  0.00  0.00    +0.000 C 
ATOM      2  C   UNL     1      -0.923   0.410   1.555  0.00  0.00    +0.000 C 
ATOM      3  C   UNL     1      -1.802   1.122   0.499  0.00  0.00    +0.000 C 
ATOM      4  C   UNL     1      -2.584   0.116  -0.387  0.00  0.00    +0.000 C 
ATOM      5  O   UNL     1      -1.758  -0.927  -0.892  0.00  0.00    +0.000 OA
ATOM      6  C   UNL     1      -1.112  -1.659   0.136  0.00  0.00    +0.000 C 
ENDROOT
BRANCH   1   8
ATOM      7  C   UNL     1       2.023  -0.821  -0.231  0.00  0.00    +0.000 C 
ATOM      8  N   UNL     1       0.902  -0.223   0.047  0.00  0.00    +0.000 NA
ATOM      9  N   UNL     1       2.966  -0.188  -1.125  0.00  0.00    +0.000 N 
BRANCH   7  11
ATOM     10  H   UNL     1       3.150  -2.580   0.144  0.00  0.00    +0.000 HD
ATOM     11  O   UNL     1       2.313  -2.055   0.357  0.00  0.00    +0.000 OA
ENDBRANCH   7  11
BRANCH   9  12
ATOM     12  N   UNL     1       2.542   0.737  -2.099  0.00  0.00    +0.000 NA
ATOM     13  O   UNL     1       1.334   0.918  -2.359  0.00  0.00    +0.000 OA
ENDBRANCH   9  12
BRANCH   9  14
ATOM     14  C   UNL     1       4.407  -0.431  -1.006  0.00  0.00    +0.000 C 
BRANCH  14  15
ATOM     15  C   UNL     1       4.949   0.072   0.333  0.00  0.00    +0.000 C 
ATOM     16 CL   UNL     1       4.720   1.833   0.492  0.00  0.00    +0.000 Cl
ENDBRANCH  14  15
ENDBRANCH   9  14
ENDBRANCH   1   8
BRANCH   2  17
ATOM     17  O   UNL     1      -1.714  -0.072   2.611  0.00  0.00    +0.000 OA
ATOM     18  H   UNL     1      -1.984   0.716   3.152  0.00  0.00    +0.000 HD
ENDBRANCH   2  17
BRANCH   3  19
ATOM     19  O   UNL     1      -0.994   1.917  -0.331  0.00  0.00    +0.000 OA
ATOM     20  H   UNL     1      -0.743   2.723   0.193  0.00  0.00    +0.000 HD
ENDBRANCH   3  19
BRANCH   6  21
ATOM     21  O   UNL     1      -0.406  -2.717  -0.457  0.00  0.00    +0.000 OA
ATOM     22  H   UNL     1      -0.179  -3.356   0.268  0.00  0.00    +0.000 HD
ENDBRANCH   6  21
BRANCH   4  23
ATOM     23  C   UNL     1      -3.877  -0.421   0.261  0.00  0.00    +0.000 C 
BRANCH  23  24
ATOM     24  O   UNL     1      -4.815   0.614   0.380  0.00  0.00    +0.000 OA
ATOM     25  H   UNL     1      -5.626   0.207   0.782  0.00  0.00    +0.000 HD
ENDBRANCH  23  24
ENDBRANCH   4  23
TORSDOF 10
