REMARK  Name = 12600646
REMARK  9 active torsions:
REMARK  status: ('A' for Active; 'I' for Inactive)
REMARK    1  A    between atoms: O_2  and  N_3
REMARK    2  A    between atoms: N_4  and  C_31
REMARK    3  A    between atoms: N_7  and  C_9
REMARK    4  A    between atoms: C_11  and  O_13
REMARK    5  A    between atoms: C_16  and  C_18
REMARK    6  A    between atoms: C_18  and  O_21
REMARK    7  A    between atoms: C_23  and  O_25
REMARK    8  A    between atoms: C_27  and  O_29
REMARK    9  A    between atoms: C_31  and  C_34
REMARK                            x       y       z     vdW  Elec       q    Type
REMARK                         _______ _______ _______ _____ _____    ______ ____
ROOT
ATOM      1  C   UNL     1       0.225   1.683  -0.152  0.00  0.00    +0.000 C 
ATOM      2  C   UNL     1      -1.241   1.477  -0.583  0.00  0.00    +0.000 C 
ATOM      3  O   UNL     1      -2.095   2.436   0.025  0.00  0.00    +0.000 OA
ATOM      4  C   UNL     1      -2.087   2.328   1.442  0.00  0.00    +0.000 C 
ATOM      5  C   UNL     1      -0.677   2.620   2.012  0.00  0.00    +0.000 C 
ATOM      6  C   UNL     1       0.336   1.648   1.384  0.00  0.00    +0.000 C 
ENDROOT
BRANCH   1  11
ATOM      7  N   UNL     1       2.784  -0.151  -3.867  0.00  0.00    +0.000 NA
ATOM      8  N   UNL     1       2.558  -0.174  -2.610  0.00  0.00    +0.000 N 
ATOM      9  C   UNL     1       1.655   0.810  -2.065  0.00  0.00    +0.000 C 
ATOM     10  O   UNL     1       1.351   1.819  -2.760  0.00  0.00    +0.000 OA
ATOM     11  N   UNL     1       1.082   0.657  -0.753  0.00  0.00    +0.000 N 
ATOM     12  H   UNL     1       1.145  -0.267  -0.271  0.00  0.00    +0.000 HD
BRANCH   7  14
ATOM     13  H   UNL     1       3.776  -1.006  -5.479  0.00  0.00    +0.000 HD
ATOM     14  O   UNL     1       3.622  -1.056  -4.481  0.00  0.00    +0.000 OA
ENDBRANCH   7  14
BRANCH   8  15
ATOM     15  C   UNL     1       3.198  -1.187  -1.753  0.00  0.00    +0.000 C 
BRANCH  15  16
ATOM     16  C   UNL     1       2.404  -2.492  -1.781  0.00  0.00    +0.000 C 
ATOM     17 CL   UNL     1       3.148  -3.686  -0.690  0.00  0.00    +0.000 Cl
ENDBRANCH  15  16
ENDBRANCH   8  15
ENDBRANCH   1  11
BRANCH   2  18
ATOM     18  O   UNL     1      -1.668   0.166  -0.305  0.00  0.00    +0.000 OA
ATOM     19  H   UNL     1      -2.570   0.074  -0.709  0.00  0.00    +0.000 HD
ENDBRANCH   2  18
BRANCH   5  20
ATOM     20  O   UNL     1      -0.668   2.446   3.407  0.00  0.00    +0.000 OA
ATOM     21  H   UNL     1      -0.831   3.337   3.814  0.00  0.00    +0.000 HD
ENDBRANCH   5  20
BRANCH   6  22
ATOM     22  O   UNL     1       1.646   1.947   1.801  0.00  0.00    +0.000 OA
ATOM     23  H   UNL     1       1.862   2.864   1.487  0.00  0.00    +0.000 HD
ENDBRANCH   6  22
BRANCH   4  24
ATOM     24  C   UNL     1      -3.135   3.297   2.005  0.00  0.00    +0.000 C 
BRANCH  24  25
ATOM     25  O   UNL     1      -2.824   4.616   1.650  0.00  0.00    +0.000 OA
ATOM     26  H   UNL     1      -3.534   5.184   2.048  0.00  0.00    +0.000 HD
ENDBRANCH  24  25
ENDBRANCH   4  24
TORSDOF 9
