REMARK  Name = 11908605
REMARK  8 active torsions:
REMARK  status: ('A' for Active; 'I' for Inactive)
REMARK    1  A    between atoms: O_2  and  C_3
REMARK    2  A    between atoms: C_3  and  C_27
REMARK    3  A    between atoms: N_4  and  C_5
REMARK    4  A    between atoms: C_7  and  O_9
REMARK    5  A    between atoms: C_11  and  O_13
REMARK    6  A    between atoms: C_15  and  C_17
REMARK    7  A    between atoms: C_17  and  O_20
REMARK    8  A    between atoms: C_23  and  O_25
REMARK                            x       y       z     vdW  Elec       q    Type
REMARK                         _______ _______ _______ _____ _____    ______ ____
ROOT
ATOM      1  C   UNL     1       0.741   1.292  -0.405  0.00  0.00    +0.000 C 
ATOM      2  C   UNL     1       0.836   1.021   1.109  0.00  0.00    +0.000 C 
ATOM      3  C   UNL     1       0.939  -0.494   1.379  0.00  0.00    +0.000 C 
ATOM      4  C   UNL     1       2.052  -1.118   0.500  0.00  0.00    +0.000 C 
ATOM      5  O   UNL     1       1.814  -0.853  -0.873  0.00  0.00    +0.000 OA
ATOM      6  C   UNL     1       1.881   0.541  -1.133  0.00  0.00    +0.000 C 
ENDROOT
BRANCH   1   8
ATOM      7  C   UNL     1      -1.198   1.359  -1.906  0.00  0.00    +0.000 C 
ATOM      8  N   UNL     1      -0.571   0.848  -0.889  0.00  0.00    +0.000 NA
ATOM      9  C   UNL     1      -2.520   0.794  -2.314  0.00  0.00    +0.000 C 
BRANCH   7  11
ATOM     10  H   UNL     1      -1.113   2.801  -3.439  0.00  0.00    +0.000 HD
ATOM     11  O   UNL     1      -0.638   2.409  -2.635  0.00  0.00    +0.000 OA
ENDBRANCH   7  11
ENDBRANCH   1   8
BRANCH   2  12
ATOM     12  O   UNL     1       1.960   1.674   1.647  0.00  0.00    +0.000 OA
ATOM     13  H   UNL     1       1.726   2.637   1.718  0.00  0.00    +0.000 HD
ENDBRANCH   2  12
BRANCH   3  14
ATOM     14  O   UNL     1       1.218  -0.721   2.737  0.00  0.00    +0.000 OA
ATOM     15  H   UNL     1       0.379  -0.542   3.235  0.00  0.00    +0.000 HD
ENDBRANCH   3  14
BRANCH   6  16
ATOM     16  O   UNL     1       1.823   0.775  -2.516  0.00  0.00    +0.000 OA
ATOM     17  H   UNL     1       1.154   0.149  -2.899  0.00  0.00    +0.000 HD
ENDBRANCH   6  16
BRANCH   4  18
ATOM     18  C   UNL     1       2.133  -2.638   0.696  0.00  0.00    +0.000 C 
BRANCH  18  19
ATOM     19  O   UNL     1       0.942  -3.249   0.282  0.00  0.00    +0.000 OA
ATOM     20  H   UNL     1       1.063  -4.222   0.437  0.00  0.00    +0.000 HD
ENDBRANCH  18  19
ENDBRANCH   4  18
TORSDOF 7
