REMARK  Name = 6323218
REMARK  11 active torsions:
REMARK  status: ('A' for Active; 'I' for Inactive)
REMARK    1  A    between atoms: O_2  and  C_3
REMARK    2  A    between atoms: C_3  and  C_35
REMARK    3  A    between atoms: N_4  and  C_5
REMARK    4  A    between atoms: C_7  and  O_9
REMARK    5  A    between atoms: C_12  and  C_14
REMARK    6  A    between atoms: C_14  and  O_17
REMARK    7  A    between atoms: C_19  and  O_21
REMARK    8  A    between atoms: C_23  and  O_25
REMARK    9  A    between atoms: O_25  and  C_26
REMARK   10  A    between atoms: C_26  and  C_28
REMARK   11  A    between atoms: C_26  and  C_31
REMARK                            x       y       z     vdW  Elec       q    Type
REMARK                         _______ _______ _______ _____ _____    ______ ____
ROOT
ATOM      1  C   UNL     1       0.936  -0.035   0.365  0.00  0.00    +0.000 C 
ATOM      2  C   UNL     1       1.847   0.770  -0.585  0.00  0.00    +0.000 C 
ATOM      3  O   UNL     1       1.454   2.134  -0.637  0.00  0.00    +0.000 OA
ATOM      4  C   UNL     1       0.135   2.283  -1.141  0.00  0.00    +0.000 C 
ATOM      5  C   UNL     1      -0.888   1.593  -0.206  0.00  0.00    +0.000 C 
ATOM      6  C   UNL     1      -0.534   0.104  -0.058  0.00  0.00    +0.000 C 
ENDROOT
BRANCH   1   8
ATOM      7  C   UNL     1       2.344  -1.942   0.972  0.00  0.00    +0.000 C 
ATOM      8  N   UNL     1       1.309  -1.451   0.360  0.00  0.00    +0.000 NA
ATOM      9  C   UNL     1       2.618  -3.409   0.896  0.00  0.00    +0.000 C 
BRANCH   7  11
ATOM     10  H   UNL     1       3.985  -1.497   2.213  0.00  0.00    +0.000 HD
ATOM     11  O   UNL     1       3.184  -1.119   1.722  0.00  0.00    +0.000 OA
ENDBRANCH   7  11
ENDBRANCH   1   8
BRANCH   2  12
ATOM     12  O   UNL     1       1.867   0.196  -1.869  0.00  0.00    +0.000 OA
ATOM     13  H   UNL     1       2.550   0.697  -2.388  0.00  0.00    +0.000 HD
ENDBRANCH   2  12
BRANCH   5  14
ATOM     14  O   UNL     1      -2.183   1.703  -0.742  0.00  0.00    +0.000 OA
ATOM     15  H   UNL     1      -2.618   2.480  -0.303  0.00  0.00    +0.000 HD
ENDBRANCH   5  14
BRANCH   4  16
ATOM     16  C   UNL     1      -0.164   3.781  -1.266  0.00  0.00    +0.000 C 
BRANCH  16  17
ATOM     17  O   UNL     1       0.781   4.382  -2.108  0.00  0.00    +0.000 OA
ATOM     18  H   UNL     1       0.547   5.346  -2.142  0.00  0.00    +0.000 HD
ENDBRANCH  16  17
ENDBRANCH   4  16
BRANCH   6  19
ATOM     19  O   UNL     1      -1.352  -0.476   0.950  0.00  0.00    +0.000 OA
BRANCH  19  20
ATOM     20  C   UNL     1      -2.370  -1.296   0.401  0.00  0.00    +0.000 C 
ATOM     21  C   UNL     1      -3.515  -1.391   1.405  0.00  0.00    +0.000 C 
BRANCH  20  22
ATOM     22  C   UNL     1      -1.829  -2.670   0.121  0.00  0.00    +0.000 C 
ATOM     23  O   UNL     1      -2.011  -3.205  -1.004  0.00  0.00    +0.000 OA
ATOM     24  O   UNL     1      -1.140  -3.365   1.109  0.00  0.00    +0.000 OA
ENDBRANCH  20  22
ENDBRANCH  19  20
ENDBRANCH   6  19
TORSDOF 9
