REMARK  Name = 5284365
REMARK  10 active torsions:
REMARK  status: ('A' for Active; 'I' for Inactive)
REMARK    1  A    between atoms: O_2  and  C_3
REMARK    2  A    between atoms: N_4  and  C_6
REMARK    3  A    between atoms: C_8  and  O_10
REMARK    4  A    between atoms: C_13  and  C_15
REMARK    5  A    between atoms: C_15  and  O_18
REMARK    6  A    between atoms: C_20  and  O_22
REMARK    7  A    between atoms: C_24  and  O_26
REMARK    8  A    between atoms: N_28  and  N_29
REMARK    9  A    between atoms: N_28  and  C_31
REMARK   10  A    between atoms: C_31  and  C_34
REMARK                            x       y       z     vdW  Elec       q    Type
REMARK                         _______ _______ _______ _____ _____    ______ ____
ROOT
ATOM      1  C   UNL     1       0.502  -0.169   0.248  0.00  0.00    +0.000 C 
ATOM      2  C   UNL     1       1.281  -0.929   1.341  0.00  0.00    +0.000 C 
ATOM      3  O   UNL     1       0.587  -2.104   1.731  0.00  0.00    +0.000 OA
ATOM      4  C   UNL     1      -0.679  -1.806   2.303  0.00  0.00    +0.000 C 
ATOM      5  C   UNL     1      -1.598  -1.111   1.267  0.00  0.00    +0.000 C 
ATOM      6  C   UNL     1      -0.919   0.162   0.736  0.00  0.00    +0.000 C 
ENDROOT
BRANCH   1   8
ATOM      7  C   UNL     1       1.396   1.436  -1.504  0.00  0.00    +0.000 C 
ATOM      8  N   UNL     1       1.213   1.057  -0.131  0.00  0.00    +0.000 N 
ATOM      9  H   UNL     1       1.289   1.816   0.584  0.00  0.00    +0.000 HD
ATOM     10  N   UNL     1       2.030   0.657  -2.345  0.00  0.00    +0.000 N 
BRANCH   7  12
ATOM     11  H   UNL     1       0.413   3.284  -1.283  0.00  0.00    +0.000 HD
ATOM     12  O   UNL     1       0.901   2.671  -1.925  0.00  0.00    +0.000 OA
ENDBRANCH   7  12
BRANCH  10  13
ATOM     13  N   UNL     1       2.628  -0.527  -1.871  0.00  0.00    +0.000 NA
ATOM     14  O   UNL     1       3.234  -1.312  -2.630  0.00  0.00    +0.000 OA
ENDBRANCH  10  13
BRANCH  10  15
ATOM     15  C   UNL     1       2.137   1.019  -3.771  0.00  0.00    +0.000 C 
BRANCH  15  16
ATOM     16  C   UNL     1       0.844   0.692  -4.521  0.00  0.00    +0.000 C 
ATOM     17 CL   UNL     1       0.521  -1.062  -4.519  0.00  0.00    +0.000 Cl
ENDBRANCH  15  16
ENDBRANCH  10  15
ENDBRANCH   1   8
BRANCH   2  18
ATOM     18  O   UNL     1       1.540  -0.114   2.461  0.00  0.00    +0.000 OA
ATOM     19  H   UNL     1       2.379   0.383   2.275  0.00  0.00    +0.000 HD
ENDBRANCH   2  18
BRANCH   5  20
ATOM     20  O   UNL     1      -2.822  -0.771   1.867  0.00  0.00    +0.000 OA
ATOM     21  H   UNL     1      -3.485  -0.672   1.135  0.00  0.00    +0.000 HD
ENDBRANCH   5  20
BRANCH   6  22
ATOM     22  O   UNL     1      -1.680   0.683  -0.324  0.00  0.00    +0.000 OA
ATOM     23  H   UNL     1      -1.480   1.654  -0.374  0.00  0.00    +0.000 HD
ENDBRANCH   6  22
BRANCH   4  24
ATOM     24  C   UNL     1      -1.291  -3.125   2.796  0.00  0.00    +0.000 C 
BRANCH  24  25
ATOM     25  O   UNL     1      -2.427  -2.878   3.578  0.00  0.00    +0.000 OA
ATOM     26  H   UNL     1      -2.775  -3.767   3.847  0.00  0.00    +0.000 HD
ENDBRANCH  24  25
ENDBRANCH   4  24
TORSDOF 10
