@<TRIPOS>MOLECULE
139AD2C.pdbqt
 33 36 0 0 0
SMALL
GASTEIGER

@<TRIPOS>ATOM
      1  C         87.8270   17.9350 -104.1680 C.3     1  UNL1        0.0000
      2  C         89.0500   17.2380 -104.8110 C.3     1  UNL1        0.0000
      3  C         89.9700   18.3190 -105.4090 C.3     1  UNL1        0.0000
      4  O         91.1680   17.7450 -105.8950 O.3     1  UNL1        0.0000
      5  C         92.1440   18.7280 -106.2430 C.3     1  UNL1        0.0000
      6  O         91.6300   20.0530 -106.2830 O.3     1  UNL1        0.0000
      7  C         91.2020   20.4450 -104.9910 C.3     1  UNL1        0.0000
      8  C         90.2770   19.3930 -104.3510 C.3     1  UNL1        0.0000
      9  O         89.0790   20.0000 -103.9010 O.3     1  UNL1        0.0000
     10  C         88.2830   19.0520 -103.2030 C.3     1  UNL1        0.0000
     11  C         92.7290   18.4050 -107.5950 C.2     1  UNL1        0.0000
     12  C         92.4780   19.2540 -108.6900 C.2     1  UNL1        0.0000
     13  C         92.9750   18.9380 -109.9570 C.2     1  UNL1        0.0000
     14  C         93.7230   17.7710 -110.1450 C.2     1  UNL1        0.0000
     15  C         93.9530   16.9060 -109.0710 C.2     1  UNL1        0.0000
     16  C         93.4500   17.2140 -107.8030 C.2     1  UNL1        0.0000
     17  C         86.4340   15.9320 -103.9800 C.2     1  UNL1        0.0000
     18  N         87.0030   16.9690 -103.4400 N.2     1  UNL1        0.0000
     19  C         85.6310   15.0190 -103.1310 C.2     1  UNL1        0.0000
     20  C         86.1540   14.5010 -101.9310 C.2     1  UNL1        0.0000
     21  C         85.3940   13.6330 -101.1420 C.2     1  UNL1        0.0000
     22  C         84.1080   13.2660 -101.5420 C.2     1  UNL1        0.0000
     23  C         83.5800   13.7640 -102.7350 C.2     1  UNL1        0.0000
     24  C         84.3360   14.6320 -103.5290 C.2     1  UNL1        0.0000
     25  H         86.7190   14.7590 -105.7260 H       1  UNL1        0.0000
     26  O         86.5870   15.6900 -105.3490 O.2     1  UNL1        0.0000
     27  O         87.1300   19.6950 -102.6930 O.3     1  UNL1        0.0000
     28  C         87.3250   21.0920 -102.6660 C.3     1  UNL1        0.0000
     29  O         89.7460   16.5010 -103.8190 O.3     1  UNL1        0.0000
     30  S         89.8680   14.8600 -104.2500 S.3     1  UNL1        0.0000
     31  O         88.8370   14.5700 -105.3040 O.3     1  UNL1        0.0000
     32  O         89.6050   13.9680 -103.0660 O.3     1  UNL1        0.0000
     33  C         91.4760   14.4960 -104.9200 C.3     1  UNL1        0.0000
@<TRIPOS>BOND
     1    14    13    2
     2    14    15    1
     3    13    12    1
     4    15    16    2
     5    12    11    2
     6    16    11    1
     7    11     5    1
     8     6     5    1
     9     6     7    1
    10     5     4    1
    11     4     3    1
    12    25    26    1
    13     3     2    1
    14     3     8    1
    15    26    17    1
    16    31    30    1
    17     7     8    1
    18    33    30    1
    19     2     1    1
    20     2    29    1
    21     8     9    1
    22    30    29    1
    23    30    32    1
    24     1    18    1
    25     1    10    1
    26    17    18    2
    27    17    19    1
    28     9    10    1
    29    24    19    2
    30    24    23    1
    31    10    27    1
    32    19    20    1
    33    23    22    2
    34    27    28    1
    35    20    21    2
    36    22    21    1
