@<TRIPOS>MOLECULE
ZINC000257347638_entry_00278_conf_01
57 60 1
SMALL
NO_CHARGES


@<TRIPOS>ATOM
      1 H          88.0752   19.0169 -104.6462 H         1 UNL1        0.2937
      2 O          88.4968   18.6722 -103.7933 O.2       1 UNL1       -0.4922
      3 C          88.5899   17.3086 -103.5017 C.2       1 UNL1        0.2156
      4 N          87.8129   16.7828 -102.6008 N.2       1 UNL1       -0.2392
      5 C          86.8261   17.5161 -101.7988 C.3       1 UNL1        0.1359
      6 H          87.3349   18.3753 -101.3044 H         1 UNL1        0.0624
      7 C          86.2215   16.5985 -100.7087 C.3       1 UNL1        0.1430
      8 H          85.6382   17.2886 -100.0516 H         1 UNL1        0.0670
      9 O          87.2617   15.9561  -99.9963 O.3       1 UNL1       -0.2303
     10 S          86.6353   15.1458  -98.6433 Du        1 UNL1        0.0797
     11 O          87.4879   15.3863  -97.4283 O.2       1 UNL1       -0.1475
     12 O          86.5555   13.6713  -98.9219 O.2       1 UNL1       -0.1475
     13 C          85.0010   15.7671  -98.3261 C.3       1 UNL1        0.0817
     14 H          85.0581   16.8465  -98.0761 H         1 UNL1        0.0489
     15 H          84.3717   15.6325  -99.2303 H         1 UNL1        0.0489
     16 H          84.5507   15.2142  -97.4762 H         1 UNL1        0.0489
     17 C          85.2372   15.5581 -101.3106 C.3       1 UNL1        0.1208
     18 H          84.3066   15.6226 -100.6974 H         1 UNL1        0.0651
     19 O          85.7294   14.2322 -101.2255 O.3       1 UNL1       -0.3385
     20 C          84.9419   13.3165 -101.9945 C.3       1 UNL1        0.1859
     21 H          85.5008   13.0838 -102.9310 H         1 UNL1        0.0964
     22 C          84.7720   12.0500 -101.2002 C.ar      1 UNL1        0.0079
     23 C          84.0727   12.0748  -99.9803 C.ar      1 UNL1       -0.0538
     24 H          83.6631   13.0030  -99.6036 H         1 UNL1        0.0622
     25 C          83.9054   10.9010  -99.2394 C.ar      1 UNL1       -0.0613
     26 H          83.3721   10.9274  -98.2987 H         1 UNL1        0.0618
     27 C          84.4267    9.6939  -99.7117 C.ar      1 UNL1       -0.0617
     28 H          84.2972    8.7860  -99.1368 H         1 UNL1        0.0618
     29 C          85.1135    9.6578 -100.9281 C.ar      1 UNL1       -0.0613
     30 H          85.5185    8.7224 -101.2922 H         1 UNL1        0.0618
     31 C          85.2845   10.8295 -101.6724 C.ar      1 UNL1       -0.0538
     32 H          85.8202   10.7835 -102.6118 H         1 UNL1        0.0622
     33 O          83.6481   13.8182 -102.3273 O.3       1 UNL1       -0.3445
     34 C          83.7409   14.9576 -103.1739 C.3       1 UNL1        0.0798
     35 H          82.7801   15.5109 -103.1066 H         1 UNL1        0.0588
     36 H          83.8613   14.6313 -104.2302 H         1 UNL1        0.0588
     37 C          84.8949   15.8864 -102.7663 C.3       1 UNL1        0.1138
     38 H          85.7501   15.6402 -103.4386 H         1 UNL1        0.0647
     39 O          84.5521   17.2494 -102.8708 O.3       1 UNL1       -0.3409
     40 C          85.7061   18.0850 -102.7376 C.3       1 UNL1        0.1841
     41 H          86.1616   18.2171 -103.7498 H         1 UNL1        0.0933
     42 O          85.2962   19.3366 -102.2159 O.3       1 UNL1       -0.3523
     43 C          86.3981   20.2137 -102.1184 C.3       1 UNL1        0.0395
     44 H          86.8981   20.3554 -103.1022 H         1 UNL1        0.0525
     45 H          86.0310   21.2056 -101.7832 H         1 UNL1        0.0525
     46 H          87.1275   19.8526 -101.3598 H         1 UNL1        0.0525
     47 C          89.5722   16.4470 -104.2010 C.ar      1 UNL1        0.0360
     48 C          90.6388   17.0249 -104.9170 C.ar      1 UNL1       -0.0495
     49 H          90.7452   18.1011 -104.9780 H         1 UNL1        0.0625
     50 C          91.5698   16.2166 -105.5764 C.ar      1 UNL1       -0.0610
     51 H          92.3836   16.6691 -106.1287 H         1 UNL1        0.0618
     52 C          91.4517   14.8265 -105.5237 C.ar      1 UNL1       -0.0617
     53 H          92.1750   14.2023 -106.0324 H         1 UNL1        0.0618
     54 C          90.4027   14.2415 -104.8105 C.ar      1 UNL1       -0.0610
     55 H          90.3180   13.1636 -104.7629 H         1 UNL1        0.0618
     56 C          89.4671   15.0448 -104.1506 C.ar      1 UNL1       -0.0495
     57 H          88.6809   14.5645 -103.5835 H         1 UNL1        0.0625
@<TRIPOS>BOND
     1    1    2 1
     2    2    3 1
     3    3    4 2
     4    4    5 1
     5    5    6 1
     6    5    7 1
     7    7    8 1
     8    7    9 1
     9    9   10 1
    10   10   11 2
    11   10   12 2
    12   10   13 1
    13   13   14 1
    14   13   15 1
    15   13   16 1
    16    7   17 1
    17   17   18 1
    18   17   19 1
    19   19   20 1
    20   20   21 1
    21   20   22 1
    22   22   23 ar
    23   23   24 1
    24   23   25 ar
    25   25   26 1
    26   25   27 ar
    27   27   28 1
    28   27   29 ar
    29   29   30 1
    30   29   31 ar
    31   31   32 1
    32   20   33 1
    33   33   34 1
    34   34   35 1
    35   34   36 1
    36   34   37 1
    37   37   38 1
    38   37   39 1
    39   39   40 1
    40   40   41 1
    41   40   42 1
    42   42   43 1
    43   43   44 1
    44   43   45 1
    45   43   46 1
    46    3   47 1
    47   47   48 ar
    48   48   49 1
    49   48   50 ar
    50   50   51 1
    51   50   52 ar
    52   52   53 1
    53   52   54 ar
    54   54   55 1
    55   54   56 ar
    56   56   57 1
    57   40    5 1
    58   56   47 ar
    59   37   17 1
    60   31   22 ar
@<TRIPOS>SUBSTRUCTURE
1 UNL1 1
@<TRIPOS>COMMENT
ZINC000257347638
PLANTSproteinTorsions
1
5603 249.2324
PLANTSmolcadARTstart hb
PLANTSmolcadARTstart HB
LINES
88.0752 19.0169 -104.646 87.002 18.985 -106.451 0 255 0 5
PLANTSmolcadARTstart HBCH
LINES
PLANTSmolcadARTstart HB-CHO
LINES
PLANTSmolcadARTend
PLANTSmolcadARTstart HB_WATER
LINES
PLANTSmolcadARTend

PLANTSmolcadARTend

