139SMIN2C.pdbqt
 OpenBabel07062115143D

 33 36  0  0  1  0  0  0  0  0999 V2000
   89.3810   20.9330 -103.0980 C   0  0  2  0  0  0  0  0  0  0  0  0
   89.0630   22.2890 -103.7720 C   0  0  1  0  0  0  0  0  0  0  0  0
   88.3450   23.1870 -102.7460 C   0  0  2  0  0  0  0  0  0  0  0  0
   88.1470   24.4860 -103.2700 O   0  0  0  0  0  0  0  0  0  0  0  0
   87.7010   25.4140 -102.2790 C   0  0  2  0  0  0  0  0  0  0  0  0
   87.2990   24.7990 -101.0620 O   0  0  0  0  0  0  0  0  0  0  0  0
   88.4080   24.1620 -100.4530 C   0  0  0  0  0  0  0  0  0  0  0  0
   89.1590   23.2500 -101.4420 C   0  0  1  0  0  0  0  0  0  0  0  0
   89.3150   21.9540 -100.8940 O   0  0  0  0  0  0  0  0  0  0  0  0
   90.1120   21.1520 -101.7550 C   0  0  1  0  0  0  0  0  0  0  0  0
   86.5370   26.2080 -102.8170 C   0  0  0  0  0  0  0  0  0  0  0  0
   86.7320   27.1020 -103.8860 C   0  0  0  0  0  0  0  0  0  0  0  0
   85.6700   27.8780 -104.3610 C   0  0  0  0  0  0  0  0  0  0  0  0
   84.4070   27.7710 -103.7700 C   0  0  0  0  0  0  0  0  0  0  0  0
   84.2090   26.9070 -102.6890 C   0  0  0  0  0  0  0  0  0  0  0  0
   85.2710   26.1370 -102.2050 C   0  0  0  0  0  0  0  0  0  0  0  0
   89.8200   18.9820 -104.5080 C   0  0  0  0  0  0  0  0  0  0  0  0
   90.2090   20.1010 -103.9730 N   0  0  0  0  0  0  0  0  0  0  0  0
   90.7500   18.2340 -105.3890 C   0  0  0  0  0  0  0  0  0  0  0  0
   91.0830   16.8940 -105.1160 C   0  0  0  0  0  0  0  0  0  0  0  0
   91.9690   16.2000 -105.9450 C   0  0  0  0  0  0  0  0  0  0  0  0
   92.5370   16.8340 -107.0510 C   0  0  0  0  0  0  0  0  0  0  0  0
   92.2230   18.1670 -107.3290 C   0  0  0  0  0  0  0  0  0  0  0  0
   91.3390   18.8660 -106.5020 C   0  0  0  0  0  0  0  0  0  0  0  0
   88.1420   17.7020 -104.7370 H   0  0  0  0  0  0  0  0  0  0  0  0
   88.5320   18.4990 -104.2500 O   0  0  0  0  0  0  0  0  0  0  0  0
   90.3240   19.8880 -101.1540 O   0  0  0  0  0  0  0  0  0  0  0  0
   90.5890   20.0440  -99.7770 C   0  0  0  0  0  0  0  0  0  0  0  0
   90.2710   22.9000 -104.1930 O   0  0  0  0  0  0  0  0  0  0  0  0
   90.4140   22.8700 -105.8880 S   0  0  0  0  0  0  0  0  0  0  0  0
   89.1790   22.2270 -106.4540 O   0  0  0  0  0  0  0  0  0  0  0  0
   91.6100   22.0640 -106.3170 O   0  0  0  0  0  0  0  0  0  0  0  0
   90.5430   24.5180 -106.5450 C   0  0  0  0  0  0  0  0  0  0  0  0
  1 18  1  6  0  0  0
  1 10  1  0  0  0  0
  2 29  1  1  0  0  0
  2  1  1  0  0  0  0
  2  3  1  0  0  0  0
  3  4  1  6  0  0  0
  3  8  1  0  0  0  0
  4  5  1  0  0  0  0
  5 11  1  6  0  0  0
  5  6  1  0  0  0  0
  6  7  1  0  0  0  0
  8  9  1  1  0  0  0
  8  7  1  0  0  0  0
 10 27  1  1  0  0  0
 10  9  1  0  0  0  0
 11 16  2  0  0  0  0
 12 11  1  0  0  0  0
 13 12  2  0  0  0  0
 13 14  1  0  0  0  0
 14 15  2  0  0  0  0
 15 16  1  0  0  0  0
 17 26  1  0  0  0  0
 17 18  2  0  0  0  0
 19 20  1  0  0  0  0
 19 17  1  0  0  0  0
 21 20  2  0  0  0  0
 22 21  1  0  0  0  0
 23 22  2  0  0  0  0
 23 24  1  0  0  0  0
 24 19  2  0  0  0  0
 25 26  1  0  0  0  0
 27 28  1  0  0  0  0
 30 29  1  0  0  0  0
 31 30  2  0  0  0  0
 32 30  2  0  0  0  0
 33 30  1  0  0  0  0
M  END
>  <TORSDO>
F 7

$$$$
