@<TRIPOS>MOLECULE
139VIN2C.pdbqt
 33 36 0 0 0
SMALL
GASTEIGER

@<TRIPOS>ATOM
      1  C         89.3600   20.8250 -104.4810 C.3     1  UNL1        0.0000
      2  C         89.1390   22.3390 -104.7080 C.3     1  UNL1        0.0000
      3  C         88.1840   22.8620 -103.6180 C.3     1  UNL1        0.0000
      4  O         88.0510   24.2680 -103.7010 O.3     1  UNL1        0.0000
      5  C         87.3660   24.8200 -102.5750 C.3     1  UNL1        0.0000
      6  O         86.7380   23.8430 -101.7540 O.3     1  UNL1        0.0000
      7  C         87.7160   22.9990 -101.1740 C.3     1  UNL1        0.0000
      8  C         88.6960   22.4500 -102.2270 C.3     1  UNL1        0.0000
      9  O         88.7830   21.0400 -102.1310 O.3     1  UNL1        0.0000
     10  C         89.7770   20.5490 -103.0200 C.3     1  UNL1        0.0000
     11  C         86.3130   25.7900 -103.0480 C.ar    1  UNL1        0.0000
     12  C         86.4530   26.4220 -104.2990 C.ar    1  UNL1        0.0000
     13  C         85.5080   27.3590 -104.7270 C.ar    1  UNL1        0.0000
     14  C         84.4180   27.6770 -103.9090 C.ar    1  UNL1        0.0000
     15  C         84.2850   27.0760 -102.6530 C.ar    1  UNL1        0.0000
     16  C         85.2330   26.1460 -102.2180 C.ar    1  UNL1        0.0000
     17  C         90.4090   19.1000 -105.8650 C.2     1  UNL1        0.0000
     18  N         90.3880   20.3090 -105.3870 N.2     1  UNL1        0.0000
     19  C         91.5010   18.7010 -106.7850 C.ar    1  UNL1        0.0000
     20  C         91.7820   19.4520 -107.9420 C.ar    1  UNL1        0.0000
     21  C         92.8070   19.0630 -108.8100 C.ar    1  UNL1        0.0000
     22  C         93.5590   17.9190 -108.5380 C.ar    1  UNL1        0.0000
     23  C         93.2850   17.1580 -107.3990 C.ar    1  UNL1        0.0000
     24  C         92.2600   17.5420 -106.5280 C.ar    1  UNL1        0.0000
     25  H         88.9730   17.5690 -106.1770 H       1  UNL1        0.0000
     26  O         89.4040   18.1950 -105.5080 O.2     1  UNL1        0.0000
     27  O         89.9060   19.1500 -102.8510 O.3     1  UNL1        0.0000
     28  C         88.8520   18.6580 -102.0520 C.3     1  UNL1        0.0000
     29  O         90.3840   23.0140 -104.6280 O.3     1  UNL1        0.0000
     30  S         90.7190   23.8530 -106.0690 S.O2    1  UNL1        0.0000
     31  O         90.4700   22.9250 -107.2250 O.2     1  UNL1        0.0000
     32  O         92.1560   24.2980 -106.1150 O.2     1  UNL1        0.0000
     33  C         89.6540   25.2680 -106.2430 C.3     1  UNL1        0.0000
@<TRIPOS>BOND
     1    21    22   ar
     2    21    20   ar
     3    22    23   ar
     4    20    19   ar
     5    23    24   ar
     6    31    30    2
     7    19    24   ar
     8    19    17    1
     9    33    30    1
    10    25    26    1
    11    32    30    2
    12    30    29    1
    13    17    26    1
    14    17    18    2
    15    18     1    1
    16    13    12   ar
    17    13    14   ar
    18     2    29    1
    19     2     1    1
    20     2     3    1
    21     1    10    1
    22    12    11   ar
    23    14    15   ar
    24     4     3    1
    25     4     5    1
    26     3     8    1
    27    11     5    1
    28    11    16   ar
    29    10    27    1
    30    10     9    1
    31    27    28    1
    32    15    16   ar
    33     5     6    1
    34     8     9    1
    35     8     7    1
    36     6     7    1
