@<TRIPOS>MOLECULE
3AD2C.pdbqt
 39 43 0 0 0
SMALL
GASTEIGER

@<TRIPOS>ATOM
      1  C         89.4090   18.1020 -103.9120 C.2     1  UNL1        0.0000
      2  C         90.1090   17.5660 -104.9750 C.2     1  UNL1        0.0000
      3  N         91.0940   18.4380 -105.2510 N.pl3   1  UNL1        0.0000
      4  N         91.0180   19.4420 -104.3920 N.2     1  UNL1        0.0000
      5  N         90.0020   19.2610 -103.5610 N.2     1  UNL1        0.0000
      6  C         87.6320   15.7080 -104.8340 C.3     1  UNL1        0.0000
      7  N         87.5400   16.4420 -103.5700 N.ar    1  UNL1        0.0000
      8  C         88.2710   17.5160 -103.1790 C.ar    1  UNL1        0.0000
      9  N         87.8440   18.0360 -102.0090 N.ar    1  UNL1        0.0000
     10  C         86.8220   17.2430 -101.6310 C.ar    1  UNL1        0.0000
     11  C         86.6320   16.2550 -102.5870 C.ar    1  UNL1        0.0000
     12  C         86.0830   17.4380 -100.3640 C.2     1  UNL1        0.0000
     13  C         85.6080   16.3210  -99.6570 C.2     1  UNL1        0.0000
     14  C         84.8990   16.4880  -98.4630 C.2     1  UNL1        0.0000
     15  C         84.6460   17.7710  -97.9720 C.2     1  UNL1        0.0000
     16  F         83.9570   17.9320  -96.8150 F       1  UNL1        0.0000
     17  C         85.0960   18.8900  -98.6790 C.2     1  UNL1        0.0000
     18  C         85.8050   18.7270  -99.8730 C.2     1  UNL1        0.0000
     19  C         85.5600   15.2350 -102.6070 C.2     1  UNL1        0.0000
     20  C         85.6840   14.0580 -101.8550 C.2     1  UNL1        0.0000
     21  C         84.6650   13.1040 -101.8980 C.2     1  UNL1        0.0000
     22  N         83.5610   13.3180 -102.6640 N.2     1  UNL1        0.0000
     23  C         83.4160   14.4510 -103.4010 C.2     1  UNL1        0.0000
     24  C         84.4110   15.4300 -103.3880 C.2     1  UNL1        0.0000
     25  C         92.1300   18.2870 -106.2760 C.3     1  UNL1        0.0000
     26  C         92.0610   16.8840 -106.9150 C.3     1  UNL1        0.0000
     27  O         93.0650   16.7440 -107.9060 O.3     1  UNL1        0.0000
     28  C         92.8290   17.6300 -108.9890 C.3     1  UNL1        0.0000
     29  C         92.9520   19.1010 -108.5180 C.3     1  UNL1        0.0000
     30  C         91.9670   19.3640 -107.3600 C.3     1  UNL1        0.0000
     31  O         92.2370   15.8990 -105.9330 O.3     1  UNL1        0.0000
     32  H         92.9660   16.2090 -105.3320 H       1  UNL1        0.0000
     33  O         92.6600   19.9690 -109.5840 O.3     1  UNL1        0.0000
     34  H         92.5610   20.8790 -109.1990 H       1  UNL1        0.0000
     35  O         92.2130   20.6270 -106.7960 O.3     1  UNL1        0.0000
     36  H         92.6020   21.1930 -107.5120 H       1  UNL1        0.0000
     37  C         93.8530   17.3080 -110.0910 C.3     1  UNL1        0.0000
     38  O         94.0920   15.9280 -110.1790 O.3     1  UNL1        0.0000
     39  H         93.8420   15.5390 -109.3000 H       1  UNL1        0.0000
@<TRIPOS>BOND
     1    38    37    1
     2    38    39    1
     3    37    28    1
     4    33    34    1
     5    33    29    1
     6    28    29    1
     7    28    27    1
     8    29    30    1
     9    27    26    1
    10    36    35    1
    11    30    35    1
    12    30    25    1
    13    26    25    1
    14    26    31    1
    15    25     3    1
    16    31    32    1
    17     3     2    1
    18     3     4    1
    19     2     1    2
    20     6     7    1
    21     4     5    2
    22     1     5    1
    23     1     8    1
    24     7     8   ar
    25     7    11   ar
    26    23    24    1
    27    23    22    2
    28    24    19    2
    29     8     9   ar
    30    22    21    1
    31    19    11    1
    32    19    20    1
    33    11    10   ar
    34     9    10   ar
    35    21    20    2
    36    10    12    1
    37    12    18    2
    38    12    13    1
    39    18    17    1
    40    13    14    2
    41    17    15    2
    42    14    15    1
    43    15    16    1
