@<TRIPOS>MOLECULE
118707521_entry_00006_conf_01
58 62 1
SMALL
NO_CHARGES


@<TRIPOS>ATOM
      1 C          87.6644   17.3188  -97.9800 C.3       1 UNL1        0.0139
      2 N          88.1548   16.9072  -99.2981 N.ar      1 UNL1       -0.3249
      3 C          88.0863   15.6697  -99.8479 C.ar      1 UNL1        0.1634
      4 C          87.5658   14.4624  -99.1784 C.ar      1 UNL1        0.1477
      5 C          86.5930   13.6203  -99.6652 C.ar      1 UNL1        0.0570
      6 N          86.4304   12.6515  -98.7431 N.ar      1 UNL1       -0.2405
      7 C          85.5810   11.4534  -98.8125 C.3       1 UNL1        0.1330
      8 C          84.4083   11.6150  -99.8279 C.3       1 UNL1        0.1818
      9 O          83.2019   11.7197  -99.1203 O.3       1 UNL1       -0.3652
     10 O          84.3264   10.5008 -100.7023 O.3       1 UNL1       -0.3411
     11 C          85.5041   10.4080 -101.4850 C.3       1 UNL1        0.1130
     12 C          85.2594    9.3793 -102.5999 C.3       1 UNL1        0.0730
     13 O          84.9477    8.1204 -102.0671 O.3       1 UNL1       -0.3924
     14 C          86.7284   10.0152 -100.6048 C.3       1 UNL1        0.1115
     15 O          87.8441   10.7942 -100.9553 O.3       1 UNL1       -0.3865
     16 C          86.4330   10.1946  -99.0976 C.3       1 UNL1        0.1105
     17 O          85.7414    9.0662  -98.6179 O.3       1 UNL1       -0.3868
     18 N          87.2791   12.8837  -97.7536 N.ar      1 UNL1       -0.0645
     19 N          87.9815   13.9831  -97.9881 N.ar      1 UNL1       -0.1264
     20 N          88.5527   15.6360 -101.1143 N.ar      1 UNL1       -0.2252
     21 C          88.9433   16.8998 -101.3716 C.ar      1 UNL1        0.0974
     22 C          89.5348   17.3072 -102.6648 C.ar      1 UNL1        0.0026
     23 C          89.6044   18.6602 -103.0428 C.ar      1 UNL1       -0.0498
     24 C          90.1679   19.0223 -104.2706 C.ar      1 UNL1       -0.0258
     25 C          90.6802   18.0417 -105.1238 C.ar      1 UNL1        0.1234
     26 F          91.2273   18.3954 -106.3129 F         1 UNL1       -0.2055
     27 C          90.6351   16.6968 -104.7470 C.ar      1 UNL1       -0.0258
     28 C          90.0704   16.3301 -103.5212 C.ar      1 UNL1       -0.0498
     29 C          88.7038   17.6888 -100.2549 C.ar      1 UNL1        0.0768
     30 C          88.9133   19.1477 -100.1448 C.ar      1 UNL1        0.0035
     31 C          87.8261   20.0060  -99.9270 C.ar      1 UNL1       -0.0344
     32 C          88.0433   21.3836  -99.8502 C.ar      1 UNL1        0.0282
     33 N          89.2995   21.8845  -99.9867 N.ar      1 UNL1       -0.2632
     34 C          90.3700   21.0749 -100.2025 C.ar      1 UNL1        0.0282
     35 C          90.1970   19.6914 -100.2884 C.ar      1 UNL1       -0.0344
     36 H          86.6088   17.0002  -97.8550 H         1 UNL1        0.0456
     37 H          87.6875   18.4193  -97.8600 H         1 UNL1        0.0456
     38 H          88.2917   16.8585  -97.1876 H         1 UNL1        0.0456
     39 H          86.0655   13.7043 -100.6048 H         1 UNL1        0.0850
     40 H          85.1420   11.3109  -97.7984 H         1 UNL1        0.0623
     41 H          84.5218   12.5502 -100.4225 H         1 UNL1        0.0931
     42 H          83.3448   12.4048  -98.4157 H         1 UNL1        0.2125
     43 H          85.6986   11.3817 -101.9946 H         1 UNL1        0.0647
     44 H          86.1627    9.3034 -103.2468 H         1 UNL1        0.0584
     45 H          84.4172    9.7159 -103.2411 H         1 UNL1        0.0584
     46 H          84.0243    8.1825 -101.7095 H         1 UNL1        0.2095
     47 H          86.9879    8.9400 -100.7587 H         1 UNL1        0.0647
     48 H          87.6294   11.2362 -101.8178 H         1 UNL1        0.2100
     49 H          87.3969   10.2858  -98.5410 H         1 UNL1        0.0643
     50 H          84.9025    9.3956  -98.1997 H         1 UNL1        0.2100
     51 H          89.2447   19.4393 -102.3838 H         1 UNL1        0.0625
     52 H          90.2150   20.0656 -104.5550 H         1 UNL1        0.0646
     53 H          91.0365   15.9367 -105.4047 H         1 UNL1        0.0646
     54 H          90.0385   15.2824 -103.2479 H         1 UNL1        0.0625
     55 H          86.8235   19.6126  -99.8150 H         1 UNL1        0.0639
     56 H          87.2125   22.0545  -99.6802 H         1 UNL1        0.0830
     57 H          91.3562   21.5055 -100.3105 H         1 UNL1        0.0830
     58 H          91.0521   19.0520 -100.4725 H         1 UNL1        0.0639
@<TRIPOS>BOND
     1    1    2 1
     2    2    3 ar
     3    3    4 1
     4    4    5 ar
     5    5    6 ar
     6    6    7 1
     7    7    8 1
     8    8    9 1
     9    8   10 1
    10   10   11 1
    11   11   12 1
    12   12   13 1
    13   11   14 1
    14   14   15 1
    15   14   16 1
    16   16   17 1
    17    6   18 ar
    18   18   19 ar
    19    3   20 ar
    20   20   21 ar
    21   21   22 1
    22   22   23 ar
    23   23   24 ar
    24   24   25 ar
    25   25   26 1
    26   25   27 ar
    27   27   28 ar
    28   21   29 ar
    29   29   30 1
    30   30   31 ar
    31   31   32 ar
    32   32   33 ar
    33   33   34 ar
    34   34   35 ar
    35   29    2 ar
    36   35   30 ar
    37   19    4 ar
    38   28   22 ar
    39   16    7 1
    40    1   36 1
    41    1   37 1
    42    1   38 1
    43    5   39 1
    44    7   40 1
    45    8   41 1
    46    9   42 1
    47   11   43 1
    48   12   44 1
    49   12   45 1
    50   13   46 1
    51   14   47 1
    52   15   48 1
    53   16   49 1
    54   17   50 1
    55   23   51 1
    56   24   52 1
    57   27   53 1
    58   28   54 1
    59   31   55 1
    60   32   56 1
    61   34   57 1
    62   35   58 1
@<TRIPOS>SUBSTRUCTURE
1 UNL1 1
@<TRIPOS>COMMENT
118707521
PLANTSproteinTorsions
1
5603 294.6691
PLANTSmolcadARTstart hb
PLANTSmolcadARTstart HB
LINES
83.3448 12.4048 -98.4157 83.738 13.004 -96.484 0 255 0 5
87.6294 11.2362 -101.818 87.564 11.946 -103.544 0 255 0 5
PLANTSmolcadARTstart HBCH
LINES
PLANTSmolcadARTstart HB-CHO
LINES
PLANTSmolcadARTend
PLANTSmolcadARTstart HB_WATER
LINES
PLANTSmolcadARTend

PLANTSmolcadARTend

