3SMIN2C.pdbqt
 OpenBabel07062115143D

 39 43  0  0  1  0  0  0  0  0999 V2000
   85.2300   17.3640  -98.3500 C   0  0  0  0  0  0  0  0  0  0  0  0
   84.8020   17.7010  -99.6130 C   0  0  0  0  0  0  0  0  0  0  0  0
   84.5960   16.5420 -100.2680 N   0  0  0  0  0  0  0  0  0  0  0  0
   84.9020   15.5490  -99.4480 N   0  0  0  0  0  0  0  0  0  0  0  0
   85.2880   16.0190  -98.2690 N   0  0  0  0  0  0  0  0  0  0  0  0
   87.9560   18.7940  -98.0010 C   0  0  0  0  0  0  0  0  0  0  0  0
   86.7730   18.9520  -97.1520 N   0  0  0  0  0  0  0  0  0  0  0  0
   85.5860   18.3070  -97.2720 C   0  0  0  0  0  0  0  0  0  0  0  0
   84.7250   18.6120  -96.2790 N   0  0  0  0  0  0  0  0  0  0  0  0
   85.3880   19.4940  -95.5070 C   0  0  0  0  0  0  0  0  0  0  0  0
   86.6500   19.7120  -96.0400 C   0  0  0  0  0  0  0  0  0  0  0  0
   84.7930   20.1020  -94.2960 C   0  0  0  0  0  0  0  0  0  0  0  0
   84.5210   21.4810  -94.2280 C   0  0  0  0  0  0  0  0  0  0  0  0
   83.9590   22.0350  -93.0740 C   0  0  0  0  0  0  0  0  0  0  0  0
   83.6480   21.2180  -91.9840 C   0  0  0  0  0  0  0  0  0  0  0  0
   83.1030   21.7570  -90.8660 F   0  0  0  0  0  0  0  0  0  0  0  0
   83.8950   19.8440  -92.0490 C   0  0  0  0  0  0  0  0  0  0  0  0
   84.4590   19.2870  -93.2020 C   0  0  0  0  0  0  0  0  0  0  0  0
   87.7220   20.5460  -95.4570 C   0  0  0  0  0  0  0  0  0  0  0  0
   88.6220   19.9990  -94.5310 C   0  0  0  0  0  0  0  0  0  0  0  0
   89.6130   20.8120  -93.9760 C   0  0  0  0  0  0  0  0  0  0  0  0
   89.6990   22.1210  -94.3300 N   0  0  0  0  0  0  0  0  0  0  0  0
   88.8370   22.6760  -95.2210 C   0  0  0  0  0  0  0  0  0  0  0  0
   87.8300   21.9010  -95.8000 C   0  0  0  0  0  0  0  0  0  0  0  0
   84.2240   16.3380 -101.6770 C   0  0  1  0  0  0  0  0  0  0  0  0
   84.6800   17.5190 -102.5880 C   0  0  1  0  0  0  0  0  0  0  0  0
   85.3610   17.0470 -103.7400 O   0  0  0  0  0  0  0  0  0  0  0  0
   86.5480   16.3710 -103.3620 C   0  0  1  0  0  0  0  0  0  0  0  0
   86.2180   15.0330 -102.6340 C   0  0  2  0  0  0  0  0  0  0  0  0
   84.7400   14.9720 -102.1860 C   0  0  2  0  0  0  0  0  0  0  0  0
   83.5510   18.2410 -102.9980 O   0  0  0  0  0  0  0  0  0  0  0  0
   83.8860   19.0300 -103.5000 H   0  0  0  0  0  0  0  0  0  0  0  0
   87.0510   14.8780 -101.5130 O   0  0  0  0  0  0  0  0  0  0  0  0
   87.9400   14.5930 -101.8490 H   0  0  0  0  0  0  0  0  0  0  0  0
   83.9380   14.5650 -103.2690 O   0  0  0  0  0  0  0  0  0  0  0  0
   84.0460   13.5820 -103.3570 H   0  0  0  0  0  0  0  0  0  0  0  0
   87.3860   16.1310 -104.6280 C   0  0  0  0  0  0  0  0  0  0  0  0
   86.6520   15.4290 -105.5930 O   0  0  0  0  0  0  0  0  0  0  0  0
   86.5790   14.4930 -105.2720 H   0  0  0  0  0  0  0  0  0  0  0  0
  1  5  1  0  0  0  0
  1  8  1  0  0  0  0
  2  1  2  0  0  0  0
  3  2  1  0  0  0  0
  3  4  1  0  0  0  0
  4  5  2  0  0  0  0
  6  7  1  0  0  0  0
  7 11  1  0  0  0  0
  8  7  1  0  0  0  0
  8  9  2  0  0  0  0
  9 10  1  0  0  0  0
 10 12  1  0  0  0  0
 11 10  2  0  0  0  0
 11 19  1  0  0  0  0
 12 13  2  0  0  0  0
 12 18  1  0  0  0  0
 13 14  1  0  0  0  0
 14 15  2  0  0  0  0
 15 16  1  0  0  0  0
 17 15  1  0  0  0  0
 18 17  2  0  0  0  0
 19 20  1  0  0  0  0
 20 21  2  0  0  0  0
 22 21  1  0  0  0  0
 23 22  2  0  0  0  0
 24 19  2  0  0  0  0
 24 23  1  0  0  0  0
 25  3  1  1  0  0  0
 26 31  1  6  0  0  0
 26 25  1  0  0  0  0
 27 28  1  0  0  0  0
 27 26  1  0  0  0  0
 28 37  1  6  0  0  0
 28 29  1  0  0  0  0
 29 30  1  0  0  0  0
 29 33  1  1  0  0  0
 30 35  1  6  0  0  0
 30 25  1  0  0  0  0
 32 31  1  0  0  0  0
 34 33  1  0  0  0  0
 36 35  1  0  0  0  0
 38 39  1  0  0  0  0
 38 37  1  0  0  0  0
M  END
>  <TORSDO>
F 9

$$$$
