@<TRIPOS>MOLECULE
3VIN2C.pdbqt
 39 43 0 0 0
SMALL
GASTEIGER

@<TRIPOS>ATOM
      1  C         87.2270   20.8590 -101.7330 C.ar    1  UNL1        0.0000
      2  C         86.9360   19.6870 -102.4030 C.ar    1  UNL1        0.0000
      3  N         86.6460   18.7770 -101.4560 N.ar    1  UNL1        0.0000
      4  N         86.7310   19.3630 -100.2720 N.ar    1  UNL1        0.0000
      5  N         87.0800   20.6340 -100.4110 N.ar    1  UNL1        0.0000
      6  C         90.0340   22.2210 -101.8170 C.3     1  UNL1        0.0000
      7  N         88.7830   22.7380 -102.3760 N.ar    1  UNL1        0.0000
      8  C         87.5480   22.1810 -102.3020 C.ar    1  UNL1        0.0000
      9  N         86.5870   22.9820 -102.8080 N.ar    1  UNL1        0.0000
     10  C         87.2420   24.0750 -103.2470 C.ar    1  UNL1        0.0000
     11  C         88.5980   23.9290 -102.9870 C.ar    1  UNL1        0.0000
     12  C         86.5590   25.2030 -103.9180 C.ar    1  UNL1        0.0000
     13  C         85.8860   26.1640 -103.1470 C.ar    1  UNL1        0.0000
     14  C         85.2260   27.2310 -103.7650 C.ar    1  UNL1        0.0000
     15  C         85.2220   27.3400 -105.1580 C.ar    1  UNL1        0.0000
     16  F         84.5810   28.3740 -105.7570 F       1  UNL1        0.0000
     17  C         85.8710   26.3760 -105.9350 C.ar    1  UNL1        0.0000
     18  C         86.5310   25.3080 -105.3200 C.ar    1  UNL1        0.0000
     19  C         89.6580   24.9340 -103.2230 C.ar    1  UNL1        0.0000
     20  C         90.3800   24.9350 -104.4260 C.ar    1  UNL1        0.0000
     21  C         91.3850   25.8850 -104.6230 C.ar    1  UNL1        0.0000
     22  N         91.6580   26.8000 -103.6550 N.ar    1  UNL1        0.0000
     23  C         90.9730   26.8210 -102.4800 C.ar    1  UNL1        0.0000
     24  C         89.9610   25.8880 -102.2420 C.ar    1  UNL1        0.0000
     25  C         86.2330   17.3900 -101.6780 C.3     1  UNL1        0.0000
     26  C         84.7260   17.2200 -101.3910 C.3     1  UNL1        0.0000
     27  O         84.3310   15.8750 -101.6060 O.3     1  UNL1        0.0000
     28  C         84.4630   15.5270 -102.9750 C.3     1  UNL1        0.0000
     29  C         85.9540   15.5660 -103.3990 C.3     1  UNL1        0.0000
     30  C         86.5390   16.9660 -103.1230 C.3     1  UNL1        0.0000
     31  O         84.4460   17.5780 -100.0630 O.3     1  UNL1        0.0000
     32  H         83.7160   18.2520 -100.0880 H       1  UNL1        0.0000
     33  O         86.0670   15.2770 -104.7700 O.3     1  UNL1        0.0000
     34  H         85.3880   14.5810 -104.9760 H       1  UNL1        0.0000
     35  O         87.9310   16.9530 -103.3130 O.3     1  UNL1        0.0000
     36  H         88.2600   16.0770 -102.9810 H       1  UNL1        0.0000
     37  C         83.8650   14.1220 -103.1620 C.3     1  UNL1        0.0000
     38  O         84.8700   13.1480 -103.2590 O.3     1  UNL1        0.0000
     39  H         85.5090   13.4650 -103.9510 H       1  UNL1        0.0000
@<TRIPOS>BOND
     1    17    18   ar
     2    17    15   ar
     3    16    15    1
     4    18    12   ar
     5    15    14   ar
     6    34    33    1
     7    33    29    1
     8    21    20   ar
     9    21    22   ar
    10    20    19   ar
    11    39    38    1
    12    12    10    1
    13    12    13   ar
    14    14    13   ar
    15    22    23   ar
    16    29    30    1
    17    29    28    1
    18    35    30    1
    19    35    36    1
    20    38    37    1
    21    10    11   ar
    22    10     9   ar
    23    19    11    1
    24    19    24   ar
    25    37    28    1
    26    30    25    1
    27    11     7   ar
    28    28    27    1
    29     9     8   ar
    30    23    24   ar
    31     2     1   ar
    32     2     3   ar
    33     7     8   ar
    34     7     6    1
    35     8     1    1
    36     1     5   ar
    37    25     3    1
    38    25    26    1
    39    27    26    1
    40     3     4   ar
    41    26    31    1
    42     5     4   ar
    43    32    31    1
