@<TRIPOS>MOLECULE
6AD2C.pdbqt
 39 43 0 0 0
SMALL
GASTEIGER

@<TRIPOS>ATOM
      1  C         90.6960   21.9710 -105.8560 C.ar    1  UNL1        0.0000
      2  C         89.4570   22.5320 -106.0800 C.ar    1  UNL1        0.0000
      3  N         89.5840   23.8430 -105.8000 N.ar    1  UNL1        0.0000
      4  N         90.8320   24.0720 -105.4280 N.ar    1  UNL1        0.0000
      5  N         91.5340   22.9480 -105.4530 N.ar    1  UNL1        0.0000
      6  C         89.5420   19.5870 -104.2580 C.3     1  UNL1        0.0000
      7  N         90.5720   19.5220 -105.2970 N.ar    1  UNL1        0.0000
      8  C         91.0560   20.5510 -106.0340 C.ar    1  UNL1        0.0000
      9  N         91.9200   20.1470 -106.9890 N.ar    1  UNL1        0.0000
     10  C         91.9920   18.8100 -106.8440 C.ar    1  UNL1        0.0000
     11  C         91.1660   18.4160 -105.8010 C.ar    1  UNL1        0.0000
     12  C         92.8420   17.9540 -107.6990 C.ar    1  UNL1        0.0000
     13  C         94.0860   17.4800 -107.2450 C.ar    1  UNL1        0.0000
     14  C         94.8790   16.6750 -108.0700 C.ar    1  UNL1        0.0000
     15  C         94.4380   16.3400 -109.3530 C.ar    1  UNL1        0.0000
     16  F         95.2070   15.5590 -110.1530 F       1  UNL1        0.0000
     17  C         93.2100   16.8200 -109.8190 C.ar    1  UNL1        0.0000
     18  C         92.4190   17.6300 -108.9990 C.ar    1  UNL1        0.0000
     19  C         90.8910   17.0300 -105.3710 C.ar    1  UNL1        0.0000
     20  C         91.7810   15.9970 -105.6960 C.ar    1  UNL1        0.0000
     21  C         91.4920   14.6920 -105.2960 C.ar    1  UNL1        0.0000
     22  N         90.3540   14.4280 -104.5980 N.ar    1  UNL1        0.0000
     23  C         89.4730   15.4110 -104.2720 C.ar    1  UNL1        0.0000
     24  C         89.7220   16.7310 -104.6570 C.ar    1  UNL1        0.0000
     25  C         88.5540   24.8830 -105.9020 C.3     1  UNL1        0.0000
     26  C         87.8490   24.8560 -107.2850 C.3     1  UNL1        0.0000
     27  O         86.7270   23.9900 -107.2510 O.3     1  UNL1        0.0000
     28  C         85.6710   24.5080 -106.4450 C.3     1  UNL1        0.0000
     29  C         86.1610   25.2840 -105.1800 C.3     1  UNL1        0.0000
     30  C         87.5370   24.7530 -104.7400 C.3     1  UNL1        0.0000
     31  O         88.7410   24.4230 -108.2780 O.3     1  UNL1        0.0000
     32  H         89.6210   24.3110 -107.8350 H       1  UNL1        0.0000
     33  O         85.2220   25.1950 -104.1350 O.3     1  UNL1        0.0000
     34  H         85.7170   25.2400 -103.2760 H       1  UNL1        0.0000
     35  O         88.0060   25.4740 -103.6290 O.3     1  UNL1        0.0000
     36  H         87.2080   25.8430 -103.1650 H       1  UNL1        0.0000
     37  C         84.7090   25.3490 -107.3060 C.3     1  UNL1        0.0000
     38  O         84.1040   24.5580 -108.2940 O.3     1  UNL1        0.0000
     39  H         83.9620   23.6620 -107.8900 H       1  UNL1        0.0000
@<TRIPOS>BOND
     1    16    15    1
     2    17    15   ar
     3    17    18   ar
     4    15    14   ar
     5    18    12   ar
     6    38    39    1
     7    38    37    1
     8    31    32    1
     9    31    26    1
    10    14    13   ar
    11    12    13   ar
    12    12    10    1
    13    37    28    1
    14    26    27    1
    15    26    25    1
    16    27    28    1
    17     9    10   ar
    18     9     8   ar
    19    10    11   ar
    20    28    29    1
    21     2     1   ar
    22     2     3   ar
    23     8     1    1
    24     8     7   ar
    25    25     3    1
    26    25    30    1
    27     1     5   ar
    28    11    19    1
    29    11     7   ar
    30     3     4   ar
    31    20    19   ar
    32    20    21   ar
    33     5     4   ar
    34    19    24   ar
    35     7     6    1
    36    21    22   ar
    37    29    30    1
    38    29    33    1
    39    30    35    1
    40    24    23   ar
    41    22    23   ar
    42    33    34    1
    43    35    36    1
