6SMIN2C.pdbqt
 OpenBabel07062115143D

 39 43  0  0  1  0  0  0  0  0999 V2000
   90.2280   21.1250 -104.8610 C   0  0  0  0  0  0  0  0  0  0  0  0
   90.1950   19.7760 -105.1460 C   0  0  0  0  0  0  0  0  0  0  0  0
   91.1500   19.5670 -106.0720 N   0  0  0  0  0  0  0  0  0  0  0  0
   91.7360   20.7230 -106.3370 N   0  0  0  0  0  0  0  0  0  0  0  0
   91.1940   21.6910 -105.6120 N   0  0  0  0  0  0  0  0  0  0  0  0
   90.0520   20.5610 -101.8240 C   0  0  0  0  0  0  0  0  0  0  0  0
   89.2690   21.5470 -102.5730 N   0  0  0  0  0  0  0  0  0  0  0  0
   89.3660   21.8330 -103.8940 C   0  0  0  0  0  0  0  0  0  0  0  0
   88.5830   22.8700 -104.2610 N   0  0  0  0  0  0  0  0  0  0  0  0
   87.9610   23.2480 -103.1290 C   0  0  0  0  0  0  0  0  0  0  0  0
   88.3750   22.4360 -102.0840 C   0  0  0  0  0  0  0  0  0  0  0  0
   86.9940   24.3660 -103.0770 C   0  0  0  0  0  0  0  0  0  0  0  0
   86.7020   25.0200 -101.8660 C   0  0  0  0  0  0  0  0  0  0  0  0
   85.7800   26.0720 -101.8370 C   0  0  0  0  0  0  0  0  0  0  0  0
   85.1410   26.4760 -103.0130 C   0  0  0  0  0  0  0  0  0  0  0  0
   84.2480   27.4960 -102.9830 F   0  0  0  0  0  0  0  0  0  0  0  0
   85.4130   25.8210 -104.2180 C   0  0  0  0  0  0  0  0  0  0  0  0
   86.3290   24.7640 -104.2490 C   0  0  0  0  0  0  0  0  0  0  0  0
   87.9980   22.5690 -100.6610 C   0  0  0  0  0  0  0  0  0  0  0  0
   86.8260   21.9700 -100.1800 C   0  0  0  0  0  0  0  0  0  0  0  0
   86.4790   22.1250  -98.8370 C   0  0  0  0  0  0  0  0  0  0  0  0
   87.2740   22.8530  -98.0060 N   0  0  0  0  0  0  0  0  0  0  0  0
   88.4150   23.4460  -98.4490 C   0  0  0  0  0  0  0  0  0  0  0  0
   88.7970   23.3190  -99.7860 C   0  0  0  0  0  0  0  0  0  0  0  0
   91.5330   18.2920 -106.6890 C   0  0  1  0  0  0  0  0  0  0  0  0
   91.3780   18.3350 -108.2330 C   0  0  2  0  0  0  0  0  0  0  0  0
   92.5760   18.7910 -108.8370 O   0  0  0  0  0  0  0  0  0  0  0  0
   93.6340   17.8420 -108.7210 C   0  0  1  0  0  0  0  0  0  0  0  0
   93.6310   17.0520 -107.3730 C   0  0  2  0  0  0  0  0  0  0  0  0
   92.9730   17.9010 -106.2700 C   0  0  2  0  0  0  0  0  0  0  0  0
   90.3220   19.1860 -108.5930 O   0  0  0  0  0  0  0  0  0  0  0  0
   90.2200   19.1050 -109.5760 H   0  0  0  0  0  0  0  0  0  0  0  0
   94.9360   16.6670 -107.0080 O   0  0  0  0  0  0  0  0  0  0  0  0
   95.4650   17.4910 -106.8530 H   0  0  0  0  0  0  0  0  0  0  0  0
   92.9260   17.1820 -105.0640 O   0  0  0  0  0  0  0  0  0  0  0  0
   93.8240   17.2620 -104.6440 H   0  0  0  0  0  0  0  0  0  0  0  0
   93.6430   16.9050 -109.9430 C   0  0  0  0  0  0  0  0  0  0  0  0
   94.4910   15.8080 -109.7250 O   0  0  0  0  0  0  0  0  0  0  0  0
   95.4200   16.1520 -109.7930 H   0  0  0  0  0  0  0  0  0  0  0  0
  1  8  1  0  0  0  0
  2  1  2  0  0  0  0
  3  2  1  0  0  0  0
  4  3  1  0  0  0  0
  4  5  2  0  0  0  0
  5  1  1  0  0  0  0
  7 11  1  0  0  0  0
  7  6  1  0  0  0  0
  8  7  1  0  0  0  0
  9  8  2  0  0  0  0
  9 10  1  0  0  0  0
 10 12  1  0  0  0  0
 10 11  2  0  0  0  0
 11 19  1  0  0  0  0
 12 13  2  0  0  0  0
 13 14  1  0  0  0  0
 15 16  1  0  0  0  0
 15 14  2  0  0  0  0
 17 15  1  0  0  0  0
 18 17  2  0  0  0  0
 18 12  1  0  0  0  0
 19 20  2  0  0  0  0
 19 24  1  0  0  0  0
 20 21  1  0  0  0  0
 21 22  2  0  0  0  0
 23 22  1  0  0  0  0
 24 23  2  0  0  0  0
 25 30  1  0  0  0  0
 25  3  1  1  0  0  0
 26 31  1  1  0  0  0
 26 25  1  0  0  0  0
 27 28  1  0  0  0  0
 27 26  1  0  0  0  0
 28 37  1  6  0  0  0
 28 29  1  0  0  0  0
 29 33  1  1  0  0  0
 29 30  1  0  0  0  0
 30 35  1  1  0  0  0
 32 31  1  0  0  0  0
 33 34  1  0  0  0  0
 35 36  1  0  0  0  0
 37 38  1  0  0  0  0
 39 38  1  0  0  0  0
M  END
>  <TORSDO>
F 9

$$$$
