@<TRIPOS>MOLECULE
6VIN2C.pdbqt
 39 43 0 0 0
SMALL
GASTEIGER

@<TRIPOS>ATOM
      1  C         87.4770   21.1970 -102.7310 C.ar    1  UNL1        0.0000
      2  C         86.5370   20.3930 -102.1220 C.ar    1  UNL1        0.0000
      3  N         86.8840   19.1280 -102.4080 N.ar    1  UNL1        0.0000
      4  N         87.9700   19.1530 -103.1660 N.ar    1  UNL1        0.0000
      5  N         88.3550   20.4040 -103.3770 N.ar    1  UNL1        0.0000
      6  C         89.7140   22.9760 -101.5330 C.3     1  UNL1        0.0000
      7  N         88.5060   23.4370 -102.2200 N.ar    1  UNL1        0.0000
      8  C         87.5020   22.6730 -102.7160 C.ar    1  UNL1        0.0000
      9  N         86.4890   23.4080 -103.2230 N.ar    1  UNL1        0.0000
     10  C         86.8760   24.6890 -103.0550 C.ar    1  UNL1        0.0000
     11  C         88.1200   24.7140 -102.4400 C.ar    1  UNL1        0.0000
     12  C         86.0590   25.8380 -103.5040 C.ar    1  UNL1        0.0000
     13  C         85.1250   26.4110 -102.6260 C.ar    1  UNL1        0.0000
     14  C         84.3380   27.4910 -103.0360 C.ar    1  UNL1        0.0000
     15  C         84.4680   28.0010 -104.3310 C.ar    1  UNL1        0.0000
     16  F         83.7040   29.0480 -104.7280 F       1  UNL1        0.0000
     17  C         85.3800   27.4230 -105.2200 C.ar    1  UNL1        0.0000
     18  C         86.1680   26.3430 -104.8130 C.ar    1  UNL1        0.0000
     19  C         88.8670   25.9140 -102.0080 C.ar    1  UNL1        0.0000
     20  C         89.8250   26.4950 -102.8510 C.ar    1  UNL1        0.0000
     21  C         90.5350   27.6150 -102.4160 C.ar    1  UNL1        0.0000
     22  N         90.2980   28.1350 -101.1820 N.ar    1  UNL1        0.0000
     23  C         89.3790   27.5910 -100.3430 C.ar    1  UNL1        0.0000
     24  C         88.6460   26.4680 -100.7390 C.ar    1  UNL1        0.0000
     25  C         86.1510   17.9170 -102.0260 C.3     1  UNL1        0.0000
     26  C         84.9800   17.6620 -102.9930 C.3     1  UNL1        0.0000
     27  O         84.2720   16.4860 -102.6330 O.3     1  UNL1        0.0000
     28  C         85.0910   15.3270 -102.7160 C.3     1  UNL1        0.0000
     29  C         86.2680   15.4140 -101.7110 C.3     1  UNL1        0.0000
     30  C         87.0840   16.6930 -101.9830 C.3     1  UNL1        0.0000
     31  O         85.4250   17.5990 -104.3270 O.3     1  UNL1        0.0000
     32  H         84.7640   18.1060 -104.8660 H       1  UNL1        0.0000
     33  O         87.1000   14.2900 -101.8500 O.3     1  UNL1        0.0000
     34  H         87.0380   13.7800 -101.0010 H       1  UNL1        0.0000
     35  O         88.0900   16.8640 -101.0150 O.3     1  UNL1        0.0000
     36  H         88.3790   17.8140 -101.0450 H       1  UNL1        0.0000
     37  C         84.2030   14.1060 -102.4310 C.3     1  UNL1        0.0000
     38  O         84.8680   12.9230 -102.7810 O.3     1  UNL1        0.0000
     39  H         85.5550   13.1810 -103.4490 H       1  UNL1        0.0000
@<TRIPOS>BOND
     1    17    18   ar
     2    17    15   ar
     3    32    31    1
     4    18    12   ar
     5    16    15    1
     6    15    14   ar
     7    31    26    1
     8    12    10    1
     9    12    13   ar
    10    39    38    1
    11     5     4   ar
    12     5     1   ar
    13     9    10   ar
    14     9     8   ar
    15     4     3   ar
    16    10    11   ar
    17    14    13   ar
    18    26    27    1
    19    26    25    1
    20    20    21   ar
    21    20    19   ar
    22    38    37    1
    23     1     8    1
    24     1     2   ar
    25     8     7   ar
    26    28    27    1
    27    28    37    1
    28    28    29    1
    29    11     7   ar
    30    11    19    1
    31    21    22   ar
    32     3     2   ar
    33     3    25    1
    34     7     6    1
    35    25    30    1
    36    19    24   ar
    37    30    29    1
    38    30    35    1
    39    33    29    1
    40    33    34    1
    41    22    23   ar
    42    36    35    1
    43    24    23   ar
