# created with PyMOL 2.3.3
@<TRIPOS>MOLECULE
Lig_5hex
33 35 1                 
SMALL
USER_CHARGES
@<TRIPOS>ATOM
1	  C1	85.223	17.563	-101.992	C.3	1	6041002	0.000	
2	 C1A	89.020	22.448	-104.568	C.2	1	6041002	0.000	
3	  O1	84.016	17.972	-102.619	O.3	1	6041002	0.000	
4	  C2	86.394	17.772	-102.931	C.3	1	6041002	0.000	
5	 C2A	88.554	21.250	-104.063	C.2	1	6041002	0.000	
6	  N2	86.600	19.155	-103.258	N.pl3	1	6041002	0.000	
7	  C3	86.176	16.990	-104.201	C.3	1	6041002	0.000	
8	 C3A	88.650	23.622	-103.948	C.2	1	6041002	0.000	
9	  O3	87.382	17.037	-104.925	O.3	1	6041002	0.000	
10	  C4	85.859	15.550	-103.886	C.3	1	6041002	0.000	
11	 C4A	87.364	22.407	-102.332	C.2	1	6041002	0.000	
12	  O4	85.447	14.938	-105.097	O.3	1	6041002	0.000	
13	  C5	84.707	15.567	-102.912	C.3	1	6041002	0.000	
14	 C5A	83.907	10.872	-99.511	C.2	1	6041002	0.000	
15	  O5	85.160	16.174	-101.713	O.3	1	6041002	0.000	
16	  C6	84.103	14.215	-102.608	C.3	1	6041002	0.000	
17	 C6A	87.731	21.242	-102.953	C.2	1	6041002	0.000	
18	  C7	83.543	9.536	-99.791	C.2	1	6041002	0.000	
19	  C8	87.828	23.595	-102.837	C.2	1	6041002	0.000	
20	  C9	84.185	9.168	-100.949	C.2	1	6041002	0.000	
21	 C10	84.759	11.257	-100.522	C.2	1	6041002	0.000	
22	 C11	87.216	19.995	-102.372	C.2	1	6041002	0.000	
23	 C12	82.586	8.687	-98.939	C.2	1	6041002	0.000	
24	 C18	84.210	7.932	-101.743	C.3	1	6041002	0.000	
25	 N21	85.161	13.230	-102.391	N.3	1	6041002	0.000	
26	 O22	82.352	7.524	-99.397	O.co2	1	6041002	0.000	
27	 O23	87.366	19.793	-101.177	O.2	1	6041002	0.000	
28	 O24	82.126	9.247	-97.897	O.co2	1	6041002	0.000	
29	 O25	85.012	13.699	-99.810	O.2	1	6041002	0.000	
30	 O26	86.958	12.386	-100.775	O.2	1	6041002	0.000	
31	 O27	84.932	10.218	-101.392	O.2	1	6041002	0.000	
32	 S32	85.566	12.778	-100.789	S.O2	1	6041002	0.000	
33	  BR	87.289	25.181	-101.944	Br	1	6041002	0.000	
@<TRIPOS>BOND
1 1 3 1
2 1 15 1
3 2 5 ar
4 2 8 ar
5 1 4 1
6 4 6 1
7 4 7 1
8 5 17 ar
9 7 9 1
10 7 10 1
11 8 19 ar
12 10 12 1
13 10 13 1
14 11 17 ar
15 11 19 ar
16 13 15 1
17 13 16 1
18 14 18 ar
19 14 21 ar
20 16 25 1
21 17 22 1
22 18 20 ar
23 18 23 1
24 19 33 1
25 20 24 1
26 20 31 ar
27 21 31 ar
28 21 32 1
29 6 22 1
30 22 27 2
31 23 26 ar
32 23 28 ar
33 25 32 1
34 29 32 2
35 30 32 2
@<TRIPOS>SUBSTRUCTURE
1	6041002	1	GROUP	1 A	604
