# created with PyMOL 2.3.3
@<TRIPOS>MOLECULE
Lig_5hfu
37 40 1                 
SMALL
USER_CHARGES
@<TRIPOS>ATOM
1	  C1	87.866	17.032	-99.220	C.1	1	6031002	0.000	
2	  C2	88.719	24.450	-107.017	C.2	1	6031002	0.000	
3	  C3	87.528	24.981	-106.575	C.2	1	6031002	0.000	
4	  C4	89.356	23.448	-106.318	C.2	1	6031002	0.000	
5	  C5	86.002	23.389	-101.372	C.2	1	6031002	0.000	
6	  C6	85.749	15.864	-98.957	C.2	1	6031002	0.000	
7	  C7	87.377	15.068	-100.526	C.2	1	6031002	0.000	
8	  C8	86.973	24.500	-105.416	C.2	1	6031002	0.000	
9	  C9	88.793	22.973	-105.159	C.2	1	6031002	0.000	
10	 C10	86.568	23.865	-102.531	C.2	1	6031002	0.000	
11	 C11	85.878	22.033	-101.176	C.2	1	6031002	0.000	
12	 C12	84.881	14.848	-99.297	C.2	1	6031002	0.000	
13	 C13	86.528	14.044	-100.874	C.2	1	6031002	0.000	
14	 C14	86.888	21.644	-103.311	C.2	1	6031002	0.000	
15	 C15	86.981	15.972	-99.568	C.2	1	6031002	0.000	
16	 C16	87.603	23.500	-104.709	C.2	1	6031002	0.000	
17	 C17	87.014	22.999	-103.502	C.2	1	6031002	0.000	
18	 C18	86.322	21.177	-102.155	C.2	1	6031002	0.000	
19	 C19	85.301	13.956	-100.256	C.2	1	6031002	0.000	
20	 C20	86.202	19.736	-101.961	C.2	1	6031002	0.000	
21	 C21	85.248	17.671	-102.791	C.3	1	6031002	0.000	
22	 C22	85.346	17.058	-104.164	C.3	1	6031002	0.000	
23	 C23	84.995	15.601	-104.131	C.3	1	6031002	0.000	
24	 C24	83.740	15.297	-103.351	C.3	1	6031002	0.000	
25	 C25	83.900	17.333	-102.193	C.3	1	6031002	0.000	
26	 C26	83.765	13.794	-103.172	C.3	1	6031002	0.000	
27	 N27	88.588	17.903	-98.960	N.1	1	6031002	0.000	
28	 N28	85.414	19.099	-102.876	N.pl3	1	6031002	0.000	
29	 N29	83.210	13.419	-101.862	N.3	1	6031002	0.000	
30	 O30	86.791	19.205	-101.036	O.2	1	6031002	0.000	
31	 O31	85.128	11.688	-101.415	O.2	1	6031002	0.000	
32	 O32	83.450	12.256	-99.577	O.2	1	6031002	0.000	
33	 O33	83.788	15.919	-102.072	O.3	1	6031002	0.000	
34	 O34	86.689	17.086	-104.594	O.3	1	6031002	0.000	
35	 O35	84.752	15.248	-105.478	O.3	1	6031002	0.000	
36	 O36	82.870	17.922	-102.975	O.3	1	6031002	0.000	
37	 S37	84.241	12.624	-100.741	S.O2	1	6031002	0.000	
@<TRIPOS>BOND
1 1 15 1
2 1 27 3
3 2 3 ar
4 2 4 ar
5 3 8 ar
6 4 9 ar
7 5 10 ar
8 5 11 ar
9 6 12 ar
10 6 15 ar
11 7 13 ar
12 7 15 ar
13 8 16 ar
14 9 16 ar
15 10 17 ar
16 11 18 ar
17 12 19 ar
18 13 19 ar
19 14 17 ar
20 14 18 ar
21 16 17 1
22 18 20 1
23 19 37 1
24 20 28 1
25 20 30 2
26 21 22 1
27 21 25 1
28 21 28 1
29 22 23 1
30 22 34 1
31 23 24 1
32 23 35 1
33 24 26 1
34 24 33 1
35 25 33 1
36 25 36 1
37 26 29 1
38 29 37 1
39 31 37 2
40 32 37 2
@<TRIPOS>SUBSTRUCTURE
1	6031002	1	GROUP	1 A	603
