# created with PyMOL 2.3.3
@<TRIPOS>MOLECULE
Lig_5hg1
41 42 1                 
SMALL
USER_CHARGES
@<TRIPOS>ATOM
1	 CL1	86.185	28.379	-102.465	Cl	1	62C1001	0.000	
2	 CL2	86.356	29.001	-105.541	Cl	1	62C1001	0.000	
3	  C1	84.515	18.284	-103.526	C.3	1	62C1001	0.000	
4	  O1	83.318	18.621	-104.144	O.3	1	62C1001	0.000	
5	  C2	85.666	18.641	-104.459	C.3	1	62C1001	0.000	
6	  C3	85.646	17.758	-105.702	C.3	1	62C1001	0.000	
7	  O3	86.847	17.985	-106.415	O.3	1	62C1001	0.000	
8	  C4	85.542	16.293	-105.317	C.3	1	62C1001	0.000	
9	  O4	85.357	15.508	-106.488	O.3	1	62C1001	0.000	
10	  C5	84.386	16.086	-104.335	C.3	1	62C1001	0.000	
11	  O5	84.583	16.937	-103.202	O.3	1	62C1001	0.000	
12	  C6	84.297	14.680	-103.796	C.3	1	62C1001	0.000	
13	  O6	85.521	14.315	-103.183	O.3	1	62C1001	0.000	
14	  N7	85.610	20.040	-104.833	N.pl3	1	62C1001	0.000	
15	  C8	85.896	20.961	-103.917	C.2	1	62C1001	0.000	
16	  O9	86.259	20.656	-102.769	O.2	1	62C1001	0.000	
17	 C10	85.874	22.336	-104.409	C.3	1	62C1001	0.000	
18	 C11	85.764	23.376	-103.605	C.3	1	62C1001	0.000	
19	 C12	85.851	24.759	-104.076	C.2	1	62C1001	0.000	
20	 C13	85.967	25.042	-105.438	C.2	1	62C1001	0.000	
21	 C14	86.120	26.340	-105.888	C.2	1	62C1001	0.000	
22	 C15	86.183	27.373	-104.971	C.2	1	62C1001	0.000	
23	 C16	86.100	27.104	-103.615	C.2	1	62C1001	0.000	
24	 C17	85.955	25.806	-103.164	C.2	1	62C1001	0.000	
25	 H11	84.606	18.802	-102.712	 H	1	62C1001	0.000	
26	 H12	83.143	19.439	-103.995	 H	1	62C1001	0.000	
27	 H21	86.499	18.482	-103.987	 H	1	62C1001	0.000	
28	 H31	84.886	18.000	-106.254	 H	1	62C1001	0.000	
29	 H32	87.485	17.575	-106.031	 H	1	62C1001	0.000	
30	 H41	86.369	16.026	-104.885	 H	1	62C1001	0.000	
31	 H42	85.743	14.757	-106.389	 H	1	62C1001	0.000	
32	 H51	83.551	16.322	-104.769	 H	1	62C1001	0.000	
33	 H61	84.108	14.070	-104.525	 H	1	62C1001	0.000	
34	 H62	83.584	14.632	-103.141	 H	1	62C1001	0.000	
35	 H63	85.798	14.956	-102.700	 H	1	62C1001	0.000	
36	 H71	85.393	20.269	-105.634	 H	1	62C1001	0.000	
37	H101	86.003	22.486	-105.318	 H	1	62C1001	0.000	
38	H111	85.689	23.224	-102.691	 H	1	62C1001	0.000	
39	H131	85.925	24.347	-106.055	 H	1	62C1001	0.000	
40	H141	86.163	26.519	-106.799	 H	1	62C1001	0.000	
41	H171	85.906	25.635	-102.251	 H	1	62C1001	0.000	
@<TRIPOS>BOND
1 1 23 1
2 3 4 1
3 3 11 1
4 3 25 1
5 4 26 1
6 3 5 1
7 5 6 1
8 5 27 1
9 6 7 1
10 6 28 1
11 7 29 1
12 6 8 1
13 8 9 1
14 8 10 1
15 8 30 1
16 9 31 1
17 10 11 1
18 10 12 1
19 10 32 1
20 12 13 1
21 12 33 1
22 12 34 1
23 13 35 1
24 5 14 1
25 14 36 1
26 14 15 1
27 15 16 2
28 15 17 1
29 17 18 1
30 17 37 1
31 18 38 1
32 18 19 1
33 19 20 ar
34 20 21 ar
35 20 39 1
36 21 40 1
37 2 22 1
38 21 22 ar
39 22 23 ar
40 19 24 ar
41 23 24 ar
42 24 41 1
@<TRIPOS>SUBSTRUCTURE
1	62C1001	1	GROUP	1 A	62C
