@<TRIPOS>MOLECULE
Molecule Ligandos_final.mol2
     6     0
SMALL
NO_CHARGES
@<TRIPOS>ATOM
      3 ACC        87.3820   17.0370 -104.9250 HB    2     HB      0.0000
      4 ACC        85.4470   14.9380 -105.0970 HB    3     HB      0.0000
      5 ACC        85.1600   16.1740 -101.7130 HB    4     HB      0.0000
      8 ACC        85.1610   13.2300 -102.3910 HB    7     HB      0.0000
      9 ACC        87.3660   19.7930 -101.1770 HB    8     HB      0.0000
     14 AR         88.1912   22.4273 -103.4502 AR    13    AR      0.0000
@<TRIPOS>BOND
@<TRIPOS>MOLECULE
Ligandos_final.mol2
    33    35
SMALL
NO_CHARGES
@<TRIPOS>ATOM
      1 C1         85.2230   17.5630 -101.9920 C.2   1     6041    0.3220
      2 C1A        89.0200   22.4480 -104.5680 C.1   1     6041   -0.0153
      3 O1         84.0160   17.9720 -102.6190 O.2   1     6041   -0.2570
      4 C2         86.3940   17.7720 -102.9310 C.2   1     6041    0.1898
      5 C2A        88.5540   21.2500 -104.0630 C.1   1     6041   -0.0391
      6 N2         86.6000   19.1550 -103.2580 N.2   1     6041   -0.1980
      7 C3         86.1760   16.9900 -104.2010 C.2   1     6041    0.2597
      8 C3A        88.6500   23.6220 -103.9480 C.1   1     6041   -0.0372
      9 O3         87.3820   17.0370 -104.9250 O.2   1     6041   -0.2812
     10 C4         85.8590   15.5500 -103.8860 C.2   1     6041    0.2671
     11 C4A        87.3640   22.4070 -102.3320 C.1   1     6041   -0.0737
     12 O4         85.4470   14.9380 -105.0970 O.2   1     6041   -0.2802
     13 C5         84.7070   15.5670 -102.9120 C.2   1     6041    0.1946
     14 C5A        83.9070   10.8720  -99.5110 C.1   1     6041    0.0077
     15 O5         85.1600   16.1740 -101.7130 O.3   1     6041   -0.2588
     16 C6         84.1030   14.2150 -102.6080 C.1   1     6041   -0.0101
     17 C6A        87.7310   21.2420 -102.9530 C.2   1     6041    0.1355
     18 C7         83.5430    9.5360  -99.7910 C.2   1     6041    0.1408
     19 C8         87.8280   23.5950 -102.8370 C.2   1     6041    0.1116
     20 C9         84.1850    9.1680 -100.9490 C.2   1     6041    0.1550
     21 C10        84.7590   11.2570 -100.5220 C.2   1     6041   -0.3150
     22 C11        87.2160   19.9950 -102.3720 C.2   1     6041    0.2943
     23 C12        82.5860    8.6870  -98.9390 C.2   1     6041    0.2217
     24 C18        84.2100    7.9320 -101.7430 Hev   1     6041    0.0000
     25 N21        85.1610   13.2300 -102.3910 N.2   1     6041   -0.3188
     26 O22        82.3520    7.5240  -99.3970 O.co2 1     6041   -0.6434
     27 O23        87.3660   19.7930 -101.1770 O.2   1     6041   -0.2639
     28 O24        82.1260    9.2470  -97.8970 O.co2 1     6041   -0.6434
     29 O25        85.0120   13.6990  -99.8100 O.2   1     6041   -0.9312
     30 O26        86.9580   12.3860 -100.7750 O.2   1     6041   -0.9312
     31 O27        84.9320   10.2180 -101.3920 O.3   1     6041   -0.2348
     32 S32        85.5660   12.7780 -100.7890 S.O2  1     6041    2.4641
     33 BR         87.2890   25.1810 -101.9440 Br    1     6041   -0.0315
@<TRIPOS>BOND
     1     1     3    1 
     2     1    15    1 
     3     1     4    1 
     4     2     5    ar
     5     2     8    ar
     6     4     6    1 
     7     4     7    1 
     8     5    17    ar
     9     6    22    1 
    10     7     9    1 
    11     7    10    1 
    12     8    19    ar
    13    10    12    1 
    14    10    13    1 
    15    11    17    ar
    16    11    19    ar
    17    13    15    1 
    18    13    16    1 
    19    14    18    ar
    20    14    21    ar
    21    16    25    1 
    22    17    22    1 
    23    18    20    ar
    24    18    23    1 
    25    19    33    1 
    26    20    24    1 
    27    20    31    ar
    28    21    31    ar
    29    21    32    1 
    30    22    27    2 
    31    23    26    ar
    32    23    28    ar
    33    25    32    1 
    34    29    32    2 
    35    30    32    2 
@<TRIPOS>MOLECULE
Molecule Ligandos_final.mol2
    15     0
SMALL
NO_CHARGES
@<TRIPOS>ATOM
      1 ACC        84.0160   17.9720 -102.6190 HB    0     HB      0.0000
      2 ACC        86.6000   19.1550 -103.2580 HB    1     HB      0.0000
      3 ACC        87.3820   17.0370 -104.9250 HB    2     HB      0.0000
      4 ACC        85.4470   14.9380 -105.0970 HB    3     HB      0.0000
      5 ACC        85.1600   16.1740 -101.7130 HB    4     HB      0.0000
      6 ACC        82.3520    7.5240  -99.3970 HB    5     HB      0.0000
      7 ACC        82.1260    9.2470  -97.8970 HB    6     HB      0.0000
      8 ACC        85.1610   13.2300 -102.3910 HB    7     HB      0.0000
      9 ACC        87.3660   19.7930 -101.1770 HB    8     HB      0.0000
     10 ACC        85.0120   13.6990  -99.8100 HB    9     HB      0.0000
     11 ACC        86.9580   12.3860 -100.7750 HB    10    HB      0.0000
     12 ACC        84.9320   10.2180 -101.3920 HB    11    HB      0.0000
     13 ANI        82.5860    8.6870  -98.9390 CHG   12    CHG     0.2217
     14 AR         88.1912   22.4273 -103.4502 AR    13    AR      0.0000
     15 AR         84.2652   10.2102 -100.4330 AR    14    AR      0.0000
@<TRIPOS>BOND
@<TRIPOS>MOLECULE
2_var_260.mol2
    42    43
SMALL
NO_CHARGES
@<TRIPOS>ATOM
      1 H1         85.1769   18.4860 -107.1556 H     1     UNK     0.0000
      2 O1         85.6372   18.0212 -106.3823 O.3   1     UNK     0.0000
      3 C1         87.0185   18.0875 -106.2191 C.2   1     UNK     0.0000
      4 N1         87.6163   17.4812 -105.2342 N.2   1     UNK     0.0000
      5 C2         87.0211   16.6648 -104.1658 C.3   1     UNK     0.0000
      6 H2         87.8276   16.5060 -103.4150 H     1     UNK     0.0000
      7 C3         85.8709   17.3689 -103.4180 C.3   1     UNK     0.0000
      8 H3         86.8459   17.0377 -103.8404 H     1     UNK     0.0000
      9 O2         86.2584   18.7347 -102.8204 O.3   1     UNK     0.0000
     10 C4         87.0312   19.6909 -103.5739 C.ar  1     UNK     0.0000
     11 C5         87.5518   19.7766 -104.8823 C.ar  1     UNK     0.0000
     12 H4         87.3588   19.0059 -105.6151 H     1     UNK     0.0000
     13 C6         88.3336   20.8678 -105.2646 C.ar  1     UNK     0.0000
     14 H5         88.7273   20.9243 -106.2714 H     1     UNK     0.0000
     15 C7         88.6086   21.8852 -104.3530 C.ar  1     UNK     0.0000
     16 H6         89.2153   22.7299 -104.6528 H     1     UNK     0.0000
     17 C8         88.1039   21.8154 -103.0538 C.ar  1     UNK     0.0000
     18 H7         88.3313   22.6163 -102.3607 H     1     UNK     0.0000
     19 C9         87.3154   20.7249 -102.6494 C.ar  1     UNK     0.0000
     20 C10        86.8127   20.7036 -101.2570 C.2   1     UNK     0.0000
     21 H8         86.6033   21.6362 -100.7483 H     1     UNK     0.0000
     22 O3         86.6205   19.6248 -100.6365 O.2   1     UNK     0.0000
     23 O4         85.4807   16.5788 -102.3079 O.3   1     UNK     0.0000
     24 C11        84.8841   15.3649 -102.7392 C.3   1     UNK     0.0000
     25 H9         84.6212   14.7365 -103.6213 H     1     UNK     0.0000
     26 C12        84.3374   14.6450 -101.4952 C.3   1     UNK     0.0000
     27 H10        83.2234   14.6547 -101.5165 H     1     UNK     0.0000
     28 H11        84.6540   15.1840 -100.5767 H     1     UNK     0.0000
     29 O5         84.7985   13.3222 -101.4270 O.3   1     UNK     0.0000
     30 H12        84.2901   12.8081 -102.1073 H     1     UNK     0.0000
     31 C13        85.9297   14.4842 -103.4885 C.3   1     UNK     0.0000
     32 H13        86.7319   14.2248 -102.7620 H     1     UNK     0.0000
     33 O6         85.3755   13.2765 -103.9505 O.3   1     UNK     0.0000
     34 H14        84.5674   13.4959 -104.4832 H     1     UNK     0.0000
     35 C14        86.6014   15.2602 -104.6502 C.3   1     UNK     0.0000
     36 H15        87.5247   14.7096 -104.9355 H     1     UNK     0.0000
     37 O7         85.7848   15.3136 -105.7955 O.3   1     UNK     0.0000
     38 H16        84.9043   15.6845 -105.5338 H     1     UNK     0.0000
     39 C15        87.8365   18.8561 -107.2062 C.3   1     UNK     0.0000
     40 H17        87.9109   18.2791 -108.1513 H     1     UNK     0.0000
     41 H18        87.3525   19.8334 -107.4126 H     1     UNK     0.0000
     42 H19        88.8589   19.0426 -106.8128 H     1     UNK     0.0000
@<TRIPOS>BOND
     1     1     2    1 
     2     2     3    1 
     3     3     4    2 
     4     4     5    1 
     5     5     6    1 
     6     5     7    1 
     7     7     8    1 
     8     7     9    1 
     9     9    10    1 
    10    10    11    ar
    11    11    12    1 
    12    11    13    ar
    13    13    14    1 
    14    13    15    ar
    15    15    16    1 
    16    15    17    ar
    17    17    18    1 
    18    17    19    ar
    19    19    20    1 
    20    20    21    1 
    21    20    22    2 
    22     7    23    1 
    23    23    24    1 
    24    24    25    1 
    25    24    26    1 
    26    26    27    1 
    27    26    28    1 
    28    26    29    1 
    29    29    30    1 
    30    24    31    1 
    31    31    32    1 
    32    31    33    1 
    33    33    34    1 
    34    31    35    1 
    35    35    36    1 
    36    35    37    1 
    37    37    38    1 
    38     3    39    1 
    39    39    40    1 
    40    39    41    1 
    41    39    42    1 
    42    35     5    1 
    43    19    10    ar
@<TRIPOS>MOLECULE
Molecule 2_var_260.mol2
    14     0
SMALL
NO_CHARGES
@<TRIPOS>ATOM
      1 DON        85.6372   18.0212 -106.3823 HB    0     HB      0.0000
      2 DON        84.7985   13.3222 -101.4270 HB    1     HB      0.0000
      3 DON        85.3755   13.2765 -103.9505 HB    2     HB      0.0000
      4 DON        85.7848   15.3136 -105.7955 HB    3     HB      0.0000
      5 ACC        85.6372   18.0212 -106.3823 HB    4     HB      0.0000
      6 ACC        87.6163   17.4812 -105.2342 HB    5     HB      0.0000
      7 ACC        86.2394   18.6028 -103.1682 HB    6     HB      0.0000
      8 ACC        86.6205   19.6248 -100.6365 HB    7     HB      0.0000
      9 ACC        85.4807   16.5788 -102.3079 HB    8     HB      0.0000
     10 ACC        84.7985   13.3222 -101.4270 HB    9     HB      0.0000
     11 ACC        85.3755   13.2765 -103.9505 HB    10    HB      0.0000
     12 ACC        85.7848   15.3136 -105.7955 HB    11    HB      0.0000
     13 AR         87.8241   20.7935 -103.9628 AR    12    AR      0.0000
     14 HYD        87.8365   18.8561 -107.2062 HYD   13    HYD     0.0000
@<TRIPOS>BOND
