@<TRIPOS>MOLECULE
Molecule Ligandos_final.mol2
     6     0
SMALL
NO_CHARGES
@<TRIPOS>ATOM
      1 ACC        84.0160   17.9720 -102.6190 HB    0     HB      0.0000
      3 ACC        87.3820   17.0370 -104.9250 HB    2     HB      0.0000
      4 ACC        85.4470   14.9380 -105.0970 HB    3     HB      0.0000
      5 ACC        85.1600   16.1740 -101.7130 HB    4     HB      0.0000
      9 ACC        87.3660   19.7930 -101.1770 HB    8     HB      0.0000
     14 AR         88.1912   22.4273 -103.4502 AR    13    AR      0.0000
@<TRIPOS>BOND
@<TRIPOS>MOLECULE
Ligandos_final.mol2
    33    35
SMALL
NO_CHARGES
@<TRIPOS>ATOM
      1 C1         85.2230   17.5630 -101.9920 C.2   1     6041    0.3220
      2 C1A        89.0200   22.4480 -104.5680 C.1   1     6041   -0.0153
      3 O1         84.0160   17.9720 -102.6190 O.2   1     6041   -0.2570
      4 C2         86.3940   17.7720 -102.9310 C.2   1     6041    0.1898
      5 C2A        88.5540   21.2500 -104.0630 C.1   1     6041   -0.0391
      6 N2         86.6000   19.1550 -103.2580 N.2   1     6041   -0.1980
      7 C3         86.1760   16.9900 -104.2010 C.2   1     6041    0.2597
      8 C3A        88.6500   23.6220 -103.9480 C.1   1     6041   -0.0372
      9 O3         87.3820   17.0370 -104.9250 O.2   1     6041   -0.2812
     10 C4         85.8590   15.5500 -103.8860 C.2   1     6041    0.2671
     11 C4A        87.3640   22.4070 -102.3320 C.1   1     6041   -0.0737
     12 O4         85.4470   14.9380 -105.0970 O.2   1     6041   -0.2802
     13 C5         84.7070   15.5670 -102.9120 C.2   1     6041    0.1946
     14 C5A        83.9070   10.8720  -99.5110 C.1   1     6041    0.0077
     15 O5         85.1600   16.1740 -101.7130 O.3   1     6041   -0.2588
     16 C6         84.1030   14.2150 -102.6080 C.1   1     6041   -0.0101
     17 C6A        87.7310   21.2420 -102.9530 C.2   1     6041    0.1355
     18 C7         83.5430    9.5360  -99.7910 C.2   1     6041    0.1408
     19 C8         87.8280   23.5950 -102.8370 C.2   1     6041    0.1116
     20 C9         84.1850    9.1680 -100.9490 C.2   1     6041    0.1550
     21 C10        84.7590   11.2570 -100.5220 C.2   1     6041   -0.3150
     22 C11        87.2160   19.9950 -102.3720 C.2   1     6041    0.2943
     23 C12        82.5860    8.6870  -98.9390 C.2   1     6041    0.2217
     24 C18        84.2100    7.9320 -101.7430 Hev   1     6041    0.0000
     25 N21        85.1610   13.2300 -102.3910 N.2   1     6041   -0.3188
     26 O22        82.3520    7.5240  -99.3970 O.co2 1     6041   -0.6434
     27 O23        87.3660   19.7930 -101.1770 O.2   1     6041   -0.2639
     28 O24        82.1260    9.2470  -97.8970 O.co2 1     6041   -0.6434
     29 O25        85.0120   13.6990  -99.8100 O.2   1     6041   -0.9312
     30 O26        86.9580   12.3860 -100.7750 O.2   1     6041   -0.9312
     31 O27        84.9320   10.2180 -101.3920 O.3   1     6041   -0.2348
     32 S32        85.5660   12.7780 -100.7890 S.O2  1     6041    2.4641
     33 BR         87.2890   25.1810 -101.9440 Br    1     6041   -0.0315
@<TRIPOS>BOND
     1     1     3    1 
     2     1    15    1 
     3     1     4    1 
     4     2     5    ar
     5     2     8    ar
     6     4     6    1 
     7     4     7    1 
     8     5    17    ar
     9     6    22    1 
    10     7     9    1 
    11     7    10    1 
    12     8    19    ar
    13    10    12    1 
    14    10    13    1 
    15    11    17    ar
    16    11    19    ar
    17    13    15    1 
    18    13    16    1 
    19    14    18    ar
    20    14    21    ar
    21    16    25    1 
    22    17    22    1 
    23    18    20    ar
    24    18    23    1 
    25    19    33    1 
    26    20    24    1 
    27    20    31    ar
    28    21    31    ar
    29    21    32    1 
    30    22    27    2 
    31    23    26    ar
    32    23    28    ar
    33    25    32    1 
    34    29    32    2 
    35    30    32    2 
@<TRIPOS>MOLECULE
Molecule Ligandos_final.mol2
    15     0
SMALL
NO_CHARGES
@<TRIPOS>ATOM
      1 ACC        84.0160   17.9720 -102.6190 HB    0     HB      0.0000
      2 ACC        86.6000   19.1550 -103.2580 HB    1     HB      0.0000
      3 ACC        87.3820   17.0370 -104.9250 HB    2     HB      0.0000
      4 ACC        85.4470   14.9380 -105.0970 HB    3     HB      0.0000
      5 ACC        85.1600   16.1740 -101.7130 HB    4     HB      0.0000
      6 ACC        82.3520    7.5240  -99.3970 HB    5     HB      0.0000
      7 ACC        82.1260    9.2470  -97.8970 HB    6     HB      0.0000
      8 ACC        85.1610   13.2300 -102.3910 HB    7     HB      0.0000
      9 ACC        87.3660   19.7930 -101.1770 HB    8     HB      0.0000
     10 ACC        85.0120   13.6990  -99.8100 HB    9     HB      0.0000
     11 ACC        86.9580   12.3860 -100.7750 HB    10    HB      0.0000
     12 ACC        84.9320   10.2180 -101.3920 HB    11    HB      0.0000
     13 ANI        82.5860    8.6870  -98.9390 CHG   12    CHG     0.2217
     14 AR         88.1912   22.4273 -103.4502 AR    13    AR      0.0000
     15 AR         84.2652   10.2102 -100.4330 AR    14    AR      0.0000
@<TRIPOS>BOND
@<TRIPOS>MOLECULE
2_var_228.mol2
    41    43
SMALL
NO_CHARGES
@<TRIPOS>ATOM
      1 H1         88.4432   15.7400 -105.3109 H     1     UNK     0.0000
      2 O1         87.5105   15.9625 -104.9844 O.3   1     UNK     0.0000
      3 C1         86.4400   15.0985 -105.2139 C.2   1     UNK     0.0000
      4 N1         85.2435   15.4039 -104.8093 N.2   1     UNK     0.0000
      5 C2         84.9063   16.6214 -104.0681 C.3   1     UNK     0.0000
      6 H2         83.9719   17.0550 -104.4930 H     1     UNK     0.0000
      7 C3         84.6122   16.2746 -102.5850 C.3   1     UNK     0.0000
      8 H3         83.6835   15.6580 -102.5639 H     1     UNK     0.0000
      9 O2         85.6628   15.5364 -102.0063 O.3   1     UNK     0.0000
     10 H4         85.5517   14.5930 -102.2945 H     1     UNK     0.0000
     11 O3         84.3450   17.4413 -101.8165 O.3   1     UNK     0.0000
     12 C4         85.4536   18.3243 -101.8380 C.3   1     UNK     0.0000
     13 H5         86.3696   17.8263 -101.4421 H     1     UNK     0.0000
     14 C5         85.1881   19.5377 -100.9511 C.3   1     UNK     0.0000
     15 H6         85.1087   19.2028  -99.8952 H     1     UNK     0.0000
     16 H7         84.2225   20.0253 -101.2180 H     1     UNK     0.0000
     17 O4         86.2584   20.4571 -101.0537 O.3   1     UNK     0.0000
     18 C6         86.4106   20.8818 -102.4012 C.3   1     UNK     0.0000
     19 H8         85.6163   21.2662 -101.7148 H     1     UNK     0.0000
     20 C7         87.5236   21.8947 -102.4559 C.ar  1     UNK     0.0000
     21 C8         87.4549   23.0824 -101.7056 C.ar  1     UNK     0.0000
     22 H9         86.5990   23.2889 -101.0754 H     1     UNK     0.0000
     23 C9         88.4955   24.0150 -101.7652 C.ar  1     UNK     0.0000
     24 H10        88.4371   24.9274 -101.1857 H     1     UNK     0.0000
     25 C10        89.6106   23.7712 -102.5710 C.ar  1     UNK     0.0000
     26 H11        90.4146   24.4943 -102.6154 H     1     UNK     0.0000
     27 C11        89.6879   22.5938 -103.3194 C.ar  1     UNK     0.0000
     28 H12        90.5521   22.4058 -103.9432 H     1     UNK     0.0000
     29 C12        88.6503   21.6584 -103.2634 C.ar  1     UNK     0.0000
     30 H13        88.7231   20.7497 -103.8488 H     1     UNK     0.0000
     31 O5         86.7567   19.7920 -103.2457 O.3   1     UNK     0.0000
     32 C13        85.7011   18.8518 -103.2574 C.3   1     UNK     0.0000
     33 H14        84.7707   19.3301 -103.6495 H     1     UNK     0.0000
     34 C14        86.0327   17.6763 -104.1826 C.3   1     UNK     0.0000
     35 H15        86.0761   18.0649 -105.2270 H     1     UNK     0.0000
     36 O6         87.2762   17.1233 -103.8264 O.3   1     UNK     0.0000
     37 H16        87.6284   16.6606 -104.6308 H     1     UNK     0.0000
     38 C15        86.6597   13.8259 -105.9664 C.3   1     UNK     0.0000
     39 H17        85.8398   13.1040 -105.7638 H     1     UNK     0.0000
     40 H18        86.6940   14.0424 -107.0543 H     1     UNK     0.0000
     41 H19        87.6209   13.3661 -105.6555 H     1     UNK     0.0000
@<TRIPOS>BOND
     1     1     2    1 
     2     2     3    1 
     3     3     4    2 
     4     4     5    1 
     5     5     6    1 
     6     5     7    1 
     7     7     8    1 
     8     7     9    1 
     9     9    10    1 
    10     7    11    1 
    11    11    12    1 
    12    12    13    1 
    13    12    14    1 
    14    14    15    1 
    15    14    16    1 
    16    14    17    1 
    17    17    18    1 
    18    18    19    1 
    19    18    20    1 
    20    20    21    ar
    21    21    22    1 
    22    21    23    ar
    23    23    24    1 
    24    23    25    ar
    25    25    26    1 
    26    25    27    ar
    27    27    28    1 
    28    27    29    ar
    29    29    30    1 
    30    18    31    1 
    31    31    32    1 
    32    32    33    1 
    33    32    34    1 
    34    34    35    1 
    35    34    36    1 
    36    36    37    1 
    37     3    38    1 
    38    38    39    1 
    39    38    40    1 
    40    38    41    1 
    41    34     5    1 
    42    32    12    1 
    43    29    20    ar
@<TRIPOS>MOLECULE
Molecule 2_var_228.mol2
    12     0
SMALL
NO_CHARGES
@<TRIPOS>ATOM
      1 DON        87.5105   15.9625 -104.9844 HB    0     HB      0.0000
      2 DON        85.6628   15.5364 -102.0063 HB    1     HB      0.0000
      3 DON        87.2762   17.1233 -103.8264 HB    2     HB      0.0000
      4 ACC        87.5105   15.9625 -104.9844 HB    3     HB      0.0000
      5 ACC        85.2435   15.4039 -104.8093 HB    4     HB      0.0000
      6 ACC        85.6628   15.5364 -102.0063 HB    5     HB      0.0000
      7 ACC        84.3450   17.4413 -101.8165 HB    6     HB      0.0000
      8 ACC        86.2584   20.4571 -101.0537 HB    7     HB      0.0000
      9 ACC        86.7567   19.7920 -103.2457 HB    8     HB      0.0000
     10 ACC        87.2762   17.1233 -103.8264 HB    9     HB      0.0000
     11 AR         88.5704   22.8359 -102.5134 AR    10    AR      0.0000
     12 HYD        86.6597   13.8259 -105.9664 HYD   11    HYD     0.0000
@<TRIPOS>BOND
