@<TRIPOS>MOLECULE
Molecule Ligandos_final.mol2
     6     0
SMALL
NO_CHARGES
@<TRIPOS>ATOM
      3 ACC        87.3820   17.0370 -104.9250 HB    2     HB      0.0000
      4 ACC        85.4470   14.9380 -105.0970 HB    3     HB      0.0000
      5 ACC        85.1600   16.1740 -101.7130 HB    4     HB      0.0000
      8 ACC        85.1610   13.2300 -102.3910 HB    7     HB      0.0000
      9 ACC        87.3660   19.7930 -101.1770 HB    8     HB      0.0000
     14 AR         88.1912   22.4273 -103.4502 AR    13    AR      0.0000
@<TRIPOS>BOND
@<TRIPOS>MOLECULE
Ligandos_final.mol2
    33    35
SMALL
NO_CHARGES
@<TRIPOS>ATOM
      1 C1         85.2230   17.5630 -101.9920 C.2   1     6041    0.3220
      2 C1A        89.0200   22.4480 -104.5680 C.1   1     6041   -0.0153
      3 O1         84.0160   17.9720 -102.6190 O.2   1     6041   -0.2570
      4 C2         86.3940   17.7720 -102.9310 C.2   1     6041    0.1898
      5 C2A        88.5540   21.2500 -104.0630 C.1   1     6041   -0.0391
      6 N2         86.6000   19.1550 -103.2580 N.2   1     6041   -0.1980
      7 C3         86.1760   16.9900 -104.2010 C.2   1     6041    0.2597
      8 C3A        88.6500   23.6220 -103.9480 C.1   1     6041   -0.0372
      9 O3         87.3820   17.0370 -104.9250 O.2   1     6041   -0.2812
     10 C4         85.8590   15.5500 -103.8860 C.2   1     6041    0.2671
     11 C4A        87.3640   22.4070 -102.3320 C.1   1     6041   -0.0737
     12 O4         85.4470   14.9380 -105.0970 O.2   1     6041   -0.2802
     13 C5         84.7070   15.5670 -102.9120 C.2   1     6041    0.1946
     14 C5A        83.9070   10.8720  -99.5110 C.1   1     6041    0.0077
     15 O5         85.1600   16.1740 -101.7130 O.3   1     6041   -0.2588
     16 C6         84.1030   14.2150 -102.6080 C.1   1     6041   -0.0101
     17 C6A        87.7310   21.2420 -102.9530 C.2   1     6041    0.1355
     18 C7         83.5430    9.5360  -99.7910 C.2   1     6041    0.1408
     19 C8         87.8280   23.5950 -102.8370 C.2   1     6041    0.1116
     20 C9         84.1850    9.1680 -100.9490 C.2   1     6041    0.1550
     21 C10        84.7590   11.2570 -100.5220 C.2   1     6041   -0.3150
     22 C11        87.2160   19.9950 -102.3720 C.2   1     6041    0.2943
     23 C12        82.5860    8.6870  -98.9390 C.2   1     6041    0.2217
     24 C18        84.2100    7.9320 -101.7430 Hev   1     6041    0.0000
     25 N21        85.1610   13.2300 -102.3910 N.2   1     6041   -0.3188
     26 O22        82.3520    7.5240  -99.3970 O.co2 1     6041   -0.6434
     27 O23        87.3660   19.7930 -101.1770 O.2   1     6041   -0.2639
     28 O24        82.1260    9.2470  -97.8970 O.co2 1     6041   -0.6434
     29 O25        85.0120   13.6990  -99.8100 O.2   1     6041   -0.9312
     30 O26        86.9580   12.3860 -100.7750 O.2   1     6041   -0.9312
     31 O27        84.9320   10.2180 -101.3920 O.3   1     6041   -0.2348
     32 S32        85.5660   12.7780 -100.7890 S.O2  1     6041    2.4641
     33 BR         87.2890   25.1810 -101.9440 Br    1     6041   -0.0315
@<TRIPOS>BOND
     1     1     3    1 
     2     1    15    1 
     3     1     4    1 
     4     2     5    ar
     5     2     8    ar
     6     4     6    1 
     7     4     7    1 
     8     5    17    ar
     9     6    22    1 
    10     7     9    1 
    11     7    10    1 
    12     8    19    ar
    13    10    12    1 
    14    10    13    1 
    15    11    17    ar
    16    11    19    ar
    17    13    15    1 
    18    13    16    1 
    19    14    18    ar
    20    14    21    ar
    21    16    25    1 
    22    17    22    1 
    23    18    20    ar
    24    18    23    1 
    25    19    33    1 
    26    20    24    1 
    27    20    31    ar
    28    21    31    ar
    29    21    32    1 
    30    22    27    2 
    31    23    26    ar
    32    23    28    ar
    33    25    32    1 
    34    29    32    2 
    35    30    32    2 
@<TRIPOS>MOLECULE
Molecule Ligandos_final.mol2
    15     0
SMALL
NO_CHARGES
@<TRIPOS>ATOM
      1 ACC        84.0160   17.9720 -102.6190 HB    0     HB      0.0000
      2 ACC        86.6000   19.1550 -103.2580 HB    1     HB      0.0000
      3 ACC        87.3820   17.0370 -104.9250 HB    2     HB      0.0000
      4 ACC        85.4470   14.9380 -105.0970 HB    3     HB      0.0000
      5 ACC        85.1600   16.1740 -101.7130 HB    4     HB      0.0000
      6 ACC        82.3520    7.5240  -99.3970 HB    5     HB      0.0000
      7 ACC        82.1260    9.2470  -97.8970 HB    6     HB      0.0000
      8 ACC        85.1610   13.2300 -102.3910 HB    7     HB      0.0000
      9 ACC        87.3660   19.7930 -101.1770 HB    8     HB      0.0000
     10 ACC        85.0120   13.6990  -99.8100 HB    9     HB      0.0000
     11 ACC        86.9580   12.3860 -100.7750 HB    10    HB      0.0000
     12 ACC        84.9320   10.2180 -101.3920 HB    11    HB      0.0000
     13 ANI        82.5860    8.6870  -98.9390 CHG   12    CHG     0.2217
     14 AR         88.1912   22.4273 -103.4502 AR    13    AR      0.0000
     15 AR         84.2652   10.2102 -100.4330 AR    14    AR      0.0000
@<TRIPOS>BOND
@<TRIPOS>MOLECULE
2_var_5.mol2
    58    62
SMALL
NO_CHARGES
@<TRIPOS>ATOM
      1 C1         90.3005   21.5639 -104.8972 C.3   1     UNK     0.0000
      2 N1         89.3864   22.6165 -104.4488 N.ar  1     UNK     0.0000
      3 C2         88.4667   22.5486 -103.4538 C.ar  1     UNK     0.0000
      4 C3         88.1113   21.3412 -102.6838 C.ar  1     UNK     0.0000
      5 C4         87.6740   20.1208 -103.1596 C.ar  1     UNK     0.0000
      6 N2         87.4154   19.3687 -102.0765 N.ar  1     UNK     0.0000
      7 C5         86.8421   17.7771 -101.7691 C.3   1     UNK     0.0000
      8 C6         85.7883   17.5128 -100.6732 C.3   1     UNK     0.0000
      9 O1         86.1783   18.1270  -99.4727 O.3   1     UNK     0.0000
     10 O2         85.6366   16.1192 -100.4595 O.3   1     UNK     0.0000
     11 C7         85.1015   15.4902 -101.6129 C.3   1     UNK     0.0000
     12 C8         84.8097   14.0229 -101.2550 C.3   1     UNK     0.0000
     13 O3         85.3837   13.1459 -102.1870 O.3   1     UNK     0.0000
     14 C9         86.0975   15.5962 -102.7958 C.3   1     UNK     0.0000
     15 O4         85.5329   15.0205 -103.9464 O.3   1     UNK     0.0000
     16 C10        86.4259   17.0768 -103.0720 C.3   1     UNK     0.0000
     17 O5         87.4752   17.1723 -104.0014 O.3   1     UNK     0.0000
     18 N3         87.6585   20.0923 -100.9948 N.ar  1     UNK     0.0000
     19 N4         88.0803   21.3010 -101.3357 N.ar  1     UNK     0.0000
     20 N5         87.8799   23.7387 -103.2070 N.ar  1     UNK     0.0000
     21 C11        88.4285   24.5862 -104.1000 C.ar  1     UNK     0.0000
     22 C12        88.0326   26.0081 -104.2023 C.ar  1     UNK     0.0000
     23 C13        87.7014   26.7227 -103.0386 C.ar  1     UNK     0.0000
     24 C14        87.3151   28.0642 -103.1184 C.ar  1     UNK     0.0000
     25 C15        87.2434   28.7001 -104.3606 C.ar  1     UNK     0.0000
     26 F1         86.8674   30.0004 -104.4362 F     1     UNK     0.0000
     27 C16        87.5503   27.9922 -105.5255 C.ar  1     UNK     0.0000
     28 C17        87.9366   26.6506 -105.4501 C.ar  1     UNK     0.0000
     29 C18        89.3558   23.8998 -104.8721 C.ar  1     UNK     0.0000
     30 C19        90.2474   24.4723 -105.9045 C.ar  1     UNK     0.0000
     31 C20        91.0191   25.6097 -105.6258 C.ar  1     UNK     0.0000
     32 C21        91.8452   26.1403 -106.6193 C.ar  1     UNK     0.0000
     33 N6         91.8991   25.5558 -107.8456 N.ar  1     UNK     0.0000
     34 C22        91.1622   24.4525 -108.1421 C.ar  1     UNK     0.0000
     35 C23        90.3222   23.8906 -107.1777 C.ar  1     UNK     0.0000
     36 H1         91.2182   22.0003 -105.3428 H     1     UNK     0.0000
     37 H2         90.6280   20.9447 -104.0364 H     1     UNK     0.0000
     38 H3         89.7970   20.9284 -105.6549 H     1     UNK     0.0000
     39 H4         87.5101   19.8146 -104.1832 H     1     UNK     0.0000
     40 H5         86.8676   17.6082 -103.1125 H     1     UNK     0.0000
     41 H6         84.8134   17.9645 -100.9696 H     1     UNK     0.0000
     42 H7         86.9808   17.6440  -99.1430 H     1     UNK     0.0000
     43 H8         84.1315   15.9647 -101.8942 H     1     UNK     0.0000
     44 H9         85.7630   13.4800 -101.0796 H     1     UNK     0.0000
     45 H10        84.2245   13.9775 -100.3079 H     1     UNK     0.0000
     46 H11        84.8217   13.1911 -103.0042 H     1     UNK     0.0000
     47 H12        87.0370   15.0611 -102.5155 H     1     UNK     0.0000
     48 H13        86.2857   14.7286 -104.5239 H     1     UNK     0.0000
     49 H14        85.5125   17.5814 -103.4710 H     1     UNK     0.0000
     50 H15        87.0698   17.0986 -104.9047 H     1     UNK     0.0000
     51 H16        87.7548   26.2461 -102.0673 H     1     UNK     0.0000
     52 H17        87.0712   28.6098 -102.2159 H     1     UNK     0.0000
     53 H18        87.4815   28.4801 -106.4893 H     1     UNK     0.0000
     54 H19        88.1388   26.1137 -106.3672 H     1     UNK     0.0000
     55 H20        90.9847   26.0778 -104.6498 H     1     UNK     0.0000
     56 H21        92.4446   27.0174 -106.4148 H     1     UNK     0.0000
     57 H22        91.2257   24.0125 -109.1283 H     1     UNK     0.0000
     58 H23        89.7289   23.0188 -107.4244 H     1     UNK     0.0000
@<TRIPOS>BOND
     1     1     2    1 
     2     2     3    ar
     3     3     4    1 
     4     4     5    ar
     5     5     6    ar
     6     6     7    1 
     7     7     8    1 
     8     8     9    1 
     9     8    10    1 
    10    10    11    1 
    11    11    12    1 
    12    12    13    1 
    13    11    14    1 
    14    14    15    1 
    15    14    16    1 
    16    16    17    1 
    17     6    18    ar
    18    18    19    ar
    19     3    20    ar
    20    20    21    ar
    21    21    22    1 
    22    22    23    ar
    23    23    24    ar
    24    24    25    ar
    25    25    26    1 
    26    25    27    ar
    27    27    28    ar
    28    21    29    ar
    29    29    30    1 
    30    30    31    ar
    31    31    32    ar
    32    32    33    ar
    33    33    34    ar
    34    34    35    ar
    35    29     2    ar
    36    35    30    ar
    37    19     4    ar
    38    28    22    ar
    39    16     7    1 
    40     1    36    1 
    41     1    37    1 
    42     1    38    1 
    43     5    39    1 
    44     7    40    1 
    45     8    41    1 
    46     9    42    1 
    47    11    43    1 
    48    12    44    1 
    49    12    45    1 
    50    13    46    1 
    51    14    47    1 
    52    15    48    1 
    53    16    49    1 
    54    17    50    1 
    55    23    51    1 
    56    24    52    1 
    57    27    53    1 
    58    28    54    1 
    59    31    55    1 
    60    32    56    1 
    61    34    57    1 
    62    35    58    1 
@<TRIPOS>MOLECULE
Molecule 2_var_5.mol2
    20     0
SMALL
NO_CHARGES
@<TRIPOS>ATOM
      1 DON        86.1783   18.1270  -99.4727 HB    0     HB      0.0000
      2 DON        85.3837   13.1459 -102.1870 HB    1     HB      0.0000
      3 DON        85.5329   15.0205 -103.9464 HB    2     HB      0.0000
      4 DON        87.4752   17.1723 -104.0014 HB    3     HB      0.0000
      5 ACC        86.1783   18.1270  -99.4727 HB    4     HB      0.0000
      6 ACC        85.6366   16.1192 -100.4595 HB    5     HB      0.0000
      7 ACC        85.3837   13.1459 -102.1870 HB    6     HB      0.0000
      8 ACC        85.5329   15.0205 -103.9464 HB    7     HB      0.0000
      9 ACC        87.4752   17.1723 -104.0014 HB    8     HB      0.0000
     10 ACC        87.6585   20.0923 -100.9948 HB    9     HB      0.0000
     11 ACC        88.0803   21.3010 -101.3357 HB    10    HB      0.0000
     12 ACC        87.8799   23.7387 -103.2070 HB    11    HB      0.0000
     13 ACC        91.8991   25.5558 -107.8456 HB    12    HB      0.0000
     14 CAT        89.3864   22.6165 -104.4488 CHG   13    CHG     0.0000
     15 CAT        87.4154   19.3687 -102.0765 CHG   14    CHG     0.0000
     16 AR         88.7035   23.4780 -104.0163 AR    15    AR      0.0000
     17 AR         87.7879   20.4448 -102.0501 AR    16    AR      0.0000
     18 AR         87.6299   27.3563 -104.2826 AR    17    AR      0.0000
     19 AR         91.0826   25.0202 -106.8858 AR    18    AR      0.0000
     20 HYD        90.3005   21.5639 -104.8972 HYD   19    HYD     0.0000
@<TRIPOS>BOND
