@<TRIPOS>MOLECULE
Molecule Ligandos_final.mol2
     6     0
SMALL
NO_CHARGES
@<TRIPOS>ATOM
      1 ACC        84.0160   17.9720 -102.6190 HB    0     HB      0.0000
      3 ACC        87.3820   17.0370 -104.9250 HB    2     HB      0.0000
      4 ACC        85.4470   14.9380 -105.0970 HB    3     HB      0.0000
      5 ACC        85.1600   16.1740 -101.7130 HB    4     HB      0.0000
      8 ACC        85.1610   13.2300 -102.3910 HB    7     HB      0.0000
      9 ACC        87.3660   19.7930 -101.1770 HB    8     HB      0.0000
@<TRIPOS>BOND
@<TRIPOS>MOLECULE
Ligandos_final.mol2
    33    35
SMALL
NO_CHARGES
@<TRIPOS>ATOM
      1 C1         85.2230   17.5630 -101.9920 C.2   1     6041    0.3220
      2 C1A        89.0200   22.4480 -104.5680 C.1   1     6041   -0.0153
      3 O1         84.0160   17.9720 -102.6190 O.2   1     6041   -0.2570
      4 C2         86.3940   17.7720 -102.9310 C.2   1     6041    0.1898
      5 C2A        88.5540   21.2500 -104.0630 C.1   1     6041   -0.0391
      6 N2         86.6000   19.1550 -103.2580 N.2   1     6041   -0.1980
      7 C3         86.1760   16.9900 -104.2010 C.2   1     6041    0.2597
      8 C3A        88.6500   23.6220 -103.9480 C.1   1     6041   -0.0372
      9 O3         87.3820   17.0370 -104.9250 O.2   1     6041   -0.2812
     10 C4         85.8590   15.5500 -103.8860 C.2   1     6041    0.2671
     11 C4A        87.3640   22.4070 -102.3320 C.1   1     6041   -0.0737
     12 O4         85.4470   14.9380 -105.0970 O.2   1     6041   -0.2802
     13 C5         84.7070   15.5670 -102.9120 C.2   1     6041    0.1946
     14 C5A        83.9070   10.8720  -99.5110 C.1   1     6041    0.0077
     15 O5         85.1600   16.1740 -101.7130 O.3   1     6041   -0.2588
     16 C6         84.1030   14.2150 -102.6080 C.1   1     6041   -0.0101
     17 C6A        87.7310   21.2420 -102.9530 C.2   1     6041    0.1355
     18 C7         83.5430    9.5360  -99.7910 C.2   1     6041    0.1408
     19 C8         87.8280   23.5950 -102.8370 C.2   1     6041    0.1116
     20 C9         84.1850    9.1680 -100.9490 C.2   1     6041    0.1550
     21 C10        84.7590   11.2570 -100.5220 C.2   1     6041   -0.3150
     22 C11        87.2160   19.9950 -102.3720 C.2   1     6041    0.2943
     23 C12        82.5860    8.6870  -98.9390 C.2   1     6041    0.2217
     24 C18        84.2100    7.9320 -101.7430 Hev   1     6041    0.0000
     25 N21        85.1610   13.2300 -102.3910 N.2   1     6041   -0.3188
     26 O22        82.3520    7.5240  -99.3970 O.co2 1     6041   -0.6434
     27 O23        87.3660   19.7930 -101.1770 O.2   1     6041   -0.2639
     28 O24        82.1260    9.2470  -97.8970 O.co2 1     6041   -0.6434
     29 O25        85.0120   13.6990  -99.8100 O.2   1     6041   -0.9312
     30 O26        86.9580   12.3860 -100.7750 O.2   1     6041   -0.9312
     31 O27        84.9320   10.2180 -101.3920 O.3   1     6041   -0.2348
     32 S32        85.5660   12.7780 -100.7890 S.O2  1     6041    2.4641
     33 BR         87.2890   25.1810 -101.9440 Br    1     6041   -0.0315
@<TRIPOS>BOND
     1     1     3    1 
     2     1    15    1 
     3     1     4    1 
     4     2     5    ar
     5     2     8    ar
     6     4     6    1 
     7     4     7    1 
     8     5    17    ar
     9     6    22    1 
    10     7     9    1 
    11     7    10    1 
    12     8    19    ar
    13    10    12    1 
    14    10    13    1 
    15    11    17    ar
    16    11    19    ar
    17    13    15    1 
    18    13    16    1 
    19    14    18    ar
    20    14    21    ar
    21    16    25    1 
    22    17    22    1 
    23    18    20    ar
    24    18    23    1 
    25    19    33    1 
    26    20    24    1 
    27    20    31    ar
    28    21    31    ar
    29    21    32    1 
    30    22    27    2 
    31    23    26    ar
    32    23    28    ar
    33    25    32    1 
    34    29    32    2 
    35    30    32    2 
@<TRIPOS>MOLECULE
Molecule Ligandos_final.mol2
    15     0
SMALL
NO_CHARGES
@<TRIPOS>ATOM
      1 ACC        84.0160   17.9720 -102.6190 HB    0     HB      0.0000
      2 ACC        86.6000   19.1550 -103.2580 HB    1     HB      0.0000
      3 ACC        87.3820   17.0370 -104.9250 HB    2     HB      0.0000
      4 ACC        85.4470   14.9380 -105.0970 HB    3     HB      0.0000
      5 ACC        85.1600   16.1740 -101.7130 HB    4     HB      0.0000
      6 ACC        82.3520    7.5240  -99.3970 HB    5     HB      0.0000
      7 ACC        82.1260    9.2470  -97.8970 HB    6     HB      0.0000
      8 ACC        85.1610   13.2300 -102.3910 HB    7     HB      0.0000
      9 ACC        87.3660   19.7930 -101.1770 HB    8     HB      0.0000
     10 ACC        85.0120   13.6990  -99.8100 HB    9     HB      0.0000
     11 ACC        86.9580   12.3860 -100.7750 HB    10    HB      0.0000
     12 ACC        84.9320   10.2180 -101.3920 HB    11    HB      0.0000
     13 ANI        82.5860    8.6870  -98.9390 CHG   12    CHG     0.2217
     14 AR         88.1912   22.4273 -103.4502 AR    13    AR      0.0000
     15 AR         84.2652   10.2102 -100.4330 AR    14    AR      0.0000
@<TRIPOS>BOND
@<TRIPOS>MOLECULE
2_var_30.mol2
    28    28
SMALL
NO_CHARGES
@<TRIPOS>ATOM
      1 O1         87.5983   21.5285 -102.9563 O.co2 1     UNK     0.0000
      2 S1         87.5461   20.1298 -102.4104 S.o2  1     UNK     0.0000
      3 O2         88.9369   19.5607 -102.3874 O.co2 1     UNK     0.0000
      4 O3         86.9354   20.1763 -100.8463 O.2   1     UNK     0.0000
      5 N1         86.5293   19.1582 -103.4344 N.3   1     UNK     0.0000
      6 C1         86.4202   17.7721 -102.9402 C.3   1     UNK     0.0000
      7 C2         85.2076   17.5665 -101.9957 C.3   1     UNK     0.0000
      8 O4         84.0053   17.9684 -102.6061 O.3   1     UNK     0.0000
      9 O5         85.1309   16.2165 -101.5585 O.3   1     UNK     0.0000
     10 C3         84.9070   15.3231 -102.6411 C.3   1     UNK     0.0000
     11 C4         84.7335   13.9063 -102.0745 C.3   1     UNK     0.0000
     12 O6         85.7397   13.0590 -102.5611 O.3   1     UNK     0.0000
     13 C5         86.0898   15.3682 -103.6415 C.3   1     UNK     0.0000
     14 O7         85.8761   14.5018 -104.7292 O.3   1     UNK     0.0000
     15 C6         86.3078   16.8122 -104.1378 C.3   1     UNK     0.0000
     16 O8         87.4483   16.8927 -104.9575 O.3   1     UNK     0.0000
     17 H1         85.5929   19.6189 -103.4911 H     1     UNK     0.0000
     18 H2         87.3369   17.4887 -102.3736 H     1     UNK     0.0000
     19 H3         85.3707   18.1959 -101.0949 H     1     UNK     0.0000
     20 H4         83.3039   17.9136 -101.9058 H     1     UNK     0.0000
     21 H5         85.9273   15.6662 -102.3523 H     1     UNK     0.0000
     22 H6         84.8126   13.9323 -100.9671 H     1     UNK     0.0000
     23 H7         83.7263   13.5047 -102.3329 H     1     UNK     0.0000
     24 H8         85.4523   12.7606 -103.4633 H     1     UNK     0.0000
     25 H9         87.0089   15.0326 -103.1110 H     1     UNK     0.0000
     26 H10        85.0390   14.7863 -105.1813 H     1     UNK     0.0000
     27 H11        85.4295   17.1159 -104.7503 H     1     UNK     0.0000
     28 H12        88.2344   16.6312 -104.4101 H     1     UNK     0.0000
@<TRIPOS>BOND
     1     1     2    1 
     2     2     3    1 
     3     2     4    2 
     4     2     5    1 
     5     5     6    1 
     6     6     7    1 
     7     7     8    1 
     8     7     9    1 
     9     9    10    1 
    10    10    11    1 
    11    11    12    1 
    12    10    13    1 
    13    13    14    1 
    14    13    15    1 
    15    15    16    1 
    16    15     6    1 
    17     5    17    1 
    18     6    18    1 
    19     7    19    1 
    20     8    20    1 
    21    10    21    1 
    22    11    22    1 
    23    11    23    1 
    24    12    24    1 
    25    13    25    1 
    26    14    26    1 
    27    15    27    1 
    28    16    28    1 
@<TRIPOS>MOLECULE
Molecule 2_var_30.mol2
    12     0
SMALL
NO_CHARGES
@<TRIPOS>ATOM
      1 DON        86.5293   19.1582 -103.4344 HB    0     HB      0.0000
      2 DON        84.0053   17.9684 -102.6061 HB    1     HB      0.0000
      3 DON        85.7397   13.0590 -102.5611 HB    2     HB      0.0000
      4 DON        85.8761   14.5018 -104.7292 HB    3     HB      0.0000
      5 DON        87.4483   16.8927 -104.9575 HB    4     HB      0.0000
      6 ACC        86.9354   20.1763 -100.8463 HB    5     HB      0.0000
      7 ACC        86.5293   19.1582 -103.4344 HB    6     HB      0.0000
      8 ACC        84.0053   17.9684 -102.6061 HB    7     HB      0.0000
      9 ACC        85.1309   16.2165 -101.5585 HB    8     HB      0.0000
     10 ACC        85.7397   13.0590 -102.5611 HB    9     HB      0.0000
     11 ACC        85.8761   14.5018 -104.7292 HB    10    HB      0.0000
     12 ACC        87.4483   16.8927 -104.9575 HB    11    HB      0.0000
@<TRIPOS>BOND
