@<TRIPOS>MOLECULE
Molecule Ligandos_final.mol2
     7     0
SMALL
NO_CHARGES
@<TRIPOS>ATOM
      1 ACC        84.0160   17.9720 -102.6190 HB    0     HB      0.0000
      3 ACC        87.3820   17.0370 -104.9250 HB    2     HB      0.0000
      4 ACC        85.4470   14.9380 -105.0970 HB    3     HB      0.0000
      5 ACC        85.1600   16.1740 -101.7130 HB    4     HB      0.0000
      8 ACC        85.1610   13.2300 -102.3910 HB    7     HB      0.0000
      9 ACC        87.3660   19.7930 -101.1770 HB    8     HB      0.0000
     14 AR         88.1912   22.4273 -103.4502 AR    13    AR      0.0000
@<TRIPOS>BOND
@<TRIPOS>MOLECULE
Ligandos_final.mol2
    33    35
SMALL
NO_CHARGES
@<TRIPOS>ATOM
      1 C1         85.2230   17.5630 -101.9920 C.2   1     6041    0.3220
      2 C1A        89.0200   22.4480 -104.5680 C.1   1     6041   -0.0153
      3 O1         84.0160   17.9720 -102.6190 O.2   1     6041   -0.2570
      4 C2         86.3940   17.7720 -102.9310 C.2   1     6041    0.1898
      5 C2A        88.5540   21.2500 -104.0630 C.1   1     6041   -0.0391
      6 N2         86.6000   19.1550 -103.2580 N.2   1     6041   -0.1980
      7 C3         86.1760   16.9900 -104.2010 C.2   1     6041    0.2597
      8 C3A        88.6500   23.6220 -103.9480 C.1   1     6041   -0.0372
      9 O3         87.3820   17.0370 -104.9250 O.2   1     6041   -0.2812
     10 C4         85.8590   15.5500 -103.8860 C.2   1     6041    0.2671
     11 C4A        87.3640   22.4070 -102.3320 C.1   1     6041   -0.0737
     12 O4         85.4470   14.9380 -105.0970 O.2   1     6041   -0.2802
     13 C5         84.7070   15.5670 -102.9120 C.2   1     6041    0.1946
     14 C5A        83.9070   10.8720  -99.5110 C.1   1     6041    0.0077
     15 O5         85.1600   16.1740 -101.7130 O.3   1     6041   -0.2588
     16 C6         84.1030   14.2150 -102.6080 C.1   1     6041   -0.0101
     17 C6A        87.7310   21.2420 -102.9530 C.2   1     6041    0.1355
     18 C7         83.5430    9.5360  -99.7910 C.2   1     6041    0.1408
     19 C8         87.8280   23.5950 -102.8370 C.2   1     6041    0.1116
     20 C9         84.1850    9.1680 -100.9490 C.2   1     6041    0.1550
     21 C10        84.7590   11.2570 -100.5220 C.2   1     6041   -0.3150
     22 C11        87.2160   19.9950 -102.3720 C.2   1     6041    0.2943
     23 C12        82.5860    8.6870  -98.9390 C.2   1     6041    0.2217
     24 C18        84.2100    7.9320 -101.7430 Hev   1     6041    0.0000
     25 N21        85.1610   13.2300 -102.3910 N.2   1     6041   -0.3188
     26 O22        82.3520    7.5240  -99.3970 O.co2 1     6041   -0.6434
     27 O23        87.3660   19.7930 -101.1770 O.2   1     6041   -0.2639
     28 O24        82.1260    9.2470  -97.8970 O.co2 1     6041   -0.6434
     29 O25        85.0120   13.6990  -99.8100 O.2   1     6041   -0.9312
     30 O26        86.9580   12.3860 -100.7750 O.2   1     6041   -0.9312
     31 O27        84.9320   10.2180 -101.3920 O.3   1     6041   -0.2348
     32 S32        85.5660   12.7780 -100.7890 S.O2  1     6041    2.4641
     33 BR         87.2890   25.1810 -101.9440 Br    1     6041   -0.0315
@<TRIPOS>BOND
     1     1     3    1 
     2     1    15    1 
     3     1     4    1 
     4     2     5    ar
     5     2     8    ar
     6     4     6    1 
     7     4     7    1 
     8     5    17    ar
     9     6    22    1 
    10     7     9    1 
    11     7    10    1 
    12     8    19    ar
    13    10    12    1 
    14    10    13    1 
    15    11    17    ar
    16    11    19    ar
    17    13    15    1 
    18    13    16    1 
    19    14    18    ar
    20    14    21    ar
    21    16    25    1 
    22    17    22    1 
    23    18    20    ar
    24    18    23    1 
    25    19    33    1 
    26    20    24    1 
    27    20    31    ar
    28    21    31    ar
    29    21    32    1 
    30    22    27    2 
    31    23    26    ar
    32    23    28    ar
    33    25    32    1 
    34    29    32    2 
    35    30    32    2 
@<TRIPOS>MOLECULE
Molecule Ligandos_final.mol2
    15     0
SMALL
NO_CHARGES
@<TRIPOS>ATOM
      1 ACC        84.0160   17.9720 -102.6190 HB    0     HB      0.0000
      2 ACC        86.6000   19.1550 -103.2580 HB    1     HB      0.0000
      3 ACC        87.3820   17.0370 -104.9250 HB    2     HB      0.0000
      4 ACC        85.4470   14.9380 -105.0970 HB    3     HB      0.0000
      5 ACC        85.1600   16.1740 -101.7130 HB    4     HB      0.0000
      6 ACC        82.3520    7.5240  -99.3970 HB    5     HB      0.0000
      7 ACC        82.1260    9.2470  -97.8970 HB    6     HB      0.0000
      8 ACC        85.1610   13.2300 -102.3910 HB    7     HB      0.0000
      9 ACC        87.3660   19.7930 -101.1770 HB    8     HB      0.0000
     10 ACC        85.0120   13.6990  -99.8100 HB    9     HB      0.0000
     11 ACC        86.9580   12.3860 -100.7750 HB    10    HB      0.0000
     12 ACC        84.9320   10.2180 -101.3920 HB    11    HB      0.0000
     13 ANI        82.5860    8.6870  -98.9390 CHG   12    CHG     0.2217
     14 AR         88.1912   22.4273 -103.4502 AR    13    AR      0.0000
     15 AR         84.2652   10.2102 -100.4330 AR    14    AR      0.0000
@<TRIPOS>BOND
@<TRIPOS>MOLECULE
2_var_11.mol2
    58    62
SMALL
NO_CHARGES
@<TRIPOS>ATOM
      1 C1         89.3492   20.7270 -105.0627 C.3   1     UNK     0.0000
      2 N1         88.7929   21.8628 -104.3236 N.ar  1     UNK     0.0000
      3 C2         87.9897   21.8170 -103.2326 C.ar  1     UNK     0.0000
      4 C3         87.4777   20.7028 -102.6445 C.ar  1     UNK     0.0000
      5 C4         87.5324   19.3423 -102.8590 C.ar  1     UNK     0.0000
      6 N2         86.6260   18.7958 -102.0312 N.ar  1     UNK     0.0000
      7 C5         86.3602   17.3651 -101.8554 C.3   1     UNK     0.0000
      8 C6         85.0723   17.1466 -101.0391 C.3   1     UNK     0.0000
      9 O1         83.9789   17.8082 -101.6260 O.3   1     UNK     0.0000
     10 O2         84.8059   15.7613 -100.8737 O.3   1     UNK     0.0000
     11 C7         84.5812   15.1122 -102.1182 C.3   1     UNK     0.0000
     12 C8         84.1803   13.6599 -101.8221 C.3   1     UNK     0.0000
     13 O3         84.9468   12.7718 -102.5881 O.3   1     UNK     0.0000
     14 C9         85.8480   15.1766 -103.0083 C.3   1     UNK     0.0000
     15 O4         85.5873   14.5852 -104.2558 O.3   1     UNK     0.0000
     16 C10        86.2588   16.6477 -103.2146 C.3   1     UNK     0.0000
     17 O5         87.4720   16.7387 -103.9203 O.3   1     UNK     0.0000
     18 N3         86.0579   19.7677 -101.3332 N.ar  1     UNK     0.0000
     19 N4         86.5565   20.9427 -101.6892 N.ar  1     UNK     0.0000
     20 N5         87.7124   23.0426 -102.7390 N.ar  1     UNK     0.0000
     21 C11        88.3541   23.8979 -103.5596 C.ar  1     UNK     0.0000
     22 C12        88.2920   25.3669 -103.3928 C.ar  1     UNK     0.0000
     23 C13        87.6390   25.9116 -102.2742 C.ar  1     UNK     0.0000
     24 C14        87.5624   27.2975 -102.1055 C.ar  1     UNK     0.0000
     25 C15        88.1250   28.1517 -103.0577 C.ar  1     UNK     0.0000
     26 F1         88.0489   29.4951 -102.8931 F     1     UNK     0.0000
     27 C16        88.7583   27.6201 -104.1841 C.ar  1     UNK     0.0000
     28 C17        88.8370   26.2350 -104.3565 C.ar  1     UNK     0.0000
     29 C18        89.0193   23.1774 -104.5419 C.ar  1     UNK     0.0000
     30 C19        89.9026   23.7256 -105.5929 C.ar  1     UNK     0.0000
     31 C20        90.9708   24.5674 -105.2526 C.ar  1     UNK     0.0000
     32 C21        91.7807   25.0922 -106.2622 C.ar  1     UNK     0.0000
     33 N6         91.5300   24.7897 -107.5638 N.ar  1     UNK     0.0000
     34 C22        90.4990   23.9788 -107.9211 C.ar  1     UNK     0.0000
     35 C23        89.6646   23.4331 -106.9429 C.ar  1     UNK     0.0000
     36 H1         90.1513   21.0483 -105.7572 H     1     UNK     0.0000
     37 H2         89.8048   20.0026 -104.3563 H     1     UNK     0.0000
     38 H3         88.5452   20.2300 -105.6445 H     1     UNK     0.0000
     39 H4         88.1761   18.7999 -103.5400 H     1     UNK     0.0000
     40 H5         86.7985   16.8077 -102.7149 H     1     UNK     0.0000
     41 H6         85.2465   17.5807 -100.0285 H     1     UNK     0.0000
     42 H7         83.2249   17.7230 -100.9864 H     1     UNK     0.0000
     43 H8         83.7245   15.5853 -102.6519 H     1     UNK     0.0000
     44 H9         85.0484   13.1044 -101.4002 H     1     UNK     0.0000
     45 H10        83.3640   13.6590 -101.0654 H     1     UNK     0.0000
     46 H11        84.6487   11.8601 -102.3334 H     1     UNK     0.0000
     47 H12        86.6715   14.6304 -102.4888 H     1     UNK     0.0000
     48 H13        86.4655   14.3414 -104.6478 H     1     UNK     0.0000
     49 H14        85.4725   17.1431 -103.8265 H     1     UNK     0.0000
     50 H15        88.1717   16.2890 -103.3783 H     1     UNK     0.0000
     51 H16        87.2001   25.2644 -101.5250 H     1     UNK     0.0000
     52 H17        87.0658   27.7083 -101.2358 H     1     UNK     0.0000
     53 H18        89.1821   28.2812 -104.9291 H     1     UNK     0.0000
     54 H19        89.3029   25.8470 -105.2525 H     1     UNK     0.0000
     55 H20        91.1754   24.8119 -104.2173 H     1     UNK     0.0000
     56 H21        92.6085   25.7416 -106.0109 H     1     UNK     0.0000
     57 H22        90.3241   23.7604 -108.9663 H     1     UNK     0.0000
     58 H23        88.8373   22.7977 -107.2343 H     1     UNK     0.0000
@<TRIPOS>BOND
     1     1     2    1 
     2     2     3    ar
     3     3     4    1 
     4     4     5    ar
     5     5     6    ar
     6     6     7    1 
     7     7     8    1 
     8     8     9    1 
     9     8    10    1 
    10    10    11    1 
    11    11    12    1 
    12    12    13    1 
    13    11    14    1 
    14    14    15    1 
    15    14    16    1 
    16    16    17    1 
    17     6    18    ar
    18    18    19    ar
    19     3    20    ar
    20    20    21    ar
    21    21    22    1 
    22    22    23    ar
    23    23    24    ar
    24    24    25    ar
    25    25    26    1 
    26    25    27    ar
    27    27    28    ar
    28    21    29    ar
    29    29    30    1 
    30    30    31    ar
    31    31    32    ar
    32    32    33    ar
    33    33    34    ar
    34    34    35    ar
    35    29     2    ar
    36    35    30    ar
    37    19     4    ar
    38    28    22    ar
    39    16     7    1 
    40     1    36    1 
    41     1    37    1 
    42     1    38    1 
    43     5    39    1 
    44     7    40    1 
    45     8    41    1 
    46     9    42    1 
    47    11    43    1 
    48    12    44    1 
    49    12    45    1 
    50    13    46    1 
    51    14    47    1 
    52    15    48    1 
    53    16    49    1 
    54    17    50    1 
    55    23    51    1 
    56    24    52    1 
    57    27    53    1 
    58    28    54    1 
    59    31    55    1 
    60    32    56    1 
    61    34    57    1 
    62    35    58    1 
@<TRIPOS>MOLECULE
Molecule 2_var_11.mol2
    20     0
SMALL
NO_CHARGES
@<TRIPOS>ATOM
      1 DON        83.9789   17.8082 -101.6260 HB    0     HB      0.0000
      2 DON        84.9468   12.7718 -102.5881 HB    1     HB      0.0000
      3 DON        85.5873   14.5852 -104.2558 HB    2     HB      0.0000
      4 DON        87.4720   16.7387 -103.9203 HB    3     HB      0.0000
      5 ACC        83.9789   17.8082 -101.6260 HB    4     HB      0.0000
      6 ACC        84.8059   15.7613 -100.8737 HB    5     HB      0.0000
      7 ACC        84.9468   12.7718 -102.5881 HB    6     HB      0.0000
      8 ACC        85.5873   14.5852 -104.2558 HB    7     HB      0.0000
      9 ACC        87.4720   16.7387 -103.9203 HB    8     HB      0.0000
     10 ACC        86.0579   19.7677 -101.3332 HB    9     HB      0.0000
     11 ACC        86.5565   20.9427 -101.6892 HB    10    HB      0.0000
     12 ACC        87.7124   23.0426 -102.7390 HB    11    HB      0.0000
     13 ACC        91.5300   24.7897 -107.5638 HB    12    HB      0.0000
     14 CAT        88.7929   21.8628 -104.3236 CHG   13    CHG     0.0000
     15 CAT        86.6260   18.7958 -102.0312 CHG   14    CHG     0.0000
     16 AR         88.3737   22.7596 -103.6793 AR    15    AR      0.0000
     17 AR         86.8501   19.9103 -102.1114 AR    16    AR      0.0000
     18 AR         88.2023   26.7638 -103.2285 AR    17    AR      0.0000
     19 AR         90.7246   24.2645 -106.5892 AR    18    AR      0.0000
     20 HYD        89.3492   20.7270 -105.0627 HYD   19    HYD     0.0000
@<TRIPOS>BOND
