@<TRIPOS>MOLECULE
Molecule Ligandos_final.mol2
     6     0
SMALL
NO_CHARGES
@<TRIPOS>ATOM
      1 ACC        84.0160   17.9720 -102.6190 HB    0     HB      0.0000
      4 ACC        85.4470   14.9380 -105.0970 HB    3     HB      0.0000
      5 ACC        85.1600   16.1740 -101.7130 HB    4     HB      0.0000
      8 ACC        85.1610   13.2300 -102.3910 HB    7     HB      0.0000
      9 ACC        87.3660   19.7930 -101.1770 HB    8     HB      0.0000
     14 AR         88.1912   22.4273 -103.4502 AR    13    AR      0.0000
@<TRIPOS>BOND
@<TRIPOS>MOLECULE
Ligandos_final.mol2
    33    35
SMALL
NO_CHARGES
@<TRIPOS>ATOM
      1 C1         85.2230   17.5630 -101.9920 C.2   1     6041    0.3220
      2 C1A        89.0200   22.4480 -104.5680 C.1   1     6041   -0.0153
      3 O1         84.0160   17.9720 -102.6190 O.2   1     6041   -0.2570
      4 C2         86.3940   17.7720 -102.9310 C.2   1     6041    0.1898
      5 C2A        88.5540   21.2500 -104.0630 C.1   1     6041   -0.0391
      6 N2         86.6000   19.1550 -103.2580 N.2   1     6041   -0.1980
      7 C3         86.1760   16.9900 -104.2010 C.2   1     6041    0.2597
      8 C3A        88.6500   23.6220 -103.9480 C.1   1     6041   -0.0372
      9 O3         87.3820   17.0370 -104.9250 O.2   1     6041   -0.2812
     10 C4         85.8590   15.5500 -103.8860 C.2   1     6041    0.2671
     11 C4A        87.3640   22.4070 -102.3320 C.1   1     6041   -0.0737
     12 O4         85.4470   14.9380 -105.0970 O.2   1     6041   -0.2802
     13 C5         84.7070   15.5670 -102.9120 C.2   1     6041    0.1946
     14 C5A        83.9070   10.8720  -99.5110 C.1   1     6041    0.0077
     15 O5         85.1600   16.1740 -101.7130 O.3   1     6041   -0.2588
     16 C6         84.1030   14.2150 -102.6080 C.1   1     6041   -0.0101
     17 C6A        87.7310   21.2420 -102.9530 C.2   1     6041    0.1355
     18 C7         83.5430    9.5360  -99.7910 C.2   1     6041    0.1408
     19 C8         87.8280   23.5950 -102.8370 C.2   1     6041    0.1116
     20 C9         84.1850    9.1680 -100.9490 C.2   1     6041    0.1550
     21 C10        84.7590   11.2570 -100.5220 C.2   1     6041   -0.3150
     22 C11        87.2160   19.9950 -102.3720 C.2   1     6041    0.2943
     23 C12        82.5860    8.6870  -98.9390 C.2   1     6041    0.2217
     24 C18        84.2100    7.9320 -101.7430 Hev   1     6041    0.0000
     25 N21        85.1610   13.2300 -102.3910 N.2   1     6041   -0.3188
     26 O22        82.3520    7.5240  -99.3970 O.co2 1     6041   -0.6434
     27 O23        87.3660   19.7930 -101.1770 O.2   1     6041   -0.2639
     28 O24        82.1260    9.2470  -97.8970 O.co2 1     6041   -0.6434
     29 O25        85.0120   13.6990  -99.8100 O.2   1     6041   -0.9312
     30 O26        86.9580   12.3860 -100.7750 O.2   1     6041   -0.9312
     31 O27        84.9320   10.2180 -101.3920 O.3   1     6041   -0.2348
     32 S32        85.5660   12.7780 -100.7890 S.O2  1     6041    2.4641
     33 BR         87.2890   25.1810 -101.9440 Br    1     6041   -0.0315
@<TRIPOS>BOND
     1     1     3    1 
     2     1    15    1 
     3     1     4    1 
     4     2     5    ar
     5     2     8    ar
     6     4     6    1 
     7     4     7    1 
     8     5    17    ar
     9     6    22    1 
    10     7     9    1 
    11     7    10    1 
    12     8    19    ar
    13    10    12    1 
    14    10    13    1 
    15    11    17    ar
    16    11    19    ar
    17    13    15    1 
    18    13    16    1 
    19    14    18    ar
    20    14    21    ar
    21    16    25    1 
    22    17    22    1 
    23    18    20    ar
    24    18    23    1 
    25    19    33    1 
    26    20    24    1 
    27    20    31    ar
    28    21    31    ar
    29    21    32    1 
    30    22    27    2 
    31    23    26    ar
    32    23    28    ar
    33    25    32    1 
    34    29    32    2 
    35    30    32    2 
@<TRIPOS>MOLECULE
Molecule Ligandos_final.mol2
    15     0
SMALL
NO_CHARGES
@<TRIPOS>ATOM
      1 ACC        84.0160   17.9720 -102.6190 HB    0     HB      0.0000
      2 ACC        86.6000   19.1550 -103.2580 HB    1     HB      0.0000
      3 ACC        87.3820   17.0370 -104.9250 HB    2     HB      0.0000
      4 ACC        85.4470   14.9380 -105.0970 HB    3     HB      0.0000
      5 ACC        85.1600   16.1740 -101.7130 HB    4     HB      0.0000
      6 ACC        82.3520    7.5240  -99.3970 HB    5     HB      0.0000
      7 ACC        82.1260    9.2470  -97.8970 HB    6     HB      0.0000
      8 ACC        85.1610   13.2300 -102.3910 HB    7     HB      0.0000
      9 ACC        87.3660   19.7930 -101.1770 HB    8     HB      0.0000
     10 ACC        85.0120   13.6990  -99.8100 HB    9     HB      0.0000
     11 ACC        86.9580   12.3860 -100.7750 HB    10    HB      0.0000
     12 ACC        84.9320   10.2180 -101.3920 HB    11    HB      0.0000
     13 ANI        82.5860    8.6870  -98.9390 CHG   12    CHG     0.2217
     14 AR         88.1912   22.4273 -103.4502 AR    13    AR      0.0000
     15 AR         84.2652   10.2102 -100.4330 AR    14    AR      0.0000
@<TRIPOS>BOND
@<TRIPOS>MOLECULE
2_var_275.mol2
    49    50
SMALL
NO_CHARGES
@<TRIPOS>ATOM
      1 H1         86.3779   20.4799 -100.2320 H     1     UNK     0.0000
      2 O1         86.5461   19.7239 -100.8827 O.3   1     UNK     0.0000
      3 C1         87.0858   19.9335 -102.1548 C.2   1     UNK     0.0000
      4 N1         87.1648   18.9438 -102.9939 N.2   1     UNK     0.0000
      5 C2         86.6453   17.6363 -102.4749 C.3   1     UNK     0.0000
      6 H2         85.7568   17.5937 -102.1754 H     1     UNK     0.0000
      7 C3         86.6656   16.7707 -103.7526 C.3   1     UNK     0.0000
      8 H3         87.7145   16.7531 -104.1314 H     1     UNK     0.0000
      9 O2         85.7139   17.3418 -104.6676 O.3   1     UNK     0.0000
     10 S1         84.1301   17.0421 -104.1345 S.o2  1     UNK     0.0000
     11 O3         83.4484   18.3288 -103.7624 O.2   1     UNK     0.0000
     12 O4         83.3390   16.3407 -105.2031 O.2   1     UNK     0.0000
     13 C4         84.2085   15.9986 -102.6982 C.3   1     UNK     0.0000
     14 H4         83.1818   15.7893 -102.3332 H     1     UNK     0.0000
     15 H5         84.7869   16.5096 -101.9010 H     1     UNK     0.0000
     16 H6         84.7089   15.0439 -102.9611 H     1     UNK     0.0000
     17 C5         86.2774   15.3226 -103.3891 C.3   1     UNK     0.0000
     18 H7         87.0848   14.8846 -102.7538 H     1     UNK     0.0000
     19 O5         86.1242   14.5574 -104.5569 O.3   1     UNK     0.0000
     20 H8         87.0377   14.3175 -104.8629 H     1     UNK     0.0000
     21 C6         84.9620   15.3121 -102.5745 C.3   1     UNK     0.0000
     22 H9         85.9562   15.5427 -102.1239 H     1     UNK     0.0000
     23 C7         84.5945   13.8817 -102.1529 C.3   1     UNK     0.0000
     24 H10        84.5206   13.8232 -101.0463 H     1     UNK     0.0000
     25 H11        83.6034   13.5942 -102.5745 H     1     UNK     0.0000
     26 O6         85.5852   12.9804 -102.5691 O.3   1     UNK     0.0000
     27 H12        85.4055   12.7773 -103.5242 H     1     UNK     0.0000
     28 O7         85.1053   16.1020 -101.4056 O.3   1     UNK     0.0000
     29 C8         85.3027   17.4655 -101.7416 C.3   1     UNK     0.0000
     30 H13        84.4862   17.8343 -102.4129 H     1     UNK     0.0000
     31 O8         85.3504   18.2262 -100.5485 O.3   1     UNK     0.0000
     32 C9         84.0488   18.4940 -100.0609 C.3   1     UNK     0.0000
     33 H14        84.0930   18.5020  -98.9515 H     1     UNK     0.0000
     34 H15        83.2975   17.7183 -100.3425 H     1     UNK     0.0000
     35 C10        83.5855   19.8695 -100.5285 C.3   1     UNK     0.0000
     36 H16        84.3135   20.6445 -100.2073 H     1     UNK     0.0000
     37 H17        82.5941   20.1011 -100.0854 H     1     UNK     0.0000
     38 H18        83.4968   19.8931 -101.6347 H     1     UNK     0.0000
     39 C11        87.7202   21.2144 -102.9160 C.ar  1     UNK     0.0000
     40 C12        88.5506   21.2292 -104.0523 C.ar  1     UNK     0.0000
     41 H19        88.8182   20.3127 -104.5604 H     1     UNK     0.0000
     42 C13        89.0204   22.4405 -104.5699 C.ar  1     UNK     0.0000
     43 H20        89.6561   22.4431 -105.4460 H     1     UNK     0.0000
     44 C14        88.6644   23.6476 -103.9649 C.ar  1     UNK     0.0000
     45 H21        89.0288   24.5835 -104.3682 H     1     UNK     0.0000
     46 C15        87.8327   23.6470 -102.8432 C.ar  1     UNK     0.0000
     47 H22        87.5544   24.5833 -102.3768 H     1     UNK     0.0000
     48 C16        87.3589   22.4395 -102.3219 C.ar  1     UNK     0.0000
     49 H23        86.7187   22.4634 -101.4484 H     1     UNK     0.0000
@<TRIPOS>BOND
     1     1     2    1 
     2     2     3    1 
     3     3     4    2 
     4     4     5    1 
     5     5     6    1 
     6     5     7    1 
     7     7     8    1 
     8     7     9    1 
     9     9    10    1 
    10    10    11    2 
    11    10    12    2 
    12    10    13    1 
    13    13    14    1 
    14    13    15    1 
    15    13    16    1 
    16     7    17    1 
    17    17    18    1 
    18    17    19    1 
    19    19    20    1 
    20    17    21    1 
    21    21    22    1 
    22    21    23    1 
    23    23    24    1 
    24    23    25    1 
    25    23    26    1 
    26    26    27    1 
    27    21    28    1 
    28    28    29    1 
    29    29    30    1 
    30    29    31    1 
    31    31    32    1 
    32    32    33    1 
    33    32    34    1 
    34    32    35    1 
    35    35    36    1 
    36    35    37    1 
    37    35    38    1 
    38     3    39    1 
    39    39    40    ar
    40    40    41    1 
    41    40    42    ar
    42    42    43    1 
    43    42    44    ar
    44    44    45    1 
    45    44    46    ar
    46    46    47    1 
    47    46    48    ar
    48    48    49    1 
    49    29     5    1 
    50    48    39    ar
@<TRIPOS>MOLECULE
Molecule 2_var_275.mol2
    15     0
SMALL
NO_CHARGES
@<TRIPOS>ATOM
      1 DON        86.5461   19.7239 -100.8827 HB    0     HB      0.0000
      2 DON        86.1242   14.5574 -104.5569 HB    1     HB      0.0000
      3 DON        85.5852   12.9804 -102.5691 HB    2     HB      0.0000
      4 ACC        86.5461   19.7239 -100.8827 HB    3     HB      0.0000
      5 ACC        87.1648   18.9438 -102.9939 HB    4     HB      0.0000
      6 ACC        85.7326   17.2907 -104.6862 HB    5     HB      0.0000
      7 ACC        83.4484   18.3288 -103.7624 HB    6     HB      0.0000
      8 ACC        83.3390   16.3407 -105.2031 HB    7     HB      0.0000
      9 ACC        86.1242   14.5574 -104.5569 HB    8     HB      0.0000
     10 ACC        85.5852   12.9804 -102.5691 HB    9     HB      0.0000
     11 ACC        85.1053   16.1020 -101.4056 HB    10    HB      0.0000
     12 ACC        85.3504   18.2262 -100.5485 HB    11    HB      0.0000
     13 AR         88.1912   22.4363 -103.4447 AR    12    AR      0.0000
     14 HYD        84.2085   15.9986 -102.6982 HYD   13    HYD     0.0000
     15 HYD        83.5855   19.8695 -100.5285 HYD   14    HYD     0.0000
@<TRIPOS>BOND
