@<TRIPOS>MOLECULE
Molecule Ligandos_final.mol2
     6     0
SMALL
NO_CHARGES
@<TRIPOS>ATOM
      1 ACC        84.0160   17.9720 -102.6190 HB    0     HB      0.0000
      3 ACC        87.3820   17.0370 -104.9250 HB    2     HB      0.0000
      4 ACC        85.4470   14.9380 -105.0970 HB    3     HB      0.0000
      5 ACC        85.1600   16.1740 -101.7130 HB    4     HB      0.0000
      8 ACC        85.1610   13.2300 -102.3910 HB    7     HB      0.0000
     14 AR         88.1912   22.4273 -103.4502 AR    13    AR      0.0000
@<TRIPOS>BOND
@<TRIPOS>MOLECULE
Ligandos_final.mol2
    33    35
SMALL
NO_CHARGES
@<TRIPOS>ATOM
      1 C1         85.2230   17.5630 -101.9920 C.2   1     6041    0.3220
      2 C1A        89.0200   22.4480 -104.5680 C.1   1     6041   -0.0153
      3 O1         84.0160   17.9720 -102.6190 O.2   1     6041   -0.2570
      4 C2         86.3940   17.7720 -102.9310 C.2   1     6041    0.1898
      5 C2A        88.5540   21.2500 -104.0630 C.1   1     6041   -0.0391
      6 N2         86.6000   19.1550 -103.2580 N.2   1     6041   -0.1980
      7 C3         86.1760   16.9900 -104.2010 C.2   1     6041    0.2597
      8 C3A        88.6500   23.6220 -103.9480 C.1   1     6041   -0.0372
      9 O3         87.3820   17.0370 -104.9250 O.2   1     6041   -0.2812
     10 C4         85.8590   15.5500 -103.8860 C.2   1     6041    0.2671
     11 C4A        87.3640   22.4070 -102.3320 C.1   1     6041   -0.0737
     12 O4         85.4470   14.9380 -105.0970 O.2   1     6041   -0.2802
     13 C5         84.7070   15.5670 -102.9120 C.2   1     6041    0.1946
     14 C5A        83.9070   10.8720  -99.5110 C.1   1     6041    0.0077
     15 O5         85.1600   16.1740 -101.7130 O.3   1     6041   -0.2588
     16 C6         84.1030   14.2150 -102.6080 C.1   1     6041   -0.0101
     17 C6A        87.7310   21.2420 -102.9530 C.2   1     6041    0.1355
     18 C7         83.5430    9.5360  -99.7910 C.2   1     6041    0.1408
     19 C8         87.8280   23.5950 -102.8370 C.2   1     6041    0.1116
     20 C9         84.1850    9.1680 -100.9490 C.2   1     6041    0.1550
     21 C10        84.7590   11.2570 -100.5220 C.2   1     6041   -0.3150
     22 C11        87.2160   19.9950 -102.3720 C.2   1     6041    0.2943
     23 C12        82.5860    8.6870  -98.9390 C.2   1     6041    0.2217
     24 C18        84.2100    7.9320 -101.7430 Hev   1     6041    0.0000
     25 N21        85.1610   13.2300 -102.3910 N.2   1     6041   -0.3188
     26 O22        82.3520    7.5240  -99.3970 O.co2 1     6041   -0.6434
     27 O23        87.3660   19.7930 -101.1770 O.2   1     6041   -0.2639
     28 O24        82.1260    9.2470  -97.8970 O.co2 1     6041   -0.6434
     29 O25        85.0120   13.6990  -99.8100 O.2   1     6041   -0.9312
     30 O26        86.9580   12.3860 -100.7750 O.2   1     6041   -0.9312
     31 O27        84.9320   10.2180 -101.3920 O.3   1     6041   -0.2348
     32 S32        85.5660   12.7780 -100.7890 S.O2  1     6041    2.4641
     33 BR         87.2890   25.1810 -101.9440 Br    1     6041   -0.0315
@<TRIPOS>BOND
     1     1     3    1 
     2     1    15    1 
     3     1     4    1 
     4     2     5    ar
     5     2     8    ar
     6     4     6    1 
     7     4     7    1 
     8     5    17    ar
     9     6    22    1 
    10     7     9    1 
    11     7    10    1 
    12     8    19    ar
    13    10    12    1 
    14    10    13    1 
    15    11    17    ar
    16    11    19    ar
    17    13    15    1 
    18    13    16    1 
    19    14    18    ar
    20    14    21    ar
    21    16    25    1 
    22    17    22    1 
    23    18    20    ar
    24    18    23    1 
    25    19    33    1 
    26    20    24    1 
    27    20    31    ar
    28    21    31    ar
    29    21    32    1 
    30    22    27    2 
    31    23    26    ar
    32    23    28    ar
    33    25    32    1 
    34    29    32    2 
    35    30    32    2 
@<TRIPOS>MOLECULE
Molecule Ligandos_final.mol2
    15     0
SMALL
NO_CHARGES
@<TRIPOS>ATOM
      1 ACC        84.0160   17.9720 -102.6190 HB    0     HB      0.0000
      2 ACC        86.6000   19.1550 -103.2580 HB    1     HB      0.0000
      3 ACC        87.3820   17.0370 -104.9250 HB    2     HB      0.0000
      4 ACC        85.4470   14.9380 -105.0970 HB    3     HB      0.0000
      5 ACC        85.1600   16.1740 -101.7130 HB    4     HB      0.0000
      6 ACC        82.3520    7.5240  -99.3970 HB    5     HB      0.0000
      7 ACC        82.1260    9.2470  -97.8970 HB    6     HB      0.0000
      8 ACC        85.1610   13.2300 -102.3910 HB    7     HB      0.0000
      9 ACC        87.3660   19.7930 -101.1770 HB    8     HB      0.0000
     10 ACC        85.0120   13.6990  -99.8100 HB    9     HB      0.0000
     11 ACC        86.9580   12.3860 -100.7750 HB    10    HB      0.0000
     12 ACC        84.9320   10.2180 -101.3920 HB    11    HB      0.0000
     13 ANI        82.5860    8.6870  -98.9390 CHG   12    CHG     0.2217
     14 AR         88.1912   22.4273 -103.4502 AR    13    AR      0.0000
     15 AR         84.2652   10.2102 -100.4330 AR    14    AR      0.0000
@<TRIPOS>BOND
@<TRIPOS>MOLECULE
2_var_50.mol2
    50    52
SMALL
NO_CHARGES
@<TRIPOS>ATOM
      1 H1         85.1940   11.6215 -100.5928 H     1     UNK     0.0000
      2 O1         85.5518   12.3474 -101.2021 O.3   1     UNK     0.0000
      3 C1         84.7654   13.4291 -101.5909 C.2   1     UNK     0.0000
      4 N1         85.2993   14.3306 -102.3647 N.2   1     UNK     0.0000
      5 C2         84.6758   15.5593 -102.8736 C.3   1     UNK     0.0000
      6 H2         83.6171   15.3663 -103.1435 H     1     UNK     0.0000
      7 C3         84.7692   16.6857 -101.8170 C.3   1     UNK     0.0000
      8 H3         85.5573   16.4560 -102.5613 H     1     UNK     0.0000
      9 O2         84.0719   17.8658 -102.2409 O.3   1     UNK     0.0000
     10 C4         84.6560   19.0870 -102.6147 C.ar  1     UNK     0.0000
     11 C5         84.0274   20.2673 -102.2018 C.ar  1     UNK     0.0000
     12 H4         83.1207   20.2158 -101.6123 H     1     UNK     0.0000
     13 C6         84.5599   21.5152 -102.5346 C.ar  1     UNK     0.0000
     14 H5         84.0540   22.4123 -102.1976 H     1     UNK     0.0000
     15 C7         85.7350   21.6000 -103.2938 C.ar  1     UNK     0.0000
     16 C8         86.2803   22.8478 -103.6319 C.ar  1     UNK     0.0000
     17 H6         85.7965   23.7615 -103.3064 H     1     UNK     0.0000
     18 C9         87.4534   22.9311 -104.3917 C.ar  1     UNK     0.0000
     19 O3         87.9559   24.2038 -104.7011 O.3   1     UNK     0.0000
     20 C10        89.1354   24.4395 -105.4631 C.3   1     UNK     0.0000
     21 H7         90.0148   23.9916 -104.9540 H     1     UNK     0.0000
     22 H8         89.2963   25.5333 -105.5534 H     1     UNK     0.0000
     23 H9         89.0238   24.0113 -106.4817 H     1     UNK     0.0000
     24 C11        88.0857   21.7471 -104.8173 C.ar  1     UNK     0.0000
     25 H10        88.9928   21.7798 -105.4051 H     1     UNK     0.0000
     26 C12        87.5494   20.5000 -104.4856 C.ar  1     UNK     0.0000
     27 H11        88.0536   19.6020 -104.8235 H     1     UNK     0.0000
     28 C13        86.3750   20.4152 -103.7241 C.ar  1     UNK     0.0000
     29 C14        85.8303   19.1668 -103.3866 C.ar  1     UNK     0.0000
     30 H12        86.3207   18.2707 -103.7321 H     1     UNK     0.0000
     31 O4         86.1264   16.9928 -101.5367 O.3   1     UNK     0.0000
     32 C15        86.7993   17.5062 -102.6786 C.3   1     UNK     0.0000
     33 H13        86.2938   18.4300 -103.0433 H     1     UNK     0.0000
     34 C16        88.2157   17.9311 -102.2576 C.3   1     UNK     0.0000
     35 H14        88.7386   18.4065 -103.1141 H     1     UNK     0.0000
     36 H15        88.1522   18.6980 -101.4519 H     1     UNK     0.0000
     37 O5         88.9694   16.8304 -101.8223 O.3   1     UNK     0.0000
     38 H16        88.6758   16.6309 -100.8953 H     1     UNK     0.0000
     39 C17        86.8349   16.4633 -103.8242 C.3   1     UNK     0.0000
     40 H17        87.4198   15.5699 -103.4967 H     1     UNK     0.0000
     41 O6         87.4065   17.0288 -104.9774 O.3   1     UNK     0.0000
     42 H18        88.3763   16.8181 -104.9573 H     1     UNK     0.0000
     43 C18        85.4059   16.0062 -104.1539 C.3   1     UNK     0.0000
     44 H19        84.8556   16.8679 -104.6027 H     1     UNK     0.0000
     45 O7         85.4538   14.9539 -105.0830 O.3   1     UNK     0.0000
     46 H20        84.5367   14.8552 -105.4508 H     1     UNK     0.0000
     47 C19        83.3471   13.5201 -101.0980 C.3   1     UNK     0.0000
     48 H21        82.6472   13.7085 -101.9374 H     1     UNK     0.0000
     49 H22        83.0433   12.5639 -100.6233 H     1     UNK     0.0000
     50 H23        83.2606   14.3196 -100.3360 H     1     UNK     0.0000
@<TRIPOS>BOND
     1     1     2    1 
     2     2     3    1 
     3     3     4    2 
     4     4     5    1 
     5     5     6    1 
     6     5     7    1 
     7     7     8    1 
     8     7     9    1 
     9     9    10    1 
    10    10    11    ar
    11    11    12    1 
    12    11    13    ar
    13    13    14    1 
    14    13    15    ar
    15    15    16    ar
    16    16    17    1 
    17    16    18    ar
    18    18    19    1 
    19    19    20    1 
    20    20    21    1 
    21    20    22    1 
    22    20    23    1 
    23    18    24    ar
    24    24    25    1 
    25    24    26    ar
    26    26    27    1 
    27    26    28    ar
    28    28    29    ar
    29    29    30    1 
    30     7    31    1 
    31    31    32    1 
    32    32    33    1 
    33    32    34    1 
    34    34    35    1 
    35    34    36    1 
    36    34    37    1 
    37    37    38    1 
    38    32    39    1 
    39    39    40    1 
    40    39    41    1 
    41    41    42    1 
    42    39    43    1 
    43    43    44    1 
    44    43    45    1 
    45    45    46    1 
    46     3    47    1 
    47    47    48    1 
    48    47    49    1 
    49    47    50    1 
    50    43     5    1 
    51    29    10    ar
    52    28    15    ar
@<TRIPOS>MOLECULE
Molecule 2_var_50.mol2
    16     0
SMALL
NO_CHARGES
@<TRIPOS>ATOM
      1 DON        85.5518   12.3474 -101.2021 HB    0     HB      0.0000
      2 DON        88.9694   16.8304 -101.8223 HB    1     HB      0.0000
      3 DON        87.4065   17.0288 -104.9774 HB    2     HB      0.0000
      4 DON        85.4538   14.9539 -105.0830 HB    3     HB      0.0000
      5 ACC        85.5518   12.3474 -101.2021 HB    4     HB      0.0000
      6 ACC        85.2993   14.3306 -102.3647 HB    5     HB      0.0000
      7 ACC        84.0719   17.8658 -102.2409 HB    6     HB      0.0000
      8 ACC        87.9559   24.2038 -104.7011 HB    7     HB      0.0000
      9 ACC        86.1264   16.9928 -101.5367 HB    8     HB      0.0000
     10 ACC        88.9694   16.8304 -101.8223 HB    9     HB      0.0000
     11 ACC        87.4065   17.0288 -104.9774 HB    10    HB      0.0000
     12 ACC        85.4538   14.9539 -105.0830 HB    11    HB      0.0000
     13 AR         85.1973   20.3419 -102.9593 AR    12    AR      0.0000
     14 AR         86.9131   21.6735 -104.0574 AR    13    AR      0.0000
     15 HYD        89.1354   24.4395 -105.4631 HYD   14    HYD     0.0000
     16 HYD        83.3471   13.5201 -101.0980 HYD   15    HYD     0.0000
@<TRIPOS>BOND
