@<TRIPOS>MOLECULE
Molecule Ligandos_final.mol2
     6     0
SMALL
NO_CHARGES
@<TRIPOS>ATOM
      1 ACC        84.0160   17.9720 -102.6190 HB    0     HB      0.0000
      3 ACC        87.3820   17.0370 -104.9250 HB    2     HB      0.0000
      4 ACC        85.4470   14.9380 -105.0970 HB    3     HB      0.0000
      5 ACC        85.1600   16.1740 -101.7130 HB    4     HB      0.0000
      9 ACC        87.3660   19.7930 -101.1770 HB    8     HB      0.0000
     14 AR         88.1912   22.4273 -103.4502 AR    13    AR      0.0000
@<TRIPOS>BOND
@<TRIPOS>MOLECULE
Ligandos_final.mol2
    33    35
SMALL
NO_CHARGES
@<TRIPOS>ATOM
      1 C1         85.2230   17.5630 -101.9920 C.2   1     6041    0.3220
      2 C1A        89.0200   22.4480 -104.5680 C.1   1     6041   -0.0153
      3 O1         84.0160   17.9720 -102.6190 O.2   1     6041   -0.2570
      4 C2         86.3940   17.7720 -102.9310 C.2   1     6041    0.1898
      5 C2A        88.5540   21.2500 -104.0630 C.1   1     6041   -0.0391
      6 N2         86.6000   19.1550 -103.2580 N.2   1     6041   -0.1980
      7 C3         86.1760   16.9900 -104.2010 C.2   1     6041    0.2597
      8 C3A        88.6500   23.6220 -103.9480 C.1   1     6041   -0.0372
      9 O3         87.3820   17.0370 -104.9250 O.2   1     6041   -0.2812
     10 C4         85.8590   15.5500 -103.8860 C.2   1     6041    0.2671
     11 C4A        87.3640   22.4070 -102.3320 C.1   1     6041   -0.0737
     12 O4         85.4470   14.9380 -105.0970 O.2   1     6041   -0.2802
     13 C5         84.7070   15.5670 -102.9120 C.2   1     6041    0.1946
     14 C5A        83.9070   10.8720  -99.5110 C.1   1     6041    0.0077
     15 O5         85.1600   16.1740 -101.7130 O.3   1     6041   -0.2588
     16 C6         84.1030   14.2150 -102.6080 C.1   1     6041   -0.0101
     17 C6A        87.7310   21.2420 -102.9530 C.2   1     6041    0.1355
     18 C7         83.5430    9.5360  -99.7910 C.2   1     6041    0.1408
     19 C8         87.8280   23.5950 -102.8370 C.2   1     6041    0.1116
     20 C9         84.1850    9.1680 -100.9490 C.2   1     6041    0.1550
     21 C10        84.7590   11.2570 -100.5220 C.2   1     6041   -0.3150
     22 C11        87.2160   19.9950 -102.3720 C.2   1     6041    0.2943
     23 C12        82.5860    8.6870  -98.9390 C.2   1     6041    0.2217
     24 C18        84.2100    7.9320 -101.7430 Hev   1     6041    0.0000
     25 N21        85.1610   13.2300 -102.3910 N.2   1     6041   -0.3188
     26 O22        82.3520    7.5240  -99.3970 O.co2 1     6041   -0.6434
     27 O23        87.3660   19.7930 -101.1770 O.2   1     6041   -0.2639
     28 O24        82.1260    9.2470  -97.8970 O.co2 1     6041   -0.6434
     29 O25        85.0120   13.6990  -99.8100 O.2   1     6041   -0.9312
     30 O26        86.9580   12.3860 -100.7750 O.2   1     6041   -0.9312
     31 O27        84.9320   10.2180 -101.3920 O.3   1     6041   -0.2348
     32 S32        85.5660   12.7780 -100.7890 S.O2  1     6041    2.4641
     33 BR         87.2890   25.1810 -101.9440 Br    1     6041   -0.0315
@<TRIPOS>BOND
     1     1     3    1 
     2     1    15    1 
     3     1     4    1 
     4     2     5    ar
     5     2     8    ar
     6     4     6    1 
     7     4     7    1 
     8     5    17    ar
     9     6    22    1 
    10     7     9    1 
    11     7    10    1 
    12     8    19    ar
    13    10    12    1 
    14    10    13    1 
    15    11    17    ar
    16    11    19    ar
    17    13    15    1 
    18    13    16    1 
    19    14    18    ar
    20    14    21    ar
    21    16    25    1 
    22    17    22    1 
    23    18    20    ar
    24    18    23    1 
    25    19    33    1 
    26    20    24    1 
    27    20    31    ar
    28    21    31    ar
    29    21    32    1 
    30    22    27    2 
    31    23    26    ar
    32    23    28    ar
    33    25    32    1 
    34    29    32    2 
    35    30    32    2 
@<TRIPOS>MOLECULE
Molecule Ligandos_final.mol2
    15     0
SMALL
NO_CHARGES
@<TRIPOS>ATOM
      1 ACC        84.0160   17.9720 -102.6190 HB    0     HB      0.0000
      2 ACC        86.6000   19.1550 -103.2580 HB    1     HB      0.0000
      3 ACC        87.3820   17.0370 -104.9250 HB    2     HB      0.0000
      4 ACC        85.4470   14.9380 -105.0970 HB    3     HB      0.0000
      5 ACC        85.1600   16.1740 -101.7130 HB    4     HB      0.0000
      6 ACC        82.3520    7.5240  -99.3970 HB    5     HB      0.0000
      7 ACC        82.1260    9.2470  -97.8970 HB    6     HB      0.0000
      8 ACC        85.1610   13.2300 -102.3910 HB    7     HB      0.0000
      9 ACC        87.3660   19.7930 -101.1770 HB    8     HB      0.0000
     10 ACC        85.0120   13.6990  -99.8100 HB    9     HB      0.0000
     11 ACC        86.9580   12.3860 -100.7750 HB    10    HB      0.0000
     12 ACC        84.9320   10.2180 -101.3920 HB    11    HB      0.0000
     13 ANI        82.5860    8.6870  -98.9390 CHG   12    CHG     0.2217
     14 AR         88.1912   22.4273 -103.4502 AR    13    AR      0.0000
     15 AR         84.2652   10.2102 -100.4330 AR    14    AR      0.0000
@<TRIPOS>BOND
@<TRIPOS>MOLECULE
2_var_12.mol2
    58    62
SMALL
NO_CHARGES
@<TRIPOS>ATOM
      1 C1         87.2668   24.4187 -101.8212 C.3   1     UNK     0.0000
      2 N1         88.0398   24.2626 -103.0563 N.ar  1     UNK     0.0000
      3 C2         88.3906   23.1001 -103.6589 C.ar  1     UNK     0.0000
      4 C3         87.9331   21.8842 -103.2146 C.ar  1     UNK     0.0000
      5 C4         88.1615   20.5658 -103.5454 C.ar  1     UNK     0.0000
      6 N2         87.3776   19.8342 -102.7309 N.ar  1     UNK     0.0000
      7 C5         87.2355   18.3739 -102.6985 C.3   1     UNK     0.0000
      8 C6         86.2405   17.9214 -101.5965 C.3   1     UNK     0.0000
      9 O1         86.2794   18.8094 -100.5111 O.3   1     UNK     0.0000
     10 O2         84.9215   17.8667 -102.1124 O.3   1     UNK     0.0000
     11 C7         84.7534   16.8051 -103.0496 C.3   1     UNK     0.0000
     12 C8         84.2790   15.5301 -102.3283 C.3   1     UNK     0.0000
     13 O3         84.3430   15.6896 -100.9362 O.3   1     UNK     0.0000
     14 C9         86.0075   16.5447 -103.9444 C.3   1     UNK     0.0000
     15 O4         85.6362   16.0279 -105.1999 O.3   1     UNK     0.0000
     16 C10        86.8230   17.8421 -104.0943 C.3   1     UNK     0.0000
     17 O5         87.9759   17.6067 -104.8621 O.3   1     UNK     0.0000
     18 N3         86.7043   20.6613 -101.9470 N.ar  1     UNK     0.0000
     19 N4         87.0229   21.9182 -102.2202 N.ar  1     UNK     0.0000
     20 N5         89.1983   23.2893 -104.7238 N.ar  1     UNK     0.0000
     21 C11        89.3560   24.6253 -104.8027 C.ar  1     UNK     0.0000
     22 C12        90.1769   25.2774 -105.8453 C.ar  1     UNK     0.0000
     23 C13        89.7703   26.4853 -106.4419 C.ar  1     UNK     0.0000
     24 C14        90.5574   27.0838 -107.4302 C.ar  1     UNK     0.0000
     25 C15        91.7541   26.4822 -107.8332 C.ar  1     UNK     0.0000
     26 F1         92.5166   27.0645 -108.7915 F     1     UNK     0.0000
     27 C16        92.1577   25.2746 -107.2572 C.ar  1     UNK     0.0000
     28 C17        91.3687   24.6694 -106.2735 C.ar  1     UNK     0.0000
     29 C18        88.6420   25.2323 -103.7798 C.ar  1     UNK     0.0000
     30 C19        88.6186   26.6742 -103.4589 C.ar  1     UNK     0.0000
     31 C20        87.4007   27.3659 -103.3959 C.ar  1     UNK     0.0000
     32 C21        87.4023   28.7321 -103.1087 C.ar  1     UNK     0.0000
     33 N6         88.5778   29.3827 -102.8963 N.ar  1     UNK     0.0000
     34 C22        89.7731   28.7364 -102.9555 C.ar  1     UNK     0.0000
     35 C23        89.8161   27.3707 -103.2422 C.ar  1     UNK     0.0000
     36 H1         87.7354   23.8249 -101.0079 H     1     UNK     0.0000
     37 H2         86.2245   24.0727 -101.9861 H     1     UNK     0.0000
     38 H3         87.2413   25.4743 -101.4858 H     1     UNK     0.0000
     39 H4         88.8228   20.1753 -104.3087 H     1     UNK     0.0000
     40 H5         86.4701   18.1155 -101.9302 H     1     UNK     0.0000
     41 H6         86.5548   16.9167 -101.2239 H     1     UNK     0.0000
     42 H7         85.6923   18.4221  -99.8109 H     1     UNK     0.0000
     43 H8         83.9228   17.1247 -103.7162 H     1     UNK     0.0000
     44 H9         83.4185   15.7709 -101.6633 H     1     UNK     0.0000
     45 H10        85.0893   15.1271 -101.6879 H     1     UNK     0.0000
     46 H11        85.3050   15.6497 -100.6925 H     1     UNK     0.0000
     47 H12        86.6622   15.7910 -103.4524 H     1     UNK     0.0000
     48 H13        85.0941   16.7167 -105.6653 H     1     UNK     0.0000
     49 H14        86.1799   18.5981 -104.6038 H     1     UNK     0.0000
     50 H15        87.6983   17.6250 -105.8156 H     1     UNK     0.0000
     51 H16        88.8383   26.9574 -106.1598 H     1     UNK     0.0000
     52 H17        90.2372   28.0108 -107.8880 H     1     UNK     0.0000
     53 H18        93.0824   24.8069 -107.5717 H     1     UNK     0.0000
     54 H19        91.6988   23.7373 -105.8320 H     1     UNK     0.0000
     55 H20        86.4632   26.8538 -103.5753 H     1     UNK     0.0000
     56 H21        86.4688   29.2772 -103.0599 H     1     UNK     0.0000
     57 H22        90.6911   29.2832 -102.7834 H     1     UNK     0.0000
     58 H23        90.7706   26.8601 -103.2894 H     1     UNK     0.0000
@<TRIPOS>BOND
     1     1     2    1 
     2     2     3    ar
     3     3     4    1 
     4     4     5    ar
     5     5     6    ar
     6     6     7    1 
     7     7     8    1 
     8     8     9    1 
     9     8    10    1 
    10    10    11    1 
    11    11    12    1 
    12    12    13    1 
    13    11    14    1 
    14    14    15    1 
    15    14    16    1 
    16    16    17    1 
    17     6    18    ar
    18    18    19    ar
    19     3    20    ar
    20    20    21    ar
    21    21    22    1 
    22    22    23    ar
    23    23    24    ar
    24    24    25    ar
    25    25    26    1 
    26    25    27    ar
    27    27    28    ar
    28    21    29    ar
    29    29    30    1 
    30    30    31    ar
    31    31    32    ar
    32    32    33    ar
    33    33    34    ar
    34    34    35    ar
    35    29     2    ar
    36    35    30    ar
    37    19     4    ar
    38    28    22    ar
    39    16     7    1 
    40     1    36    1 
    41     1    37    1 
    42     1    38    1 
    43     5    39    1 
    44     7    40    1 
    45     8    41    1 
    46     9    42    1 
    47    11    43    1 
    48    12    44    1 
    49    12    45    1 
    50    13    46    1 
    51    14    47    1 
    52    15    48    1 
    53    16    49    1 
    54    17    50    1 
    55    23    51    1 
    56    24    52    1 
    57    27    53    1 
    58    28    54    1 
    59    31    55    1 
    60    32    56    1 
    61    34    57    1 
    62    35    58    1 
@<TRIPOS>MOLECULE
Molecule 2_var_12.mol2
    20     0
SMALL
NO_CHARGES
@<TRIPOS>ATOM
      1 DON        86.2794   18.8094 -100.5111 HB    0     HB      0.0000
      2 DON        84.3430   15.6896 -100.9362 HB    1     HB      0.0000
      3 DON        85.6362   16.0279 -105.1999 HB    2     HB      0.0000
      4 DON        87.9759   17.6067 -104.8621 HB    3     HB      0.0000
      5 ACC        86.2794   18.8094 -100.5111 HB    4     HB      0.0000
      6 ACC        84.9215   17.8667 -102.1124 HB    5     HB      0.0000
      7 ACC        84.3430   15.6896 -100.9362 HB    6     HB      0.0000
      8 ACC        85.6362   16.0279 -105.1999 HB    7     HB      0.0000
      9 ACC        87.9759   17.6067 -104.8621 HB    8     HB      0.0000
     10 ACC        86.7043   20.6613 -101.9470 HB    9     HB      0.0000
     11 ACC        87.0229   21.9182 -102.2202 HB    10    HB      0.0000
     12 ACC        89.1983   23.2893 -104.7238 HB    11    HB      0.0000
     13 ACC        88.5778   29.3827 -102.8963 HB    12    HB      0.0000
     14 CAT        88.0398   24.2626 -103.0563 CHG   13    CHG     0.0000
     15 CAT        87.3776   19.8342 -102.7309 CHG   14    CHG     0.0000
     16 AR         88.7253   24.1019 -104.0043 AR    15    AR      0.0000
     17 AR         87.4399   20.9727 -102.7316 AR    16    AR      0.0000
     18 AR         90.9642   25.8788 -106.8469 AR    17    AR      0.0000
     19 AR         88.5981   28.0437 -103.1763 AR    18    AR      0.0000
     20 HYD        87.2668   24.4187 -101.8212 HYD   19    HYD     0.0000
@<TRIPOS>BOND
