@<TRIPOS>MOLECULE
Molecule Ligandos_final.mol2
     6     0
SMALL
NO_CHARGES
@<TRIPOS>ATOM
      1 ACC        84.0160   17.9720 -102.6190 HB    0     HB      0.0000
      3 ACC        87.3820   17.0370 -104.9250 HB    2     HB      0.0000
      4 ACC        85.4470   14.9380 -105.0970 HB    3     HB      0.0000
      5 ACC        85.1600   16.1740 -101.7130 HB    4     HB      0.0000
      9 ACC        87.3660   19.7930 -101.1770 HB    8     HB      0.0000
     14 AR         88.1912   22.4273 -103.4502 AR    13    AR      0.0000
@<TRIPOS>BOND
@<TRIPOS>MOLECULE
Ligandos_final.mol2
    33    35
SMALL
NO_CHARGES
@<TRIPOS>ATOM
      1 C1         85.2230   17.5630 -101.9920 C.2   1     6041    0.3220
      2 C1A        89.0200   22.4480 -104.5680 C.1   1     6041   -0.0153
      3 O1         84.0160   17.9720 -102.6190 O.2   1     6041   -0.2570
      4 C2         86.3940   17.7720 -102.9310 C.2   1     6041    0.1898
      5 C2A        88.5540   21.2500 -104.0630 C.1   1     6041   -0.0391
      6 N2         86.6000   19.1550 -103.2580 N.2   1     6041   -0.1980
      7 C3         86.1760   16.9900 -104.2010 C.2   1     6041    0.2597
      8 C3A        88.6500   23.6220 -103.9480 C.1   1     6041   -0.0372
      9 O3         87.3820   17.0370 -104.9250 O.2   1     6041   -0.2812
     10 C4         85.8590   15.5500 -103.8860 C.2   1     6041    0.2671
     11 C4A        87.3640   22.4070 -102.3320 C.1   1     6041   -0.0737
     12 O4         85.4470   14.9380 -105.0970 O.2   1     6041   -0.2802
     13 C5         84.7070   15.5670 -102.9120 C.2   1     6041    0.1946
     14 C5A        83.9070   10.8720  -99.5110 C.1   1     6041    0.0077
     15 O5         85.1600   16.1740 -101.7130 O.3   1     6041   -0.2588
     16 C6         84.1030   14.2150 -102.6080 C.1   1     6041   -0.0101
     17 C6A        87.7310   21.2420 -102.9530 C.2   1     6041    0.1355
     18 C7         83.5430    9.5360  -99.7910 C.2   1     6041    0.1408
     19 C8         87.8280   23.5950 -102.8370 C.2   1     6041    0.1116
     20 C9         84.1850    9.1680 -100.9490 C.2   1     6041    0.1550
     21 C10        84.7590   11.2570 -100.5220 C.2   1     6041   -0.3150
     22 C11        87.2160   19.9950 -102.3720 C.2   1     6041    0.2943
     23 C12        82.5860    8.6870  -98.9390 C.2   1     6041    0.2217
     24 C18        84.2100    7.9320 -101.7430 Hev   1     6041    0.0000
     25 N21        85.1610   13.2300 -102.3910 N.2   1     6041   -0.3188
     26 O22        82.3520    7.5240  -99.3970 O.co2 1     6041   -0.6434
     27 O23        87.3660   19.7930 -101.1770 O.2   1     6041   -0.2639
     28 O24        82.1260    9.2470  -97.8970 O.co2 1     6041   -0.6434
     29 O25        85.0120   13.6990  -99.8100 O.2   1     6041   -0.9312
     30 O26        86.9580   12.3860 -100.7750 O.2   1     6041   -0.9312
     31 O27        84.9320   10.2180 -101.3920 O.3   1     6041   -0.2348
     32 S32        85.5660   12.7780 -100.7890 S.O2  1     6041    2.4641
     33 BR         87.2890   25.1810 -101.9440 Br    1     6041   -0.0315
@<TRIPOS>BOND
     1     1     3    1 
     2     1    15    1 
     3     1     4    1 
     4     2     5    ar
     5     2     8    ar
     6     4     6    1 
     7     4     7    1 
     8     5    17    ar
     9     6    22    1 
    10     7     9    1 
    11     7    10    1 
    12     8    19    ar
    13    10    12    1 
    14    10    13    1 
    15    11    17    ar
    16    11    19    ar
    17    13    15    1 
    18    13    16    1 
    19    14    18    ar
    20    14    21    ar
    21    16    25    1 
    22    17    22    1 
    23    18    20    ar
    24    18    23    1 
    25    19    33    1 
    26    20    24    1 
    27    20    31    ar
    28    21    31    ar
    29    21    32    1 
    30    22    27    2 
    31    23    26    ar
    32    23    28    ar
    33    25    32    1 
    34    29    32    2 
    35    30    32    2 
@<TRIPOS>MOLECULE
Molecule Ligandos_final.mol2
    15     0
SMALL
NO_CHARGES
@<TRIPOS>ATOM
      1 ACC        84.0160   17.9720 -102.6190 HB    0     HB      0.0000
      2 ACC        86.6000   19.1550 -103.2580 HB    1     HB      0.0000
      3 ACC        87.3820   17.0370 -104.9250 HB    2     HB      0.0000
      4 ACC        85.4470   14.9380 -105.0970 HB    3     HB      0.0000
      5 ACC        85.1600   16.1740 -101.7130 HB    4     HB      0.0000
      6 ACC        82.3520    7.5240  -99.3970 HB    5     HB      0.0000
      7 ACC        82.1260    9.2470  -97.8970 HB    6     HB      0.0000
      8 ACC        85.1610   13.2300 -102.3910 HB    7     HB      0.0000
      9 ACC        87.3660   19.7930 -101.1770 HB    8     HB      0.0000
     10 ACC        85.0120   13.6990  -99.8100 HB    9     HB      0.0000
     11 ACC        86.9580   12.3860 -100.7750 HB    10    HB      0.0000
     12 ACC        84.9320   10.2180 -101.3920 HB    11    HB      0.0000
     13 ANI        82.5860    8.6870  -98.9390 CHG   12    CHG     0.2217
     14 AR         88.1912   22.4273 -103.4502 AR    13    AR      0.0000
     15 AR         84.2652   10.2102 -100.4330 AR    14    AR      0.0000
@<TRIPOS>BOND
@<TRIPOS>MOLECULE
2_var_277.mol2
    57    60
SMALL
NO_CHARGES
@<TRIPOS>ATOM
      1 H1         87.3997   19.9092 -100.3646 H     1     UNK     0.0000
      2 O1         86.9908   19.2292 -100.9932 O.3   1     UNK     0.0000
      3 C1         87.0241   19.3764 -102.3838 C.2   1     UNK     0.0000
      4 N1         86.6292   18.4000 -103.1464 N.2   1     UNK     0.0000
      5 C2         86.1718   17.1978 -102.6367 C.3   1     UNK     0.0000
      6 H2         85.4929   17.2736 -101.7631 H     1     UNK     0.0000
      7 C3         86.7349   15.9697 -103.3915 C.3   1     UNK     0.0000
      8 H3         87.8241   15.9103 -103.1631 H     1     UNK     0.0000
      9 O2         86.6081   16.0128 -104.9110 O.3   1     UNK     0.0000
     10 S1         85.0037   15.6881 -105.3737 S.o2  1     UNK     0.0000
     11 O3         84.9952   14.4329 -106.1993 O.2   1     UNK     0.0000
     12 O4         84.4413   16.8103 -106.2040 O.2   1     UNK     0.0000
     13 C4         83.9700   15.4312 -103.9479 C.3   1     UNK     0.0000
     14 H4         84.3988   14.6222 -103.3240 H     1     UNK     0.0000
     15 H5         82.9534   15.1367 -104.2769 H     1     UNK     0.0000
     16 H6         83.8998   16.3634 -103.3534 H     1     UNK     0.0000
     17 C5         86.0564   14.7030 -102.8368 C.3   1     UNK     0.0000
     18 H7         86.3989   14.5756 -101.7825 H     1     UNK     0.0000
     19 O5         86.4389   13.5625 -103.5814 O.3   1     UNK     0.0000
     20 C6         85.6606   12.4086 -103.2564 C.3   1     UNK     0.0000
     21 H8         85.0074   12.1847 -104.1329 H     1     UNK     0.0000
     22 C7         86.5716   11.2264 -103.0483 C.ar  1     UNK     0.0000
     23 C8         86.1191    9.9295 -103.3592 C.ar  1     UNK     0.0000
     24 H9         85.1340    9.7773 -103.7830 H     1     UNK     0.0000
     25 C9         86.9382    8.8209 -103.1254 C.ar  1     UNK     0.0000
     26 H10        86.5870    7.8271 -103.3726 H     1     UNK     0.0000
     27 C10        88.2125    8.9956 -102.5752 C.ar  1     UNK     0.0000
     28 H11        88.8472    8.1365 -102.4013 H     1     UNK     0.0000
     29 C11        88.6600   10.2762 -102.2371 C.ar  1     UNK     0.0000
     30 H12        89.6417   10.4081 -101.7991 H     1     UNK     0.0000
     31 C12        87.8403   11.3868 -102.4603 C.ar  1     UNK     0.0000
     32 H13        88.2006   12.3688 -102.1791 H     1     UNK     0.0000
     33 O6         84.8623   12.5704 -102.0906 O.3   1     UNK     0.0000
     34 C13        83.8945   13.5821 -102.3045 C.3   1     UNK     0.0000
     35 H14        83.1020   13.2104 -102.9916 H     1     UNK     0.0000
     36 H15        83.4014   13.7911 -101.3314 H     1     UNK     0.0000
     37 C14        84.5267   14.8726 -102.8586 C.3   1     UNK     0.0000
     38 H16        84.1760   14.9927 -103.9110 H     1     UNK     0.0000
     39 O7         84.1427   15.9863 -102.0733 O.3   1     UNK     0.0000
     40 C15        84.6275   17.1875 -102.6580 C.3   1     UNK     0.0000
     41 H17        85.2150   16.4973 -102.0009 H     1     UNK     0.0000
     42 O8         84.1658   18.2929 -101.9045 O.3   1     UNK     0.0000
     43 C16        85.2332   18.8718 -101.1861 C.3   1     UNK     0.0000
     44 H18        84.8557   19.7712 -100.6571 H     1     UNK     0.0000
     45 H19        86.0555   19.2011 -101.8611 H     1     UNK     0.0000
     46 H20        85.6224   18.1681 -100.4160 H     1     UNK     0.0000
     47 C17        87.4850   20.6467 -102.6577 C.ar  1     UNK     0.0000
     48 C18        87.1430   21.8836 -102.0783 C.ar  1     UNK     0.0000
     49 H21        86.4777   21.9367 -101.2268 H     1     UNK     0.0000
     50 C19        87.6332   23.0782 -102.6159 C.ar  1     UNK     0.0000
     51 H22        87.3609   24.0253 -102.1673 H     1     UNK     0.0000
     52 C20        88.4643   23.0536 -103.7373 C.ar  1     UNK     0.0000
     53 H23        88.8401   23.9794 -104.1536 H     1     UNK     0.0000
     54 C21        88.8032   21.8336 -104.3286 C.ar  1     UNK     0.0000
     55 H24        89.4429   21.8146 -105.2022 H     1     UNK     0.0000
     56 C22        88.3147   20.6366 -103.7958 C.ar  1     UNK     0.0000
     57 H25        88.5950   19.7024 -104.2665 H     1     UNK     0.0000
@<TRIPOS>BOND
     1     1     2    1 
     2     2     3    1 
     3     3     4    2 
     4     4     5    1 
     5     5     6    1 
     6     5     7    1 
     7     7     8    1 
     8     7     9    1 
     9     9    10    1 
    10    10    11    2 
    11    10    12    2 
    12    10    13    1 
    13    13    14    1 
    14    13    15    1 
    15    13    16    1 
    16     7    17    1 
    17    17    18    1 
    18    17    19    1 
    19    19    20    1 
    20    20    21    1 
    21    20    22    1 
    22    22    23    ar
    23    23    24    1 
    24    23    25    ar
    25    25    26    1 
    26    25    27    ar
    27    27    28    1 
    28    27    29    ar
    29    29    30    1 
    30    29    31    ar
    31    31    32    1 
    32    20    33    1 
    33    33    34    1 
    34    34    35    1 
    35    34    36    1 
    36    34    37    1 
    37    37    38    1 
    38    37    39    1 
    39    39    40    1 
    40    40    41    1 
    41    40    42    1 
    42    42    43    1 
    43    43    44    1 
    44    43    45    1 
    45    43    46    1 
    46     3    47    1 
    47    47    48    ar
    48    48    49    1 
    49    48    50    ar
    50    50    51    1 
    51    50    52    ar
    52    52    53    1 
    53    52    54    ar
    54    54    55    1 
    55    54    56    ar
    56    56    57    1 
    57    40     5    1 
    58    56    47    ar
    59    37    17    1 
    60    31    22    ar
@<TRIPOS>MOLECULE
Molecule 2_var_277.mol2
    14     0
SMALL
NO_CHARGES
@<TRIPOS>ATOM
      1 DON        86.9908   19.2292 -100.9932 HB    0     HB      0.0000
      2 ACC        86.9908   19.2292 -100.9932 HB    1     HB      0.0000
      3 ACC        86.6292   18.4000 -103.1464 HB    2     HB      0.0000
      4 ACC        86.4603   16.1017 -104.7765 HB    3     HB      0.0000
      5 ACC        84.9952   14.4329 -106.1993 HB    4     HB      0.0000
      6 ACC        84.4413   16.8103 -106.2040 HB    5     HB      0.0000
      7 ACC        86.4389   13.5625 -103.5814 HB    6     HB      0.0000
      8 ACC        84.8623   12.5704 -102.0906 HB    7     HB      0.0000
      9 ACC        84.1427   15.9863 -102.0733 HB    8     HB      0.0000
     10 ACC        84.1658   18.2929 -101.9045 HB    9     HB      0.0000
     11 AR         87.3903   10.1059 -102.8009 AR    10    AR      0.0000
     12 AR         87.9739   21.8554 -103.2023 AR    11    AR      0.0000
     13 HYD        83.9700   15.4312 -103.9479 HYD   12    HYD     0.0000
     14 HYD        85.2332   18.8718 -101.1861 HYD   13    HYD     0.0000
@<TRIPOS>BOND
