@<TRIPOS>MOLECULE
Molecule Ligandos_final.mol2
     6     0
SMALL
NO_CHARGES
@<TRIPOS>ATOM
      1 ACC        84.0160   17.9720 -102.6190 HB    0     HB      0.0000
      3 ACC        87.3820   17.0370 -104.9250 HB    2     HB      0.0000
      4 ACC        85.4470   14.9380 -105.0970 HB    3     HB      0.0000
      5 ACC        85.1600   16.1740 -101.7130 HB    4     HB      0.0000
      8 ACC        85.1610   13.2300 -102.3910 HB    7     HB      0.0000
      9 ACC        87.3660   19.7930 -101.1770 HB    8     HB      0.0000
@<TRIPOS>BOND
@<TRIPOS>MOLECULE
Ligandos_final.mol2
    33    35
SMALL
NO_CHARGES
@<TRIPOS>ATOM
      1 C1         85.2230   17.5630 -101.9920 C.2   1     6041    0.3220
      2 C1A        89.0200   22.4480 -104.5680 C.1   1     6041   -0.0153
      3 O1         84.0160   17.9720 -102.6190 O.2   1     6041   -0.2570
      4 C2         86.3940   17.7720 -102.9310 C.2   1     6041    0.1898
      5 C2A        88.5540   21.2500 -104.0630 C.1   1     6041   -0.0391
      6 N2         86.6000   19.1550 -103.2580 N.2   1     6041   -0.1980
      7 C3         86.1760   16.9900 -104.2010 C.2   1     6041    0.2597
      8 C3A        88.6500   23.6220 -103.9480 C.1   1     6041   -0.0372
      9 O3         87.3820   17.0370 -104.9250 O.2   1     6041   -0.2812
     10 C4         85.8590   15.5500 -103.8860 C.2   1     6041    0.2671
     11 C4A        87.3640   22.4070 -102.3320 C.1   1     6041   -0.0737
     12 O4         85.4470   14.9380 -105.0970 O.2   1     6041   -0.2802
     13 C5         84.7070   15.5670 -102.9120 C.2   1     6041    0.1946
     14 C5A        83.9070   10.8720  -99.5110 C.1   1     6041    0.0077
     15 O5         85.1600   16.1740 -101.7130 O.3   1     6041   -0.2588
     16 C6         84.1030   14.2150 -102.6080 C.1   1     6041   -0.0101
     17 C6A        87.7310   21.2420 -102.9530 C.2   1     6041    0.1355
     18 C7         83.5430    9.5360  -99.7910 C.2   1     6041    0.1408
     19 C8         87.8280   23.5950 -102.8370 C.2   1     6041    0.1116
     20 C9         84.1850    9.1680 -100.9490 C.2   1     6041    0.1550
     21 C10        84.7590   11.2570 -100.5220 C.2   1     6041   -0.3150
     22 C11        87.2160   19.9950 -102.3720 C.2   1     6041    0.2943
     23 C12        82.5860    8.6870  -98.9390 C.2   1     6041    0.2217
     24 C18        84.2100    7.9320 -101.7430 Hev   1     6041    0.0000
     25 N21        85.1610   13.2300 -102.3910 N.2   1     6041   -0.3188
     26 O22        82.3520    7.5240  -99.3970 O.co2 1     6041   -0.6434
     27 O23        87.3660   19.7930 -101.1770 O.2   1     6041   -0.2639
     28 O24        82.1260    9.2470  -97.8970 O.co2 1     6041   -0.6434
     29 O25        85.0120   13.6990  -99.8100 O.2   1     6041   -0.9312
     30 O26        86.9580   12.3860 -100.7750 O.2   1     6041   -0.9312
     31 O27        84.9320   10.2180 -101.3920 O.3   1     6041   -0.2348
     32 S32        85.5660   12.7780 -100.7890 S.O2  1     6041    2.4641
     33 BR         87.2890   25.1810 -101.9440 Br    1     6041   -0.0315
@<TRIPOS>BOND
     1     1     3    1 
     2     1    15    1 
     3     1     4    1 
     4     2     5    ar
     5     2     8    ar
     6     4     6    1 
     7     4     7    1 
     8     5    17    ar
     9     6    22    1 
    10     7     9    1 
    11     7    10    1 
    12     8    19    ar
    13    10    12    1 
    14    10    13    1 
    15    11    17    ar
    16    11    19    ar
    17    13    15    1 
    18    13    16    1 
    19    14    18    ar
    20    14    21    ar
    21    16    25    1 
    22    17    22    1 
    23    18    20    ar
    24    18    23    1 
    25    19    33    1 
    26    20    24    1 
    27    20    31    ar
    28    21    31    ar
    29    21    32    1 
    30    22    27    2 
    31    23    26    ar
    32    23    28    ar
    33    25    32    1 
    34    29    32    2 
    35    30    32    2 
@<TRIPOS>MOLECULE
Molecule Ligandos_final.mol2
    15     0
SMALL
NO_CHARGES
@<TRIPOS>ATOM
      1 ACC        84.0160   17.9720 -102.6190 HB    0     HB      0.0000
      2 ACC        86.6000   19.1550 -103.2580 HB    1     HB      0.0000
      3 ACC        87.3820   17.0370 -104.9250 HB    2     HB      0.0000
      4 ACC        85.4470   14.9380 -105.0970 HB    3     HB      0.0000
      5 ACC        85.1600   16.1740 -101.7130 HB    4     HB      0.0000
      6 ACC        82.3520    7.5240  -99.3970 HB    5     HB      0.0000
      7 ACC        82.1260    9.2470  -97.8970 HB    6     HB      0.0000
      8 ACC        85.1610   13.2300 -102.3910 HB    7     HB      0.0000
      9 ACC        87.3660   19.7930 -101.1770 HB    8     HB      0.0000
     10 ACC        85.0120   13.6990  -99.8100 HB    9     HB      0.0000
     11 ACC        86.9580   12.3860 -100.7750 HB    10    HB      0.0000
     12 ACC        84.9320   10.2180 -101.3920 HB    11    HB      0.0000
     13 ANI        82.5860    8.6870  -98.9390 CHG   12    CHG     0.2217
     14 AR         88.1912   22.4273 -103.4502 AR    13    AR      0.0000
     15 AR         84.2652   10.2102 -100.4330 AR    14    AR      0.0000
@<TRIPOS>BOND
@<TRIPOS>MOLECULE
2_var_57.mol2
    33    33
SMALL
NO_CHARGES
@<TRIPOS>ATOM
      1 C1         87.7572   21.3040 -102.9788 C.3   1     UNK     0.0000
      2 C2         87.2263   20.0346 -102.3972 C.2   1     UNK     0.0000
      3 O1         87.3735   19.8034 -101.1665 O.2   1     UNK     0.0000
      4 N1         86.6142   19.1456 -103.2852 N.am  1     UNK     0.0000
      5 C3         86.3503   17.7917 -103.0093 C.3   1     UNK     0.0000
      6 C4         85.2215   17.5732 -101.9811 C.3   1     UNK     0.0000
      7 O2         84.0641   18.2828 -102.3480 O.3   1     UNK     0.0000
      8 O3         84.9451   16.1911 -101.8048 O.3   1     UNK     0.0000
      9 C5         84.4833   15.5869 -103.0041 C.3   1     UNK     0.0000
     10 C6         84.2270   14.1439 -102.5961 C.3   1     UNK     0.0000
     11 O4         85.0727   13.2593 -102.4005 O.3   1     UNK     0.0000
     12 P1         86.0460   13.5366 -101.0462 P.3   1     UNK     0.0000
     13 O5         86.9746   12.3764 -100.7721 O.co2 1     UNK     0.0000
     14 O6         84.9927   13.7217  -99.7350 O.co2 1     UNK     0.0000
     15 O7         86.9638   14.9453 -101.2362 O.co2 1     UNK     0.0000
     16 C7         85.5768   15.6590 -104.1030 C.3   1     UNK     0.0000
     17 O8         85.1456   15.0667 -105.3037 O.3   1     UNK     0.0000
     18 C8         85.9888   17.1207 -104.3486 C.3   1     UNK     0.0000
     19 O9         87.0959   17.1449 -105.2137 O.3   1     UNK     0.0000
     20 H1         88.1904   21.9479 -102.1841 H     1     UNK     0.0000
     21 H2         86.9347   21.8559 -103.4791 H     1     UNK     0.0000
     22 H3         88.5467   21.0688 -103.7224 H     1     UNK     0.0000
     23 H4         86.2109   19.7125 -104.0356 H     1     UNK     0.0000
     24 H5         87.2781   17.3093 -102.6255 H     1     UNK     0.0000
     25 H6         85.5796   17.9678 -101.0039 H     1     UNK     0.0000
     26 H7         83.4257   18.1853 -101.5942 H     1     UNK     0.0000
     27 H8         85.4360   15.5297 -103.7028 H     1     UNK     0.0000
     28 H9         83.3763   14.2385 -101.7237 H     1     UNK     0.0000
     29 H10        84.5575   15.2719 -102.6334 H     1     UNK     0.0000
     30 H11        86.4708   15.0994 -103.7472 H     1     UNK     0.0000
     31 H12        84.3312   15.5499 -105.6025 H     1     UNK     0.0000
     32 H13        85.1275   17.6590 -104.8130 H     1     UNK     0.0000
     33 H14        87.1066   18.0374 -105.6480 H     1     UNK     0.0000
@<TRIPOS>BOND
     1     1     2    1 
     2     2     3    2 
     3     2     4    am
     4     4     5    1 
     5     5     6    1 
     6     6     7    1 
     7     6     8    1 
     8     8     9    1 
     9     9    10    1 
    10    10    11    1 
    11    11    12    1 
    12    12    13    1 
    13    12    14    1 
    14    12    15    1 
    15     9    16    1 
    16    16    17    1 
    17    16    18    1 
    18    18    19    1 
    19    18     5    1 
    20     1    20    1 
    21     1    21    1 
    22     1    22    1 
    23     4    23    1 
    24     5    24    1 
    25     6    25    1 
    26     7    26    1 
    27     9    27    1 
    28    10    28    1 
    29    10    29    1 
    30    16    30    1 
    31    17    31    1 
    32    18    32    1 
    33    19    33    1 
@<TRIPOS>MOLECULE
Molecule 2_var_57.mol2
    12     0
SMALL
NO_CHARGES
@<TRIPOS>ATOM
      1 DON        86.5964   19.2270 -103.1936 HB    0     HB      0.0000
      2 DON        84.0641   18.2828 -102.3480 HB    1     HB      0.0000
      3 DON        85.1456   15.0667 -105.3037 HB    2     HB      0.0000
      4 DON        87.0959   17.1449 -105.2137 HB    3     HB      0.0000
      5 ACC        87.3735   19.8034 -101.1665 HB    4     HB      0.0000
      6 ACC        84.0641   18.2828 -102.3480 HB    5     HB      0.0000
      7 ACC        84.9451   16.1911 -101.8048 HB    6     HB      0.0000
      8 ACC        85.1637   13.2169 -102.4689 HB    7     HB      0.0000
      9 ACC        85.1456   15.0667 -105.3037 HB    8     HB      0.0000
     10 ACC        87.0959   17.1449 -105.2137 HB    9     HB      0.0000
     11 ANI        86.0460   13.5366 -101.0462 CHG   10    CHG     0.0000
     12 HYD        87.7572   21.3040 -102.9788 HYD   11    HYD     0.0000
@<TRIPOS>BOND
