@<TRIPOS>MOLECULE
Ligandos_final.mol2
    33    35
SMALL
NO_CHARGES
@<TRIPOS>ATOM
      1 C1         85.2230   17.5630 -101.9920 C.2   1     6041    0.3220
      2 C1A        89.0200   22.4480 -104.5680 C.1   1     6041   -0.0153
      3 O1         84.0160   17.9720 -102.6190 O.2   1     6041   -0.2570
      4 C2         86.3940   17.7720 -102.9310 C.2   1     6041    0.1898
      5 C2A        88.5540   21.2500 -104.0630 C.1   1     6041   -0.0391
      6 N2         86.6000   19.1550 -103.2580 N.2   1     6041   -0.1980
      7 C3         86.1760   16.9900 -104.2010 C.2   1     6041    0.2597
      8 C3A        88.6500   23.6220 -103.9480 C.1   1     6041   -0.0372
      9 O3         87.3820   17.0370 -104.9250 O.2   1     6041   -0.2812
     10 C4         85.8590   15.5500 -103.8860 C.2   1     6041    0.2671
     11 C4A        87.3640   22.4070 -102.3320 C.1   1     6041   -0.0737
     12 O4         85.4470   14.9380 -105.0970 O.2   1     6041   -0.2802
     13 C5         84.7070   15.5670 -102.9120 C.2   1     6041    0.1946
     14 C5A        83.9070   10.8720  -99.5110 C.1   1     6041    0.0077
     15 O5         85.1600   16.1740 -101.7130 O.3   1     6041   -0.2588
     16 C6         84.1030   14.2150 -102.6080 C.1   1     6041   -0.0101
     17 C6A        87.7310   21.2420 -102.9530 C.2   1     6041    0.1355
     18 C7         83.5430    9.5360  -99.7910 C.2   1     6041    0.1408
     19 C8         87.8280   23.5950 -102.8370 C.2   1     6041    0.1116
     20 C9         84.1850    9.1680 -100.9490 C.2   1     6041    0.1550
     21 C10        84.7590   11.2570 -100.5220 C.2   1     6041   -0.3150
     22 C11        87.2160   19.9950 -102.3720 C.2   1     6041    0.2943
     23 C12        82.5860    8.6870  -98.9390 C.2   1     6041    0.2217
     24 C18        84.2100    7.9320 -101.7430 Hev   1     6041    0.0000
     25 N21        85.1610   13.2300 -102.3910 N.2   1     6041   -0.3188
     26 O22        82.3520    7.5240  -99.3970 O.co2 1     6041   -0.6434
     27 O23        87.3660   19.7930 -101.1770 O.2   1     6041   -0.2639
     28 O24        82.1260    9.2470  -97.8970 O.co2 1     6041   -0.6434
     29 O25        85.0120   13.6990  -99.8100 O.2   1     6041   -0.9312
     30 O26        86.9580   12.3860 -100.7750 O.2   1     6041   -0.9312
     31 O27        84.9320   10.2180 -101.3920 O.3   1     6041   -0.2348
     32 S32        85.5660   12.7780 -100.7890 S.O2  1     6041    2.4641
     33 BR         87.2890   25.1810 -101.9440 Br    1     6041   -0.0315
@<TRIPOS>BOND
     1     1     3    1 
     2     1    15    1 
     3     1     4    1 
     4     2     5    ar
     5     2     8    ar
     6     4     6    1 
     7     4     7    1 
     8     5    17    ar
     9     6    22    1 
    10     7     9    1 
    11     7    10    1 
    12     8    19    ar
    13    10    12    1 
    14    10    13    1 
    15    11    17    ar
    16    11    19    ar
    17    13    15    1 
    18    13    16    1 
    19    14    18    ar
    20    14    21    ar
    21    16    25    1 
    22    17    22    1 
    23    18    20    ar
    24    18    23    1 
    25    19    33    1 
    26    20    24    1 
    27    20    31    ar
    28    21    31    ar
    29    21    32    1 
    30    22    27    2 
    31    23    26    ar
    32    23    28    ar
    33    25    32    1 
    34    29    32    2 
    35    30    32    2 
@<TRIPOS>MOLECULE
Molecule Ligandos_final.mol2
    15     0
SMALL
NO_CHARGES
@<TRIPOS>ATOM
      1 ACC        84.0160   17.9720 -102.6190 HB    0     HB      0.0000
      2 ACC        86.6000   19.1550 -103.2580 HB    1     HB      0.0000
      3 ACC        87.3820   17.0370 -104.9250 HB    2     HB      0.0000
      4 ACC        85.4470   14.9380 -105.0970 HB    3     HB      0.0000
      5 ACC        85.1600   16.1740 -101.7130 HB    4     HB      0.0000
      6 ACC        82.3520    7.5240  -99.3970 HB    5     HB      0.0000
      7 ACC        82.1260    9.2470  -97.8970 HB    6     HB      0.0000
      8 ACC        85.1610   13.2300 -102.3910 HB    7     HB      0.0000
      9 ACC        87.3660   19.7930 -101.1770 HB    8     HB      0.0000
     10 ACC        85.0120   13.6990  -99.8100 HB    9     HB      0.0000
     11 ACC        86.9580   12.3860 -100.7750 HB    10    HB      0.0000
     12 ACC        84.9320   10.2180 -101.3920 HB    11    HB      0.0000
     13 ANI        82.5860    8.6870  -98.9390 CHG   12    CHG     0.2217
     14 AR         88.1912   22.4273 -103.4502 AR    13    AR      0.0000
     15 AR         84.2652   10.2102 -100.4330 AR    14    AR      0.0000
@<TRIPOS>BOND
@<TRIPOS>MOLECULE
Ligandos_final_2.mol2
    37    40
SMALL
NO_CHARGES
@<TRIPOS>ATOM
      1 C1         87.8660   17.0320  -99.2200 C.1   1     6031    0.1173
      2 C2         88.7190   24.4500 -107.0170 C.1   1     6031   -0.0012
      3 C3         87.5280   24.9810 -106.5750 C.1   1     6031   -0.0080
      4 C4         89.3560   23.4480 -106.3180 C.1   1     6031   -0.0080
      5 C5         86.0020   23.3890 -101.3720 C.1   1     6031   -0.0158
      6 C6         85.7490   15.8640  -98.9570 C.1   1     6031   -0.0240
      7 C7         87.3770   15.0680 -100.5260 C.1   1     6031   -0.0240
      8 C8         86.9730   24.5000 -105.4160 C.1   1     6031   -0.0416
      9 C9         88.7930   22.9730 -105.1590 C.1   1     6031   -0.0416
     10 C10        86.5680   23.8650 -102.5310 C.1   1     6031   -0.0428
     11 C11        85.8780   22.0330 -101.1760 C.1   1     6031   -0.0391
     12 C12        84.8810   14.8480  -99.2970 C.1   1     6031    0.0420
     13 C13        86.5280   14.0440 -100.8740 C.1   1     6031    0.0420
     14 C14        86.8880   21.6440 -103.3110 C.1   1     6031   -0.0791
     15 C15        86.9810   15.9720  -99.5680 C.2   1     6031    0.1539
     16 C16        87.6030   23.5000 -104.7090 C.2   1     6031    0.0996
     17 C17        87.0140   22.9990 -103.5020 C.2   1     6031    0.0928
     18 C18        86.3220   21.1770 -102.1550 C.2   1     6031    0.1351
     19 C19        85.3010   13.9560 -100.2560 C.2   1     6031   -0.4269
     20 C20        86.2020   19.7360 -101.9610 C.2   1     6031    0.2943
     21 C21        85.2480   17.6710 -102.7910 C.2   1     6031    0.1898
     22 C22        85.3460   17.0580 -104.1640 C.2   1     6031    0.2597
     23 C23        84.9950   15.6010 -104.1310 C.2   1     6031    0.2671
     24 C24        83.7400   15.2970 -103.3510 C.2   1     6031    0.1946
     25 C25        83.9000   17.3330 -102.1930 C.2   1     6031    0.3220
     26 C26        83.7650   13.7940 -103.1720 C.1   1     6031   -0.0101
     27 N27        88.5880   17.9030  -98.9600 N.1   1     6031   -0.1895
     28 N28        85.4140   19.0990 -102.8760 N.2   1     6031   -0.1980
     29 N29        83.2100   13.4190 -101.8620 N.2   1     6031   -0.3189
     30 O30        86.7910   19.2050 -101.0360 O.2   1     6031   -0.2639
     31 O31        85.1280   11.6880 -101.4150 O.2   1     6031   -0.9313
     32 O32        83.4500   12.2560  -99.5770 O.2   1     6031   -0.9313
     33 O33        83.7880   15.9190 -102.0720 O.3   1     6031   -0.2588
     34 O34        86.6890   17.0860 -104.5940 O.2   1     6031   -0.2812
     35 O35        84.7520   15.2480 -105.4780 O.2   1     6031   -0.2802
     36 O36        82.8700   17.9220 -102.9750 O.2   1     6031   -0.2570
     37 S37        84.2410   12.6240 -100.7410 S.O2  1     6031    2.4621
@<TRIPOS>BOND
     1     1    15    1 
     2     1    27    3 
     3     2     3    ar
     4     2     4    ar
     5     3     8    ar
     6     4     9    ar
     7     5    10    ar
     8     5    11    ar
     9     6    12    ar
    10     6    15    ar
    11     7    13    ar
    12     7    15    ar
    13     8    16    ar
    14     9    16    ar
    15    10    17    ar
    16    11    18    ar
    17    12    19    ar
    18    13    19    ar
    19    14    17    ar
    20    14    18    ar
    21    16    17    1 
    22    18    20    1 
    23    19    37    1 
    24    20    28    1 
    25    20    30    2 
    26    21    22    1 
    27    21    25    1 
    28    21    28    1 
    29    22    23    1 
    30    22    34    1 
    31    23    24    1 
    32    23    35    1 
    33    24    26    1 
    34    24    33    1 
    35    25    33    1 
    36    25    36    1 
    37    26    29    1 
    38    29    37    1 
    39    31    37    2 
    40    32    37    2 
@<TRIPOS>MOLECULE
Molecule Ligandos_final_2.mol2
    13     0
SMALL
NO_CHARGES
@<TRIPOS>ATOM
      1 ACC        88.5880   17.9030  -98.9600 HB    0     HB      0.0000
      2 ACC        85.4140   19.0990 -102.8760 HB    1     HB      0.0000
      3 ACC        83.2100   13.4190 -101.8620 HB    2     HB      0.0000
      4 ACC        86.7910   19.2050 -101.0360 HB    3     HB      0.0000
      5 ACC        85.1280   11.6880 -101.4150 HB    4     HB      0.0000
      6 ACC        83.4500   12.2560  -99.5770 HB    5     HB      0.0000
      7 ACC        83.7880   15.9190 -102.0720 HB    6     HB      0.0000
      8 ACC        86.6890   17.0860 -104.5940 HB    7     HB      0.0000
      9 ACC        84.7520   15.2480 -105.4780 HB    8     HB      0.0000
     10 ACC        82.8700   17.9220 -102.9750 HB    9     HB      0.0000
     11 AR         88.1620   23.9753 -105.8657 AR    10    AR      0.0000
     12 AR         86.4453   22.5178 -102.3412 AR    11    AR      0.0000
     13 AR         86.1362   14.9587  -99.9130 AR    12    AR      0.0000
@<TRIPOS>BOND
@<TRIPOS>MOLECULE
Ligandos_final_3.mol2
    41    42
SMALL
NO_CHARGES
@<TRIPOS>ATOM
      1 CL1        86.1850   28.3790 -102.4650 Cl    1     62     -0.0820
      2 CL2        86.3560   29.0010 -105.5410 Cl    1     62     -0.0820
      3 C1         84.5150   18.2840 -103.5260 C.3   1     62      0.1750
      4 O1         83.3180   18.6210 -104.1440 O.3   1     62     -0.3656
      5 C2         85.6660   18.6410 -104.4590 C.3   1     62      0.0939
      6 C3         85.6460   17.7580 -105.7020 C.3   1     62      0.1039
      7 O3         86.8470   17.9850 -106.4150 O.3   1     62     -0.3874
      8 C4         85.5420   16.2930 -105.3170 C.3   1     62      0.1109
      9 O4         85.3570   15.5080 -106.4880 O.3   1     62     -0.3865
     10 C5         84.3860   16.0860 -104.3350 C.3   1     62      0.1129
     11 O5         84.5830   16.9370 -103.2020 O.3   1     62     -0.3417
     12 C6         84.2970   14.6800 -103.7960 C.3   1     62      0.0730
     13 O6         85.5210   14.3150 -103.1830 O.3   1     62     -0.3924
     14 N7         85.6100   20.0400 -104.8330 N.am  1     62     -0.2442
     15 C8         85.8960   20.9610 -103.9170 C.2   1     62      0.2248
     16 O9         86.2590   20.6560 -102.7690 O.2   1     62     -0.2746
     17 C10        85.8740   22.3360 -104.4090 C.2   1     62     -0.0026
     18 C11        85.7640   23.3760 -103.6050 C.2   1     62     -0.0499
     19 C12        85.8510   24.7590 -104.0760 C.ar  1     62     -0.0234
     20 C13        85.9670   25.0420 -105.4380 C.ar  1     62     -0.0531
     21 C14        86.1200   26.3400 -105.8880 C.ar  1     62     -0.0414
     22 C15        86.1830   27.3730 -104.9710 C.ar  1     62      0.0593
     23 C16        86.1000   27.1040 -103.6150 C.ar  1     62      0.0598
     24 C17        85.9550   25.8060 -103.1640 C.ar  1     62     -0.0348
     25 H11        84.6060   18.8020 -102.7120 H     1     62      0.0925
     26 H12        83.1430   19.4390 -103.9950 H     1     62      0.2125
     27 H21        86.4990   18.4820 -103.9870 H     1     62      0.0541
     28 H31        84.8860   18.0000 -106.2540 H     1     62      0.0637
     29 H32        87.4850   17.5750 -106.0310 H     1     62      0.2100
     30 H41        86.3690   16.0260 -104.8850 H     1     62      0.0646
     31 H42        85.7430   14.7570 -106.3890 H     1     62      0.2100
     32 H51        83.5510   16.3220 -104.7690 H     1     62      0.0647
     33 H61        84.1080   14.0700 -104.5250 H     1     62      0.0584
     34 H62        83.5840   14.6320 -103.1410 H     1     62      0.0584
     35 H63        85.7980   14.9560 -102.7000 H     1     62      0.2095
     36 H71        85.3930   20.2690 -105.6340 H     1     62      0.1312
     37 H101       86.0030   22.4860 -105.3180 H     1     62      0.0666
     38 H111       85.6890   23.2240 -102.6910 H     1     62      0.0625
     39 H131       85.9250   24.3470 -106.0550 H     1     62      0.0624
     40 H141       86.1630   26.5190 -106.7990 H     1     62      0.0633
     41 H171       85.9060   25.6350 -102.2510 H     1     62      0.0638
@<TRIPOS>BOND
     1     1    23    1 
     2     2    22    1 
     3     3     4    1 
     4     3    11    1 
     5     3    25    1 
     6     3     5    1 
     7     4    26    1 
     8     5     6    1 
     9     5    27    1 
    10     5    14    1 
    11     6     7    1 
    12     6    28    1 
    13     6     8    1 
    14     7    29    1 
    15     8     9    1 
    16     8    10    1 
    17     8    30    1 
    18     9    31    1 
    19    10    11    1 
    20    10    12    1 
    21    10    32    1 
    22    12    13    1 
    23    12    33    1 
    24    12    34    1 
    25    13    35    1 
    26    14    36    1 
    27    14    15    am
    28    15    16    2 
    29    15    17    1 
    30    17    18    1 
    31    17    37    1 
    32    18    38    1 
    33    18    19    1 
    34    19    20    ar
    35    19    24    ar
    36    20    21    ar
    37    20    39    1 
    38    21    40    1 
    39    21    22    ar
    40    22    23    ar
    41    23    24    ar
    42    24    41    1 
@<TRIPOS>MOLECULE
Molecule Ligandos_final_3.mol2
    13     0
SMALL
NO_CHARGES
@<TRIPOS>ATOM
      1 DON        83.3180   18.6210 -104.1440 HB    0     HB      0.0000
      2 DON        86.8470   17.9850 -106.4150 HB    1     HB      0.0000
      3 DON        85.3570   15.5080 -106.4880 HB    2     HB      0.0000
      4 DON        85.5210   14.3150 -103.1830 HB    3     HB      0.0000
      5 DON        85.6100   20.0400 -104.8330 HB    4     HB      0.0000
      6 ACC        83.3180   18.6210 -104.1440 HB    5     HB      0.0000
      7 ACC        86.8470   17.9850 -106.4150 HB    6     HB      0.0000
      8 ACC        85.3570   15.5080 -106.4880 HB    7     HB      0.0000
      9 ACC        84.5830   16.9370 -103.2020 HB    8     HB      0.0000
     10 ACC        85.5210   14.3150 -103.1830 HB    9     HB      0.0000
     11 ACC        86.2590   20.6560 -102.7690 HB    10    HB      0.0000
     12 AR         86.0293   26.0707 -104.5253 AR    11    AR      0.0000
     13 HYD        85.8075   24.0675 -103.8405 HYD   12    HYD     0.0000
@<TRIPOS>BOND
