@<TRIPOS>MOLECULE
Molecule Ligandos_final.mol2
     7     0
SMALL
NO_CHARGES
@<TRIPOS>ATOM
      1 ACC        84.0160   17.9720 -102.6190 HB    0     HB      0.0000
      3 ACC        87.3820   17.0370 -104.9250 HB    2     HB      0.0000
      4 ACC        85.4470   14.9380 -105.0970 HB    3     HB      0.0000
      5 ACC        85.1600   16.1740 -101.7130 HB    4     HB      0.0000
      8 ACC        85.1610   13.2300 -102.3910 HB    7     HB      0.0000
      9 ACC        87.3660   19.7930 -101.1770 HB    8     HB      0.0000
     14 AR         88.1912   22.4273 -103.4502 AR    13    AR      0.0000
@<TRIPOS>BOND
@<TRIPOS>MOLECULE
Ligandos_final.mol2
    33    35
SMALL
NO_CHARGES
@<TRIPOS>ATOM
      1 C1         85.2230   17.5630 -101.9920 C.2   1     6041    0.3220
      2 C1A        89.0200   22.4480 -104.5680 C.1   1     6041   -0.0153
      3 O1         84.0160   17.9720 -102.6190 O.2   1     6041   -0.2570
      4 C2         86.3940   17.7720 -102.9310 C.2   1     6041    0.1898
      5 C2A        88.5540   21.2500 -104.0630 C.1   1     6041   -0.0391
      6 N2         86.6000   19.1550 -103.2580 N.2   1     6041   -0.1980
      7 C3         86.1760   16.9900 -104.2010 C.2   1     6041    0.2597
      8 C3A        88.6500   23.6220 -103.9480 C.1   1     6041   -0.0372
      9 O3         87.3820   17.0370 -104.9250 O.2   1     6041   -0.2812
     10 C4         85.8590   15.5500 -103.8860 C.2   1     6041    0.2671
     11 C4A        87.3640   22.4070 -102.3320 C.1   1     6041   -0.0737
     12 O4         85.4470   14.9380 -105.0970 O.2   1     6041   -0.2802
     13 C5         84.7070   15.5670 -102.9120 C.2   1     6041    0.1946
     14 C5A        83.9070   10.8720  -99.5110 C.1   1     6041    0.0077
     15 O5         85.1600   16.1740 -101.7130 O.3   1     6041   -0.2588
     16 C6         84.1030   14.2150 -102.6080 C.1   1     6041   -0.0101
     17 C6A        87.7310   21.2420 -102.9530 C.2   1     6041    0.1355
     18 C7         83.5430    9.5360  -99.7910 C.2   1     6041    0.1408
     19 C8         87.8280   23.5950 -102.8370 C.2   1     6041    0.1116
     20 C9         84.1850    9.1680 -100.9490 C.2   1     6041    0.1550
     21 C10        84.7590   11.2570 -100.5220 C.2   1     6041   -0.3150
     22 C11        87.2160   19.9950 -102.3720 C.2   1     6041    0.2943
     23 C12        82.5860    8.6870  -98.9390 C.2   1     6041    0.2217
     24 C18        84.2100    7.9320 -101.7430 Hev   1     6041    0.0000
     25 N21        85.1610   13.2300 -102.3910 N.2   1     6041   -0.3188
     26 O22        82.3520    7.5240  -99.3970 O.co2 1     6041   -0.6434
     27 O23        87.3660   19.7930 -101.1770 O.2   1     6041   -0.2639
     28 O24        82.1260    9.2470  -97.8970 O.co2 1     6041   -0.6434
     29 O25        85.0120   13.6990  -99.8100 O.2   1     6041   -0.9312
     30 O26        86.9580   12.3860 -100.7750 O.2   1     6041   -0.9312
     31 O27        84.9320   10.2180 -101.3920 O.3   1     6041   -0.2348
     32 S32        85.5660   12.7780 -100.7890 S.O2  1     6041    2.4641
     33 BR         87.2890   25.1810 -101.9440 Br    1     6041   -0.0315
@<TRIPOS>BOND
     1     1     3    1 
     2     1    15    1 
     3     1     4    1 
     4     2     5    ar
     5     2     8    ar
     6     4     6    1 
     7     4     7    1 
     8     5    17    ar
     9     6    22    1 
    10     7     9    1 
    11     7    10    1 
    12     8    19    ar
    13    10    12    1 
    14    10    13    1 
    15    11    17    ar
    16    11    19    ar
    17    13    15    1 
    18    13    16    1 
    19    14    18    ar
    20    14    21    ar
    21    16    25    1 
    22    17    22    1 
    23    18    20    ar
    24    18    23    1 
    25    19    33    1 
    26    20    24    1 
    27    20    31    ar
    28    21    31    ar
    29    21    32    1 
    30    22    27    2 
    31    23    26    ar
    32    23    28    ar
    33    25    32    1 
    34    29    32    2 
    35    30    32    2 
@<TRIPOS>MOLECULE
Molecule Ligandos_final.mol2
    15     0
SMALL
NO_CHARGES
@<TRIPOS>ATOM
      1 ACC        84.0160   17.9720 -102.6190 HB    0     HB      0.0000
      2 ACC        86.6000   19.1550 -103.2580 HB    1     HB      0.0000
      3 ACC        87.3820   17.0370 -104.9250 HB    2     HB      0.0000
      4 ACC        85.4470   14.9380 -105.0970 HB    3     HB      0.0000
      5 ACC        85.1600   16.1740 -101.7130 HB    4     HB      0.0000
      6 ACC        82.3520    7.5240  -99.3970 HB    5     HB      0.0000
      7 ACC        82.1260    9.2470  -97.8970 HB    6     HB      0.0000
      8 ACC        85.1610   13.2300 -102.3910 HB    7     HB      0.0000
      9 ACC        87.3660   19.7930 -101.1770 HB    8     HB      0.0000
     10 ACC        85.0120   13.6990  -99.8100 HB    9     HB      0.0000
     11 ACC        86.9580   12.3860 -100.7750 HB    10    HB      0.0000
     12 ACC        84.9320   10.2180 -101.3920 HB    11    HB      0.0000
     13 ANI        82.5860    8.6870  -98.9390 CHG   12    CHG     0.2217
     14 AR         88.1912   22.4273 -103.4502 AR    13    AR      0.0000
     15 AR         84.2652   10.2102 -100.4330 AR    14    AR      0.0000
@<TRIPOS>BOND
@<TRIPOS>MOLECULE
Ligandos_final_3.mol2
    41    42
SMALL
NO_CHARGES
@<TRIPOS>ATOM
      1 CL1        90.4625   23.7011 -105.9294 Cl    1     62     -0.0820
      2 CL2        90.0482   26.5648 -104.7022 Cl    1     62     -0.0820
      3 C1         84.8997   17.0183 -101.9684 C.3   1     62      0.1750
      4 O1         83.8250   17.6052 -102.6231 O.3   1     62     -0.3656
      5 C2         86.1430   17.1655 -102.8374 C.3   1     62      0.0939
      6 C3         86.0096   16.3408 -104.1131 C.3   1     62      0.1039
      7 O3         87.2653   16.3442 -104.7654 O.3   1     62     -0.3874
      8 C4         85.5989   14.9154 -103.7892 C.3   1     62      0.1109
      9 O4         85.3199   14.2176 -104.9962 O.3   1     62     -0.3865
     10 C5         84.3780   14.9148 -102.8657 C.3   1     62      0.1129
     11 O5         84.6837   15.6760 -101.6936 O.3   1     62     -0.3417
     12 C6         83.7963   13.5486 -102.4581 C.3   1     62      0.0730
     13 O6         84.8009   12.5731 -102.2431 O.3   1     62     -0.3924
     14 N7         86.4158   18.5147 -103.2080 N.am  1     62     -0.2442
     15 C8         86.9335   19.4379 -102.0460 C.2   1     62      0.2248
     16 O9         87.1074   19.1918 -100.8410 O.2   1     62     -0.2746
     17 C10        87.4527   20.6364 -102.6995 C.2   1     62     -0.0026
     18 C11        87.7113   21.7492 -102.0399 C.2   1     62     -0.0499
     19 C12        88.3335   22.9179 -102.6636 C.ar  1     62     -0.0234
     20 C13        88.1223   24.1979 -102.1480 C.ar  1     62     -0.0531
     21 C14        88.6479   25.3148 -102.7699 C.ar  1     62     -0.0414
     22 C15        89.3752   25.1629 -103.9361 C.ar  1     62      0.0593
     23 C16        89.5668   23.9020 -104.4758 C.ar  1     62      0.0598
     24 C17        89.0351   22.7857 -103.8590 C.ar  1     62     -0.0348
     25 H11        85.0514   17.4838 -101.1320 H     1     62      0.0925
     26 H12        83.8083   18.4370 -102.4505 H     1     62      0.2125
     27 H21        86.9038   16.8298 -102.3371 H     1     62      0.0541
     28 H31        85.3406   16.7455 -104.6871 H     1     62      0.0637
     29 H32        87.7899   15.8042 -104.3707 H     1     62      0.2100
     30 H41        86.3344   14.4763 -103.3331 H     1     62      0.0646
     31 H42        85.5442   13.4021 -104.9098 H     1     62      0.2100
     32 H51        83.7337   15.5435 -102.9227 H     1     62      0.0647
     33 H61        83.2433   13.2808 -103.2076 H     1     62      0.0584
     34 H62        83.2480   13.6244 -101.6623 H     1     62      0.0584
     35 H63        85.4078   12.8966 -101.7451 H     1     62      0.2095
     36 H71        86.2558   18.8487 -103.9598 H     1     62      0.1312
     37 H101       87.6656   20.5938 -103.6041 H     1     62      0.0666
     38 H111       87.5473   21.7708 -101.1252 H     1     62      0.0625
     39 H131       87.6327   24.3002 -101.3636 H     1     62      0.0624
     40 H141       88.5283   26.1586 -102.3990 H     1     62      0.0633
     41 H171       89.1644   21.9437 -104.2325 H     1     62      0.0638
@<TRIPOS>BOND
     1     1    23    1 
     2     2    22    1 
     3     3     4    1 
     4     3    11    1 
     5     3    25    1 
     6     3     5    1 
     7     4    26    1 
     8     5     6    1 
     9     5    27    1 
    10     5    14    1 
    11     6     7    1 
    12     6    28    1 
    13     6     8    1 
    14     7    29    1 
    15     8     9    1 
    16     8    10    1 
    17     8    30    1 
    18     9    31    1 
    19    10    11    1 
    20    10    12    1 
    21    10    32    1 
    22    12    13    1 
    23    12    33    1 
    24    12    34    1 
    25    13    35    1 
    26    14    36    1 
    27    14    15    am
    28    15    16    2 
    29    15    17    1 
    30    17    18    1 
    31    17    37    1 
    32    18    38    1 
    33    18    19    1 
    34    19    20    ar
    35    19    24    ar
    36    20    21    ar
    37    20    39    1 
    38    21    40    1 
    39    21    22    ar
    40    22    23    ar
    41    23    24    ar
    42    24    41    1 
@<TRIPOS>MOLECULE
Molecule Ligandos_final_3.mol2
    13     0
SMALL
NO_CHARGES
@<TRIPOS>ATOM
      1 DON        83.8250   17.6052 -102.6231 HB    0     HB      0.0000
      2 DON        87.2653   16.3442 -104.7654 HB    1     HB      0.0000
      3 DON        85.3199   14.2176 -104.9962 HB    2     HB      0.0000
      4 DON        84.8009   12.5731 -102.2431 HB    3     HB      0.0000
      5 DON        86.3835   18.5578 -103.1596 HB    4     HB      0.0000
      6 ACC        83.8250   17.6052 -102.6231 HB    5     HB      0.0000
      7 ACC        87.2653   16.3442 -104.7654 HB    6     HB      0.0000
      8 ACC        85.3199   14.2176 -104.9962 HB    7     HB      0.0000
      9 ACC        84.6837   15.6760 -101.6936 HB    8     HB      0.0000
     10 ACC        84.8009   12.5731 -102.2431 HB    9     HB      0.0000
     11 ACC        87.1074   19.1918 -100.8410 HB    10    HB      0.0000
     12 AR         88.8468   24.0469 -103.3087 AR    11    AR      0.0000
     13 HYD        88.0223   22.3336 -102.3518 HYD   12    HYD     0.0000
@<TRIPOS>BOND
