@<TRIPOS>MOLECULE
Molecule Ligandos_final.mol2
     5     0
SMALL
NO_CHARGES
@<TRIPOS>ATOM
      1 ACC        84.0160   17.9720 -102.6190 HB    0     HB      0.0000
      3 ACC        87.3820   17.0370 -104.9250 HB    2     HB      0.0000
      4 ACC        85.4470   14.9380 -105.0970 HB    3     HB      0.0000
      8 ACC        85.1610   13.2300 -102.3910 HB    7     HB      0.0000
     15 AR         84.2652   10.2102 -100.4330 AR    14    AR      0.0000
@<TRIPOS>BOND
@<TRIPOS>MOLECULE
Ligandos_final.mol2
    33    35
SMALL
NO_CHARGES
@<TRIPOS>ATOM
      1 C1         85.2230   17.5630 -101.9920 C.2   1     6041    0.3220
      2 C1A        89.0200   22.4480 -104.5680 C.1   1     6041   -0.0153
      3 O1         84.0160   17.9720 -102.6190 O.2   1     6041   -0.2570
      4 C2         86.3940   17.7720 -102.9310 C.2   1     6041    0.1898
      5 C2A        88.5540   21.2500 -104.0630 C.1   1     6041   -0.0391
      6 N2         86.6000   19.1550 -103.2580 N.2   1     6041   -0.1980
      7 C3         86.1760   16.9900 -104.2010 C.2   1     6041    0.2597
      8 C3A        88.6500   23.6220 -103.9480 C.1   1     6041   -0.0372
      9 O3         87.3820   17.0370 -104.9250 O.2   1     6041   -0.2812
     10 C4         85.8590   15.5500 -103.8860 C.2   1     6041    0.2671
     11 C4A        87.3640   22.4070 -102.3320 C.1   1     6041   -0.0737
     12 O4         85.4470   14.9380 -105.0970 O.2   1     6041   -0.2802
     13 C5         84.7070   15.5670 -102.9120 C.2   1     6041    0.1946
     14 C5A        83.9070   10.8720  -99.5110 C.1   1     6041    0.0077
     15 O5         85.1600   16.1740 -101.7130 O.3   1     6041   -0.2588
     16 C6         84.1030   14.2150 -102.6080 C.1   1     6041   -0.0101
     17 C6A        87.7310   21.2420 -102.9530 C.2   1     6041    0.1355
     18 C7         83.5430    9.5360  -99.7910 C.2   1     6041    0.1408
     19 C8         87.8280   23.5950 -102.8370 C.2   1     6041    0.1116
     20 C9         84.1850    9.1680 -100.9490 C.2   1     6041    0.1550
     21 C10        84.7590   11.2570 -100.5220 C.2   1     6041   -0.3150
     22 C11        87.2160   19.9950 -102.3720 C.2   1     6041    0.2943
     23 C12        82.5860    8.6870  -98.9390 C.2   1     6041    0.2217
     24 C18        84.2100    7.9320 -101.7430 Hev   1     6041    0.0000
     25 N21        85.1610   13.2300 -102.3910 N.2   1     6041   -0.3188
     26 O22        82.3520    7.5240  -99.3970 O.co2 1     6041   -0.6434
     27 O23        87.3660   19.7930 -101.1770 O.2   1     6041   -0.2639
     28 O24        82.1260    9.2470  -97.8970 O.co2 1     6041   -0.6434
     29 O25        85.0120   13.6990  -99.8100 O.2   1     6041   -0.9312
     30 O26        86.9580   12.3860 -100.7750 O.2   1     6041   -0.9312
     31 O27        84.9320   10.2180 -101.3920 O.3   1     6041   -0.2348
     32 S32        85.5660   12.7780 -100.7890 S.O2  1     6041    2.4641
     33 BR         87.2890   25.1810 -101.9440 Br    1     6041   -0.0315
@<TRIPOS>BOND
     1     1     3    1 
     2     1    15    1 
     3     1     4    1 
     4     2     5    ar
     5     2     8    ar
     6     4     6    1 
     7     4     7    1 
     8     5    17    ar
     9     6    22    1 
    10     7     9    1 
    11     7    10    1 
    12     8    19    ar
    13    10    12    1 
    14    10    13    1 
    15    11    17    ar
    16    11    19    ar
    17    13    15    1 
    18    13    16    1 
    19    14    18    ar
    20    14    21    ar
    21    16    25    1 
    22    17    22    1 
    23    18    20    ar
    24    18    23    1 
    25    19    33    1 
    26    20    24    1 
    27    20    31    ar
    28    21    31    ar
    29    21    32    1 
    30    22    27    2 
    31    23    26    ar
    32    23    28    ar
    33    25    32    1 
    34    29    32    2 
    35    30    32    2 
@<TRIPOS>MOLECULE
Molecule Ligandos_final.mol2
    15     0
SMALL
NO_CHARGES
@<TRIPOS>ATOM
      1 ACC        84.0160   17.9720 -102.6190 HB    0     HB      0.0000
      2 ACC        86.6000   19.1550 -103.2580 HB    1     HB      0.0000
      3 ACC        87.3820   17.0370 -104.9250 HB    2     HB      0.0000
      4 ACC        85.4470   14.9380 -105.0970 HB    3     HB      0.0000
      5 ACC        85.1600   16.1740 -101.7130 HB    4     HB      0.0000
      6 ACC        82.3520    7.5240  -99.3970 HB    5     HB      0.0000
      7 ACC        82.1260    9.2470  -97.8970 HB    6     HB      0.0000
      8 ACC        85.1610   13.2300 -102.3910 HB    7     HB      0.0000
      9 ACC        87.3660   19.7930 -101.1770 HB    8     HB      0.0000
     10 ACC        85.0120   13.6990  -99.8100 HB    9     HB      0.0000
     11 ACC        86.9580   12.3860 -100.7750 HB    10    HB      0.0000
     12 ACC        84.9320   10.2180 -101.3920 HB    11    HB      0.0000
     13 ANI        82.5860    8.6870  -98.9390 CHG   12    CHG     0.2217
     14 AR         88.1912   22.4273 -103.4502 AR    13    AR      0.0000
     15 AR         84.2652   10.2102 -100.4330 AR    14    AR      0.0000
@<TRIPOS>BOND
@<TRIPOS>MOLECULE
Ligandos_final_2.mol2
    37    40
SMALL
NO_CHARGES
@<TRIPOS>ATOM
      1 C1         82.7586    7.7057  -99.7540 C.1   1     6031    0.1173
      2 C2         91.4687   22.4869 -107.8941 C.1   1     6031   -0.0012
      3 C3         90.3821   23.3312 -107.8464 C.1   1     6031   -0.0080
      4 C4         91.7528   21.6309 -106.8525 C.1   1     6031   -0.0080
      5 C5         87.8138   23.6172 -102.8208 C.1   1     6031   -0.0158
      6 C6         84.2661    9.0328 -101.1255 C.1   1     6031   -0.0240
      7 C7         83.2864    9.9776  -99.1524 C.1   1     6031   -0.0240
      8 C8         89.5738   23.3154 -106.7378 C.1   1     6031   -0.0416
      9 C9         90.9382   21.6222 -105.7470 C.1   1     6031   -0.0416
     10 C10        88.6316   23.6262 -103.9260 C.1   1     6031   -0.0428
     11 C11        87.3544   22.4221 -102.3175 C.1   1     6031   -0.0391
     12 C12        84.9310   10.2103 -101.3951 C.1   1     6031    0.0420
     13 C13        83.9462   11.1580  -99.4007 C.1   1     6031    0.0420
     14 C14        88.5377   21.2552 -104.0402 C.1   1     6031   -0.0791
     15 C15        83.4517    8.9214 -100.0178 C.2   1     6031    0.1539
     16 C16        89.8505   22.4648 -105.6905 C.2   1     6031    0.0996
     17 C17        88.9981   22.4504 -104.5381 C.2   1     6031    0.0928
     18 C18        87.7224   21.2537 -102.9401 C.2   1     6031    0.1351
     19 C19        84.7509   11.2508 -100.5138 C.2   1     6031   -0.4269
     20 C20        87.2171   19.9999 -102.3706 C.2   1     6031    0.2943
     21 C21        86.4062   17.7788 -102.9285 C.2   1     6031    0.1898
     22 C22        86.2213   17.0083 -104.2102 C.2   1     6031    0.2597
     23 C23        85.7319   15.6177 -103.9383 C.2   1     6031    0.2671
     24 C24        84.5922   15.5579 -102.9518 C.2   1     6031    0.1946
     25 C25        85.1427   17.6763 -102.1026 C.2   1     6031    0.3220
     26 C26        84.2030   14.0574 -102.5136 C.1   1     6031   -0.0101
     27 N27        82.1723    6.7271  -99.5390 N.1   1     6031   -0.1895
     28 N28        86.8712   19.3026 -103.4012 N.2   1     6031   -0.1980
     29 N29        85.0927   13.2461 -102.3688 N.2   1     6031   -0.3189
     30 O30        87.3658   19.7934 -101.1790 O.2   1     6031   -0.2639
     31 O31        85.0354   13.6732  -99.7862 O.2   1     6031   -0.9313
     32 O32        87.0188   12.3903 -100.7543 O.2   1     6031   -0.9313
     33 O33        84.9064   16.3089 -101.7847 O.3   1     6031   -0.2588
     34 O34        87.4746   16.8245 -104.8304 O.2   1     6031   -0.2812
     35 O35        85.2431   15.1480 -105.1787 O.2   1     6031   -0.2802
     36 O36        84.0677   18.2946 -102.7965 O.2   1     6031   -0.2570
     37 S37        85.6120   12.7606 -100.7618 S.O2  1     6031    2.4621
@<TRIPOS>BOND
     1     1    15    1 
     2     1    27    3 
     3     2     3    ar
     4     2     4    ar
     5     3     8    ar
     6     4     9    ar
     7     5    10    ar
     8     5    11    ar
     9     6    12    ar
    10     6    15    ar
    11     7    13    ar
    12     7    15    ar
    13     8    16    ar
    14     9    16    ar
    15    10    17    ar
    16    11    18    ar
    17    12    19    ar
    18    13    19    ar
    19    14    17    ar
    20    14    18    ar
    21    16    17    1 
    22    18    20    1 
    23    19    37    1 
    24    20    28    1 
    25    20    30    2 
    26    21    22    1 
    27    21    25    1 
    28    21    28    1 
    29    22    23    1 
    30    22    34    1 
    31    23    24    1 
    32    23    35    1 
    33    24    26    1 
    34    24    33    1 
    35    25    33    1 
    36    25    36    1 
    37    26    29    1 
    38    29    37    1 
    39    31    37    2 
    40    32    37    2 
@<TRIPOS>MOLECULE
Molecule Ligandos_final_2.mol2
    13     0
SMALL
NO_CHARGES
@<TRIPOS>ATOM
      1 ACC        82.1723    6.7271  -99.5390 HB    0     HB      0.0000
      2 ACC        86.6034   19.1606 -103.2554 HB    1     HB      0.0000
      3 ACC        85.3639   13.1713 -102.3354 HB    2     HB      0.0000
      4 ACC        87.3658   19.7934 -101.1790 HB    3     HB      0.0000
      5 ACC        85.0354   13.6732  -99.7862 HB    4     HB      0.0000
      6 ACC        87.0188   12.3903 -100.7543 HB    5     HB      0.0000
      7 ACC        84.9064   16.3089 -101.7847 HB    6     HB      0.0000
      8 ACC        87.4746   16.8245 -104.8304 HB    7     HB      0.0000
      9 ACC        85.2431   15.1480 -105.1787 HB    8     HB      0.0000
     10 ACC        84.0677   18.2946 -102.7965 HB    9     HB      0.0000
     11 AR         90.6610   22.4752 -106.7947 AR    10    AR      0.0000
     12 AR         88.1763   22.4375 -103.4305 AR    11    AR      0.0000
     13 AR         84.1054   10.0918 -100.2675 AR    12    AR      0.0000
@<TRIPOS>BOND
@<TRIPOS>MOLECULE
Ligandos_final_3.mol2
    41    42
SMALL
NO_CHARGES
@<TRIPOS>ATOM
      1 CL1        84.1040    9.9931 -104.8089 Cl    1     62     -0.0820
      2 CL2        82.2505    7.8357 -103.4716 Cl    1     62     -0.0820
      3 C1         84.2248   16.9477 -102.6478 C.3   1     62      0.1750
      4 O1         85.2213   17.6197 -101.9522 O.3   1     62     -0.3656
      5 C2         84.6977   15.5269 -102.9314 C.3   1     62      0.0939
      6 C3         85.8700   15.5335 -103.9064 C.3   1     62      0.1039
      7 O3         86.1193   14.1958 -104.2945 O.3   1     62     -0.3874
      8 C4         85.5462   16.3748 -105.1281 C.3   1     62      0.1109
      9 O4         86.7086   16.5013 -105.9372 O.3   1     62     -0.3865
     10 C5         85.0291   17.7505 -104.6998 C.3   1     62      0.1129
     11 O5         83.8981   17.5734 -103.8418 O.3   1     62     -0.3417
     12 C6         84.5556   18.6021 -105.8513 C.3   1     62      0.0730
     13 O6         83.5544   17.9178 -106.5838 O.3   1     62     -0.3924
     14 N7         85.0670   14.8528 -101.7028 N.am  1     62     -0.2442
     15 C8         85.1314   13.5243 -101.6942 C.2   1     62      0.2248
     16 O9         84.9357   12.8499 -102.7186 O.2   1     62     -0.2746
     17 C10        85.5741   12.9447 -100.4287 C.2   1     62     -0.0026
     18 C11        85.3521   11.6844 -100.1090 C.2   1     62     -0.0499
     19 C12        84.5507   10.7822 -100.9373 C.ar  1     62     -0.0234
     20 C13        83.7553    9.7955 -100.3523 C.ar  1     62     -0.0531
     21 C14        83.0495    8.8939 -101.1267 C.ar  1     62     -0.0414
     22 C15        83.1524    8.9564 -102.5042 C.ar  1     62      0.0593
     23 C16        83.9618    9.9106 -103.0976 C.ar  1     62      0.0598
     24 C17        84.6739   10.8071 -102.3240 C.ar  1     62     -0.0348
     25 H11        83.4299   16.9035 -102.0951 H     1     62      0.0925
     26 H12        85.1423   17.4615 -101.1212 H     1     62      0.2125
     27 H21        83.9649   15.0398 -103.3410 H     1     62      0.0541
     28 H31        86.6523   15.8978 -103.4635 H     1     62      0.0637
     29 H32        85.5371   13.9542 -104.8648 H     1     62      0.2100
     30 H41        84.8530   15.9268 -105.6387 H     1     62      0.0646
     31 H42        86.4815   16.5302 -106.7560 H     1     62      0.2100
     32 H51        85.7269   18.2180 -104.2142 H     1     62      0.0647
     33 H61        85.3051   18.7956 -106.4345 H     1     62      0.0584
     34 H62        84.1904   19.4318 -105.5078 H     1     62      0.0584
     35 H63        83.0048   17.5591 -106.0451 H     1     62      0.2095
     36 H71        85.8933   14.6853 -101.5286 H     1     62      0.1312
     37 H101       86.0842   13.4682  -99.8533 H     1     62      0.0666
     38 H111       84.8879   11.1492 -100.7109 H     1     62      0.0625
     39 H131       83.6863    9.7532  -99.4255 H     1     62      0.0624
     40 H141       82.4974    8.2625 -100.7263 H     1     62      0.0633
     41 H171       85.2193   11.4406 -102.7319 H     1     62      0.0638
@<TRIPOS>BOND
     1     1    23    1 
     2     2    22    1 
     3     3     4    1 
     4     3    11    1 
     5     3    25    1 
     6     3     5    1 
     7     4    26    1 
     8     5     6    1 
     9     5    27    1 
    10     5    14    1 
    11     6     7    1 
    12     6    28    1 
    13     6     8    1 
    14     7    29    1 
    15     8     9    1 
    16     8    10    1 
    17     8    30    1 
    18     9    31    1 
    19    10    11    1 
    20    10    12    1 
    21    10    32    1 
    22    12    13    1 
    23    12    33    1 
    24    12    34    1 
    25    13    35    1 
    26    14    36    1 
    27    14    15    am
    28    15    16    2 
    29    15    17    1 
    30    17    18    1 
    31    17    37    1 
    32    18    38    1 
    33    18    19    1 
    34    19    20    ar
    35    19    24    ar
    36    20    21    ar
    37    20    39    1 
    38    21    40    1 
    39    21    22    ar
    40    22    23    ar
    41    23    24    ar
    42    24    41    1 
@<TRIPOS>MOLECULE
Molecule Ligandos_final_3.mol2
    13     0
SMALL
NO_CHARGES
@<TRIPOS>ATOM
      1 DON        85.2213   17.6197 -101.9522 HB    0     HB      0.0000
      2 DON        86.1193   14.1958 -104.2945 HB    1     HB      0.0000
      3 DON        86.7086   16.5013 -105.9372 HB    2     HB      0.0000
      4 DON        83.5544   17.9178 -106.5838 HB    3     HB      0.0000
      5 DON        85.0670   14.8528 -101.7028 HB    4     HB      0.0000
      6 ACC        85.2213   17.6197 -101.9522 HB    5     HB      0.0000
      7 ACC        86.1193   14.1958 -104.2945 HB    6     HB      0.0000
      8 ACC        86.7086   16.5013 -105.9372 HB    7     HB      0.0000
      9 ACC        83.8981   17.5734 -103.8418 HB    8     HB      0.0000
     10 ACC        83.5544   17.9178 -106.5838 HB    9     HB      0.0000
     11 ACC        84.9357   12.8499 -102.7186 HB    10    HB      0.0000
     12 AR         83.8572    9.8576 -101.7237 AR    11    AR      0.0000
     13 HYD        84.9514   11.2333 -100.5231 HYD   12    HYD     0.0000
@<TRIPOS>BOND
