@<TRIPOS>MOLECULE
Unknown
   25    25     1    0    0
SMALL
USER_CHARGES

File created by VEGA 1.5.7
@<TRIPOS>ATOM
      1 C1          1.7802   -0.8399    4.3052 C.ar      1 <0>1       -0.0617
      2 C2          2.5712    0.1140    3.6650 C.ar      1 <0>1       -0.0615
      3 C3          0.5886   -1.2656    3.7183 C.ar      1 <0>1       -0.0615
      4 C4          2.1704    0.6424    2.4378 C.ar      1 <0>1       -0.0586
      5 C5          0.1878   -0.7372    2.4912 C.ar      1 <0>1       -0.0586
      6 C6          0.9842    0.2097    1.8676 C.ar      1 <0>1       -0.0466
      7 C7         -2.1134    1.2663   -1.0347 C.2       1 <0>1        0.1768
      8 C8          0.5569    3.2790    0.9693 C.2       1 <0>1        0.1801
      9 C9          0.5501    0.7821    0.5388 C.3       1 <0>1       -0.0146
     10 C10        -1.1095    2.3376   -0.5892 C.3       1 <0>1        0.0465
     11 C11        -0.3209    2.0399    0.6911 C.3       1 <0>1        0.0588
     12 O1         -2.2926    1.1434   -2.2773 O.co2     1 <0>1       -0.6478
     13 O2          1.4173    3.5614    0.0883 O.co2     1 <0>1       -0.6476
     14 O3         -2.6370    0.6196   -0.0818 O.co2     1 <0>1       -0.6478
     15 O4          0.3020    3.8674    2.0595 O.co2     1 <0>1       -0.6476
     16 H1          2.0920   -1.2511    5.2608 H         1 <0>1        0.0618
     17 H2          3.4988    0.4455    4.1222 H         1 <0>1        0.0618
     18 H3         -0.0277   -2.0077    4.2172 H         1 <0>1        0.0618
     19 H4          2.7927    1.3859    1.9466 H         1 <0>1        0.0620
     20 H5         -0.7423   -1.0744    2.0415 H         1 <0>1        0.0620
     21 H6          1.4347    0.9900   -0.0772 H         1 <0>1        0.0321
     22 H7          0.0000    0.0000    0.0000 H         1 <0>1        0.0321
     23 H8         -1.6890    3.2616   -0.4591 H         1 <0>1        0.0382
     24 H9         -0.4165    2.5199   -1.4216 H         1 <0>1        0.0382
     25 H10        -1.0183    1.9130    1.5293 H         1 <0>1        0.0418
@<TRIPOS>BOND
     1    1    2 ar
     2    1    3 ar
     3    1   16 1
     4    2    4 ar
     5    2   17 1
     6    3    5 ar
     7    3   18 1
     8    4    6 ar
     9    4   19 1
    10    5    6 ar
    11    5   20 1
    12    6    9 1
    13    7   10 1
    14    7   12 1
    15    7   14 2
    16    8   11 1
    17    8   13 1
    18    8   15 2
    19    9   11 1
    20    9   21 1
    21    9   22 1
    22   10   11 1
    23   10   23 1
    24   10   24 1
    25   11   25 1
@<TRIPOS>SUBSTRUCTURE
     1 <0>1        1 RESIDUE           1 A     <0>     0 ROOT

@<TRIPOS>MOLECULE
Unknown
   21    21     1    0    0
SMALL
USER_CHARGES

File created by VEGA 1.5.7
@<TRIPOS>ATOM
      1 C1          5.8170    1.5963    1.1992 C.ar      1 <0>1       -0.0617
      2 C2          5.7807    2.4327    2.3149 C.ar      1 <0>1       -0.0615
      3 C3          4.9710    0.4894    1.1295 C.ar      1 <0>1       -0.0615
      4 C4          4.8985    2.1622    3.3609 C.ar      1 <0>1       -0.0585
      5 C5          4.0888    0.2189    2.1755 C.ar      1 <0>1       -0.0585
      6 C6          4.0525    1.0553    3.2912 C.ar      1 <0>1       -0.0444
      7 C7          2.9787   -0.1479    6.8317 C.2       1 <0>1        0.2064
      8 C8          3.1092    0.7659    4.4099 C.3       1 <0>1        0.0085
      9 C9          3.7202   -0.1451    5.4862 C.3       1 <0>1        0.1443
     10 O1          1.7556   -0.4619    6.7502 O.co2     1 <0>1       -0.6460
     11 O2          3.6591    0.1527    7.8510 O.co2     1 <0>1       -0.6460
     12 O3          3.6960   -1.4892    5.0066 O.3       1 <0>1       -0.3807
     13 H1          6.5041    1.8067    0.3850 H         1 <0>1        0.0618
     14 H2          6.4396    3.2943    2.3692 H         1 <0>1        0.0618
     15 H3          4.9999   -0.1623    0.2612 H         1 <0>1        0.0618
     16 H4          4.8776    2.8189    4.2267 H         1 <0>1        0.0620
     17 H5          3.4335   -0.6459    2.1127 H         1 <0>1        0.0620
     18 H6          2.7767    1.7118    4.8727 H         1 <0>1        0.0344
     19 H7          2.1943    0.3004    4.0042 H         1 <0>1        0.0344
     20 H8          4.7660    0.1336    5.6653 H         1 <0>1        0.0709
     21 H9          4.4674   -1.5878    4.4283 H         1 <0>1        0.2105
@<TRIPOS>BOND
     1    1    2 ar
     2    1    3 ar
     3    1   13 1
     4    2    4 ar
     5    2   14 1
     6    3    5 ar
     7    3   15 1
     8    4    6 ar
     9    4   16 1
    10    5    6 ar
    11    5   17 1
    12    6    8 1
    13    7    9 1
    14    7   10 1
    15    7   11 2
    16    8    9 1
    17    8   18 1
    18    8   19 1
    19    9   12 1
    20    9   20 1
    21   12   21 1
@<TRIPOS>SUBSTRUCTURE
     1 <0>1        1 RESIDUE           1 A     <0>     0 ROOT

@<TRIPOS>MOLECULE
Unknown
   31    31     1    0    0
SMALL
USER_CHARGES

File created by VEGA 1.5.7
@<TRIPOS>ATOM
      1 C1         -0.5711    3.2016   -1.3976 C.ar      1 <0>1       -0.0561
      2 C2         -0.0699    3.1312    0.9648 C.ar      1 <0>1       -0.0561
      3 C3         -1.6185    4.0885   -1.1490 C.ar      1 <0>1       -0.0317
      4 C4         -1.1174    4.0182    1.2134 C.ar      1 <0>1       -0.0317
      5 C5          0.1951    2.7299   -0.3389 C.ar      1 <0>1       -0.0452
      6 C6         -1.8917    4.4968    0.1565 C.ar      1 <0>1        0.0726
      7 C7          2.8472   -0.9641    0.2609 C.2       1 <0>1        0.2284
      8 C8         -0.0953   -0.1517   -1.6428 C.2       1 <0>1        0.1946
      9 C9          1.3236    1.7752   -0.6067 C.3       1 <0>1       -0.0019
     10 C10         3.9876   -1.8141   -0.2404 C.3       1 <0>1        0.1826
     11 C11         0.8866    0.3103   -0.5573 C.3       1 <0>1        0.1045
     12 N1          2.0458   -0.5204   -0.7804 N.am      1 <0>1       -0.2435
     13 N2          4.8419   -2.2884    0.8745 N.4       1 <0>1       -0.0668
     14 O1          0.2822    0.0838   -2.8270 O.co2     1 <0>1       -0.6467
     15 O2          2.6677   -0.7094    1.4488 O.2       1 <0>1       -0.2776
     16 O3         -1.1521   -0.7116   -1.2377 O.co2     1 <0>1       -0.6467
     17 O4         -2.9128    5.3636    0.3989 O.3       1 <0>1       -0.3598
     18 H1         -0.3660    2.8891   -2.4179 H         1 <0>1        0.0621
     19 H2          0.5284    2.7637    1.7944 H         1 <0>1        0.0621
     20 H3         -2.2179    4.4579   -1.9764 H         1 <0>1        0.0643
     21 H4         -1.3247    4.3334    2.2326 H         1 <0>1        0.0643
     22 H5          1.7439    1.9980   -1.5977 H         1 <0>1        0.0334
     23 H6          2.1462    1.9571    0.0980 H         1 <0>1        0.0334
     24 H7          4.6295   -1.2362   -0.9110 H         1 <0>1        0.0654
     25 H8          3.6046   -2.7021   -0.7508 H         1 <0>1        0.0654
     26 H9          0.4806    0.0621    0.4311 H         1 <0>1        0.0579
     27 H10         2.2863   -0.7630   -1.7373 H         1 <0>1        0.1312
     28 H11         5.2110   -1.4995    1.4166 H         1 <0>1        0.2747
     29 H12         5.6395   -2.8291    0.5218 H         1 <0>1        0.2747
     30 H13         4.3114   -2.8900    1.5144 H         1 <0>1        0.2747
     31 H14        -2.9237    6.0661   -0.2706 H         1 <0>1        0.2173
@<TRIPOS>BOND
     1    1    3 ar
     2    1    5 ar
     3    1   18 1
     4    2    4 ar
     5    2    5 ar
     6    2   19 1
     7    3    6 ar
     8    3   20 1
     9    4    6 ar
    10    4   21 1
    11    5    9 1
    12    6   17 1
    13    7   10 1
    14    7   12 am
    15    7   15 2
    16    8   11 1
    17    8   14 1
    18    8   16 2
    19    9   11 1
    20    9   22 1
    21    9   23 1
    22   10   13 1
    23   10   24 1
    24   10   25 1
    25   11   12 1
    26   11   26 1
    27   12   27 1
    28   13   28 1
    29   13   29 1
    30   13   30 1
    31   17   31 1
@<TRIPOS>SUBSTRUCTURE
     1 <0>1        1 RESIDUE           1 A     <0>     0 ROOT

@<TRIPOS>MOLECULE
Unknown
   58    59     1    0    0
SMALL
USER_CHARGES

File created by VEGA 1.5.7
@<TRIPOS>ATOM
      1 C1          0.0757    2.1929   -3.9639 C.ar      1 <0>1       -0.0617
      2 C2         -5.7889   15.7074   -0.5531 C.ar      1 <0>1       -0.0617
      3 C3          1.2359    1.9633   -4.7034 C.ar      1 <0>1       -0.0615
      4 C4         -0.3398    3.4992   -3.7057 C.ar      1 <0>1       -0.0615
      5 C5         -5.3177   14.7333    0.3270 C.ar      1 <0>1       -0.0614
      6 C6         -5.5828   15.5660   -1.9255 C.ar      1 <0>1       -0.0614
      7 C7          1.9807    3.0400   -5.1845 C.ar      1 <0>1       -0.0585
      8 C8          0.4050    4.5759   -4.1869 C.ar      1 <0>1       -0.0585
      9 C9         -4.6402   13.6177   -0.1652 C.ar      1 <0>1       -0.0564
     10 C10        -4.9053   14.4504   -2.4176 C.ar      1 <0>1       -0.0564
     11 C11         1.5551    4.3316   -4.9197 C.ar      1 <0>1       -0.0444
     12 C12        -4.4383   13.4834   -1.5344 C.ar      1 <0>1       -0.0213
     13 C13         1.3952   10.3451   -1.8303 C.2       1 <0>1        0.2186
     14 C14         4.5355    6.8266   -5.0599 C.2       1 <0>1        0.2073
     15 C15        -1.5090   11.5694   -2.5865 C.2       1 <0>1        0.3391
     16 C16         2.0388   11.9980   -3.5959 C.3       1 <0>1       -0.0410
     17 C17         1.3753    7.2582   -0.6836 C.3       1 <0>1       -0.0368
     18 C18         2.3620    5.4978   -5.4406 C.3       1 <0>1        0.0094
     19 C19        -3.7094   12.2834   -2.0638 C.3       1 <0>1        0.0834
     20 C20         0.9077   11.1572   -3.0230 C.3       1 <0>1        0.0871
     21 C21         3.4326    5.9503   -4.4467 C.3       1 <0>1        0.1590
     22 C22         2.4558    8.1575   -1.2641 C.3       1 <0>1        0.1276
     23 N1          1.8877    9.1045   -2.2106 N.am      1 <0>1       -0.2421
     24 N2         -0.1904   11.9817   -2.5891 N.am      1 <0>1       -0.2224
     25 O1          4.1095    7.8674   -5.6401 O.co2     1 <0>1       -0.6460
     26 O2          4.7422    8.2702   -2.7132 O.2       1 <0>1       -0.2329
     27 O3          1.3841   10.7729   -0.6781 O.2       1 <0>1       -0.2778
     28 O4          5.7221    6.4222   -4.9162 O.co2     1 <0>1       -0.6460
     29 O5         -1.9132   10.4685   -2.9460 O.2       1 <0>1       -0.2454
     30 O6          4.1713    6.0735   -1.3577 O.2       1 <0>1       -0.2329
     31 O7         -2.3085   12.5751   -2.1207 O.3       1 <0>1       -0.2978
     32 O8          2.8145    6.7288   -3.4362 O.3       1 <0>1       -0.2783
     33 P1          3.7441    7.2561   -2.1995 P.3       1 <0>1        0.4194
     34 H1         -0.5041    1.3546   -3.5890 H         1 <0>1        0.0618
     35 H2         -6.3161   16.5762   -0.1700 H         1 <0>1        0.0618
     36 H3          1.5594    0.9462   -4.9041 H         1 <0>1        0.0618
     37 H4         -1.2427    3.6780   -3.1293 H         1 <0>1        0.0618
     38 H5         -5.4780   14.8437    1.3954 H         1 <0>1        0.0618
     39 H6         -5.9489   16.3248   -2.6107 H         1 <0>1        0.0618
     40 H7          2.8839    2.8516   -5.7591 H         1 <0>1        0.0620
     41 H8          0.0740    5.5903   -3.9806 H         1 <0>1        0.0620
     42 H9         -4.2759   12.8641    0.5281 H         1 <0>1        0.0621
     43 H10        -4.7490   14.3486   -3.4883 H         1 <0>1        0.0621
     44 H11         2.8632   11.3690   -3.9473 H         1 <0>1        0.0249
     45 H12         2.4431   12.6835   -2.8421 H         1 <0>1        0.0249
     46 H13         1.6877   12.6020   -4.4394 H         1 <0>1        0.0249
     47 H14         0.8606    6.7008   -1.4732 H         1 <0>1        0.0251
     48 H15         1.8086    6.5300    0.0085 H         1 <0>1        0.0251
     49 H16         0.6235    7.8418   -0.1426 H         1 <0>1        0.0251
     50 H17         2.8228    5.2119   -6.3954 H         1 <0>1        0.0344
     51 H18         1.6726    6.3215   -5.6663 H         1 <0>1        0.0344
     52 H19        -3.8670   11.4129   -1.4180 H         1 <0>1        0.0616
     53 H20        -4.0639   12.0262   -3.0677 H         1 <0>1        0.0616
     54 H21         0.5106   10.4821   -3.7887 H         1 <0>1        0.0555
     55 H22         3.9030    5.0826   -3.9678 H         1 <0>1        0.0719
     56 H23         2.9406    8.7173   -0.4565 H         1 <0>1        0.0600
     57 H24         1.8156    8.8202   -3.1833 H         1 <0>1        0.1313
     58 H25         0.0173   12.9237   -2.2652 H         1 <0>1        0.1334
@<TRIPOS>BOND
     1    1    3 ar
     2    1    4 ar
     3    1   34 1
     4    2    5 ar
     5    2    6 ar
     6    2   35 1
     7    3    7 ar
     8    3   36 1
     9    4    8 ar
    10    4   37 1
    11    5    9 ar
    12    5   38 1
    13    6   10 ar
    14    6   39 1
    15    7   11 ar
    16    7   40 1
    17    8   11 ar
    18    8   41 1
    19    9   12 ar
    20    9   42 1
    21   10   12 ar
    22   10   43 1
    23   11   18 1
    24   12   19 1
    25   13   20 1
    26   13   23 am
    27   13   27 2
    28   14   21 1
    29   14   25 1
    30   14   28 2
    31   15   24 am
    32   15   29 2
    33   15   31 1
    34   16   20 1
    35   16   44 1
    36   16   45 1
    37   16   46 1
    38   17   22 1
    39   17   47 1
    40   17   48 1
    41   17   49 1
    42   18   21 1
    43   18   50 1
    44   18   51 1
    45   19   31 1
    46   19   52 1
    47   19   53 1
    48   20   24 1
    49   20   54 1
    50   21   32 1
    51   21   55 1
    52   22   23 1
    53   22   33 1
    54   22   56 1
    55   23   57 1
    56   24   58 1
    57   26   33 1
    58   30   33 2
    59   32   33 1
@<TRIPOS>SUBSTRUCTURE
     1 <0>1        1 RESIDUE           1 A     <0>     0 ROOT

@<TRIPOS>MOLECULE
Unknown
   74    76     1    0    0
SMALL
USER_CHARGES

File created by VEGA 1.5.7
@<TRIPOS>ATOM
      1 C1         10.5697   -4.3085   -0.3008 C.ar      1 <0>1       -0.0617
      2 C2         11.5399   -4.6709    8.3726 C.ar      1 <0>1       -0.0617
      3 C3          4.7607    1.4552   -6.4574 C.ar      1 <0>1       -0.0617
      4 C4         10.0539   -4.4952    0.9816 C.ar      1 <0>1       -0.0615
      5 C5         10.3478   -3.1069   -0.9737 C.ar      1 <0>1       -0.0615
      6 C6         11.2943   -3.4338    8.9682 C.ar      1 <0>1       -0.0615
      7 C7         10.9725   -4.9740    7.1348 C.ar      1 <0>1       -0.0615
      8 C8          4.0150    1.9525   -5.3887 C.ar      1 <0>1       -0.0614
      9 C9          5.3747    0.2066   -6.3582 C.ar      1 <0>1       -0.0614
     10 C10         9.3161   -3.4805    1.5912 C.ar      1 <0>1       -0.0585
     11 C11         9.6100   -2.0922   -0.3641 C.ar      1 <0>1       -0.0585
     12 C12        10.4812   -2.4998    8.3263 C.ar      1 <0>1       -0.0585
     13 C13        10.1595   -4.0399    6.4928 C.ar      1 <0>1       -0.0585
     14 C14         3.8835    1.2015   -4.2207 C.ar      1 <0>1       -0.0564
     15 C15         5.2432   -0.5445   -5.1902 C.ar      1 <0>1       -0.0564
     16 C16         9.1034   -2.2917    0.9107 C.ar      1 <0>1       -0.0454
     17 C17         9.9249   -2.8156    7.0973 C.ar      1 <0>1       -0.0444
     18 C18         4.4984   -0.0423   -4.1289 C.ar      1 <0>1       -0.0213
     19 C19         5.9981   -0.4046    2.2702 C.2       1 <0>1        0.2192
     20 C20         7.1901   -1.2692    8.1083 C.2       1 <0>1        0.2073
     21 C21         5.4297   -1.1753   -0.7822 C.2       1 <0>1        0.3391
     22 C22         2.6308   -1.9955    3.8164 C.3       1 <0>1       -0.0606
     23 C23         2.3568    0.1084    5.1508 C.3       1 <0>1       -0.0606
     24 C24         8.3050   -1.1939    1.5701 C.3       1 <0>1       -0.0035
     25 C25         9.0441   -1.8041    6.4021 C.3       1 <0>1        0.0094
     26 C26         4.3571   -0.8501   -2.8723 C.3       1 <0>1        0.0834
     27 C27         6.7994   -1.2621    1.2956 C.3       1 <0>1        0.0939
     28 C28         7.5723   -1.9563    6.7884 C.3       1 <0>1        0.1590
     29 C29         3.1791   -0.5888    4.0632 C.3       1 <0>1       -0.0185
     30 C30         4.6852   -0.5669    4.3959 C.3       1 <0>1        0.1328
     31 N1          5.5043   -1.1400    3.3373 N.am      1 <0>1       -0.2417
     32 N2          6.5048   -0.7584   -0.0246 N.am      1 <0>1       -0.2218
     33 O1          7.4534   -0.0320    8.1451 O.co2     1 <0>1       -0.6460
     34 O2          4.7323   -2.9191    5.7251 O.2       1 <0>1       -0.2329
     35 O3          5.8059    0.7972    2.0953 O.2       1 <0>1       -0.2778
     36 O4          6.6616   -1.9991    8.9915 O.co2     1 <0>1       -0.6460
     37 O5          4.5975   -2.0109   -0.4447 O.2       1 <0>1       -0.2454
     38 O6          4.6955   -0.6755    7.1208 O.2       1 <0>1       -0.2329
     39 O7          5.4246   -0.5149   -1.9786 O.3       1 <0>1       -0.2978
     40 O8          6.7738   -1.3624    5.7789 O.3       1 <0>1       -0.2783
     41 P1          5.1486   -1.4776    5.9210 P.3       1 <0>1        0.4199
     42 H1         11.1438   -5.0986   -0.7756 H         1 <0>1        0.0618
     43 H2         12.1726   -5.3983    8.8725 H         1 <0>1        0.0618
     44 H3          4.8634    2.0400   -7.3667 H         1 <0>1        0.0618
     45 H4         10.2265   -5.4309    1.5053 H         1 <0>1        0.0618
     46 H5         10.7486   -2.9618   -1.9725 H         1 <0>1        0.0618
     47 H6         11.7358   -3.1981    9.9320 H         1 <0>1        0.0618
     48 H7         11.1631   -5.9375    6.6714 H         1 <0>1        0.0618
     49 H8          3.5372    2.9247   -5.4660 H         1 <0>1        0.0618
     50 H9          5.9560   -0.1803   -7.1900 H         1 <0>1        0.0618
     51 H10         8.9174   -3.6351    2.5904 H         1 <0>1        0.0620
     52 H11         9.4418   -1.1594   -0.8959 H         1 <0>1        0.0620
     53 H12        10.2947   -1.5387    8.7983 H         1 <0>1        0.0620
     54 H13         9.7214   -4.2847    5.5288 H         1 <0>1        0.0620
     55 H14         3.3012    1.5973   -3.3927 H         1 <0>1        0.0621
     56 H15         5.7254   -1.5161   -5.1217 H         1 <0>1        0.0621
     57 H16         2.7359   -2.6341    4.6993 H         1 <0>1        0.0233
     58 H17         3.1413   -2.4789    2.9788 H         1 <0>1        0.0233
     59 H18         1.5654   -1.9529    3.5641 H         1 <0>1        0.0233
     60 H19         2.7279    1.1228    5.3306 H         1 <0>1        0.0233
     61 H20         1.3069    0.1882    4.8486 H         1 <0>1        0.0233
     62 H21         2.3894   -0.4408    6.0975 H         1 <0>1        0.0233
     63 H22         8.6931   -0.2139    1.2610 H         1 <0>1        0.0333
     64 H23         8.4903   -1.2539    2.6514 H         1 <0>1        0.0333
     65 H24         9.4014   -0.7951    6.6468 H         1 <0>1        0.0344
     66 H25         9.1724   -1.9213    5.3183 H         1 <0>1        0.0344
     67 H26         3.4008   -0.6441   -2.3796 H         1 <0>1        0.0616
     68 H27         4.3974   -1.9221   -3.0940 H         1 <0>1        0.0616
     69 H28         6.4270   -2.2921    1.3157 H         1 <0>1        0.0561
     70 H29         7.3012   -3.0172    6.8567 H         1 <0>1        0.0719
     71 H30         3.0394   -0.0201    3.1350 H         1 <0>1        0.0317
     72 H31         4.9862    0.4757    4.5556 H         1 <0>1        0.0605
     73 H32         5.7255   -2.1301    3.3828 H         1 <0>1        0.1313
     74 H33         7.1248   -0.0566   -0.4187 H         1 <0>1        0.1334
@<TRIPOS>BOND
     1    1    4 ar
     2    1    5 ar
     3    1   42 1
     4    2    6 ar
     5    2    7 ar
     6    2   43 1
     7    3    8 ar
     8    3    9 ar
     9    3   44 1
    10    4   10 ar
    11    4   45 1
    12    5   11 ar
    13    5   46 1
    14    6   12 ar
    15    6   47 1
    16    7   13 ar
    17    7   48 1
    18    8   14 ar
    19    8   49 1
    20    9   15 ar
    21    9   50 1
    22   10   16 ar
    23   10   51 1
    24   11   16 ar
    25   11   52 1
    26   12   17 ar
    27   12   53 1
    28   13   17 ar
    29   13   54 1
    30   14   18 ar
    31   14   55 1
    32   15   18 ar
    33   15   56 1
    34   16   24 1
    35   17   25 1
    36   18   26 1
    37   19   27 1
    38   19   31 am
    39   19   35 2
    40   20   28 1
    41   20   33 1
    42   20   36 2
    43   21   32 am
    44   21   37 2
    45   21   39 1
    46   22   29 1
    47   22   57 1
    48   22   58 1
    49   22   59 1
    50   23   29 1
    51   23   60 1
    52   23   61 1
    53   23   62 1
    54   24   27 1
    55   24   63 1
    56   24   64 1
    57   25   28 1
    58   25   65 1
    59   25   66 1
    60   26   39 1
    61   26   67 1
    62   26   68 1
    63   27   32 1
    64   27   69 1
    65   28   40 1
    66   28   70 1
    67   29   30 1
    68   29   71 1
    69   30   31 1
    70   30   41 1
    71   30   72 1
    72   31   73 1
    73   32   74 1
    74   34   41 1
    75   38   41 2
    76   40   41 1
@<TRIPOS>SUBSTRUCTURE
     1 <0>1        1 RESIDUE           1 A     <0>     0 ROOT
