REMARK  Name = 82398
REMARK  9 active torsions:
REMARK  status: ('A' for Active; 'I' for Inactive)
REMARK    1  A    between atoms: C_1  and  C_2
REMARK    2  A    between atoms: N_4  and  C_5
REMARK    3  A    between atoms: C_6  and  O_7
REMARK    4  A    between atoms: O_7  and  C_8
REMARK    5  A    between atoms: C_11  and  N_12
REMARK    6  A    between atoms: C_18  and  C_19
REMARK    7  A    between atoms: C_19  and  O_20
REMARK    8  A    between atoms: C_21  and  O_22
REMARK    9  A    between atoms: C_23  and  O_24
REMARK                            x       y       z     vdW  Elec       q    Type
REMARK                         _______ _______ _______ _____ _____    ______ ____
ROOT
ATOM      1  C   UNL     1       1.206   1.063   0.498  0.00  0.00    +0.000 C 
ATOM      2  C   UNL     1       0.051   0.280  -0.158  0.00  0.00    +0.000 C 
ATOM      3  O   UNL     1       0.413  -1.075  -0.378  0.00  0.00    +0.000 OA
ATOM      4  C   UNL     1       1.502  -1.188  -1.282  0.00  0.00    +0.000 C 
ATOM      5  C   UNL     1       2.771  -0.533  -0.692  0.00  0.00    +0.000 C 
ATOM      6  C   UNL     1       2.479   0.945  -0.366  0.00  0.00    +0.000 C 
ENDROOT
BRANCH   1  10
ATOM      7  C   UNL     1      -0.455   4.339   1.810  0.00  0.00    +0.000 C 
ATOM      8  C   UNL     1      -0.075   2.898   1.706  0.00  0.00    +0.000 C 
ATOM      9  O   UNL     1      -0.545   2.068   2.532  0.00  0.00    +0.000 OA
ATOM     10  N   UNL     1       0.832   2.470   0.681  0.00  0.00    +0.000 N 
ATOM     11  H   UNL     1       1.247   3.199   0.056  0.00  0.00    +0.000 HD
ENDBRANCH   1  10
BRANCH   5  12
ATOM     12  O   UNL     1       3.822  -0.611  -1.622  0.00  0.00    +0.000 OA
ATOM     13  H   UNL     1       4.666  -0.507  -1.111  0.00  0.00    +0.000 HD
ENDBRANCH   5  12
BRANCH   6  14
ATOM     14  O   UNL     1       3.577   1.545   0.276  0.00  0.00    +0.000 OA
ATOM     15  H   UNL     1       3.733   1.058   1.128  0.00  0.00    +0.000 HD
ENDBRANCH   6  14
BRANCH   2  16
ATOM     16  O   UNL     1      -0.364   0.916  -1.372  0.00  0.00    +0.000 OA
BRANCH  16  17
ATOM     17  C   UNL     1      -1.470   0.529  -2.145  0.00  0.00    +0.000 A 
ATOM     18  C   UNL     1      -1.717   1.218  -3.337  0.00  0.00    +0.000 A 
ATOM     19  C   UNL     1      -2.800   0.872  -4.148  0.00  0.00    +0.000 A 
ATOM     20  C   UNL     1      -3.662  -0.175  -3.779  0.00  0.00    +0.000 A 
ATOM     21  C   UNL     1      -3.414  -0.867  -2.580  0.00  0.00    +0.000 A 
ATOM     22  C   UNL     1      -2.330  -0.519  -1.769  0.00  0.00    +0.000 A 
BRANCH  20  23
ATOM     23  N   UNL     1      -4.778  -0.530  -4.615  0.00  0.00    +0.000 N 
ATOM     24  O   UNL     1      -5.553  -1.452  -4.286  0.00  0.00    +0.000 OA
ATOM     25  O   UNL     1      -5.013   0.144  -5.792  0.00  0.00    +0.000 OA
ENDBRANCH  20  23
ENDBRANCH  16  17
ENDBRANCH   2  16
BRANCH   4  26
ATOM     26  C   UNL     1       1.739  -2.675  -1.565  0.00  0.00    +0.000 C 
BRANCH  26  27
ATOM     27  O   UNL     1       0.581  -3.239  -2.116  0.00  0.00    +0.000 OA
ATOM     28  H   UNL     1       0.787  -4.198  -2.268  0.00  0.00    +0.000 HD
ENDBRANCH  26  27
ENDBRANCH   4  26
TORSDOF 8
