REMARK  Name = 440049
REMARK  6 active torsions:
REMARK  status: ('A' for Active; 'I' for Inactive)
REMARK    1  A    between atoms: N_1  and  C_2
REMARK    2  A    between atoms: C_3  and  O_4
REMARK    3  A    between atoms: C_6  and  C_7
REMARK    4  A    between atoms: C_7  and  O_8
REMARK    5  A    between atoms: C_9  and  O_10
REMARK    6  A    between atoms: C_11  and  O_12
REMARK                            x       y       z     vdW  Elec       q    Type
REMARK                         _______ _______ _______ _____ _____    ______ ____
ROOT
ATOM      1  C   UNL     1       1.015   1.704   0.935  0.00  0.00    +0.000 C 
ATOM      2  C   UNL     1       1.905   0.589   1.513  0.00  0.00    +0.000 C 
ATOM      3  O   UNL     1       2.384  -0.250   0.475  0.00  0.00    +0.000 OA
ATOM      4  C   UNL     1       1.313  -0.968  -0.118  0.00  0.00    +0.000 C 
ATOM      5  C   UNL     1       0.341  -0.002  -0.842  0.00  0.00    +0.000 C 
ATOM      6  C   UNL     1      -0.157   1.073   0.141  0.00  0.00    +0.000 C 
ENDROOT
BRANCH   1   7
ATOM      7  N   UNL     1       1.815   2.628   0.121  0.00  0.00    +0.000 NA
ATOM      8  H   UNL     1       1.218   3.434  -0.173  0.00  0.00    +0.000 HD
ATOM      9  H   UNL     1       2.158   2.150  -0.742  0.00  0.00    +0.000 HD
ENDBRANCH   1   7
BRANCH   2  10
ATOM     10  O   UNL     1       2.996   1.167   2.178  0.00  0.00    +0.000 OA
ATOM     11  H   UNL     1       3.486   0.421   2.613  0.00  0.00    +0.000 HD
ENDBRANCH   2  10
BRANCH   5  12
ATOM     12  O   UNL     1      -0.769  -0.711  -1.333  0.00  0.00    +0.000 OA
ATOM     13  H   UNL     1      -0.559  -0.976  -2.266  0.00  0.00    +0.000 HD
ENDBRANCH   5  12
BRANCH   6  14
ATOM     14  O   UNL     1      -0.878   2.054  -0.558  0.00  0.00    +0.000 OA
ATOM     15  H   UNL     1      -1.380   2.577   0.120  0.00  0.00    +0.000 HD
ENDBRANCH   6  14
BRANCH   4  16
ATOM     16  C   UNL     1       1.900  -2.012  -1.082  0.00  0.00    +0.000 C 
BRANCH  16  17
ATOM     17  O   UNL     1       2.593  -1.398  -2.137  0.00  0.00    +0.000 OA
ATOM     18  H   UNL     1       3.478  -1.127  -1.779  0.00  0.00    +0.000 HD
ENDBRANCH  16  17
ENDBRANCH   4  16
TORSDOF 6
