REMARK  Name = 447448
REMARK  10 active torsions:
REMARK  status: ('A' for Active; 'I' for Inactive)
REMARK    1  A    between atoms: O_2  and  C_3
REMARK    2  A    between atoms: C_3  and  N_13
REMARK    3  A    between atoms: C_4  and  C_6
REMARK    4  A    between atoms: C_6  and  C_9
REMARK    5  A    between atoms: N_13  and  C_15
REMARK    6  A    between atoms: C_17  and  O_19
REMARK    7  A    between atoms: C_22  and  C_24
REMARK    8  A    between atoms: C_24  and  O_27
REMARK    9  A    between atoms: C_29  and  O_31
REMARK   10  A    between atoms: C_33  and  O_35
REMARK                            x       y       z     vdW  Elec       q    Type
REMARK                         _______ _______ _______ _____ _____    ______ ____
ROOT
ATOM      1  C   UNL     1      -0.342   0.080   0.798  0.00  0.00    +0.000 C 
ATOM      2  C   UNL     1      -1.065  -0.382  -0.480  0.00  0.00    +0.000 C 
ATOM      3  O   UNL     1      -1.140  -1.797  -0.515  0.00  0.00    +0.000 OA
ATOM      4  C   UNL     1       0.156  -2.363  -0.631  0.00  0.00    +0.000 C 
ATOM      5  C   UNL     1       0.991  -2.057   0.634  0.00  0.00    +0.000 C 
ATOM      6  C   UNL     1       1.068  -0.533   0.849  0.00  0.00    +0.000 C 
ENDROOT
BRANCH   1   7
ATOM      7  N   UNL     1      -0.250   1.542   0.824  0.00  0.00    +0.000 N 
ATOM      8  H   UNL     1       0.385   1.993   0.129  0.00  0.00    +0.000 HD
BRANCH   7   9
ATOM      9  C   UNL     1      -1.103   2.351   1.655  0.00  0.00    +0.000 C 
ATOM     10  C   UNL     1      -0.893   3.670   1.816  0.00  0.00    +0.000 C 
BRANCH   9  12
ATOM     11  H   UNL     1      -2.812   2.273   2.904  0.00  0.00    +0.000 HD
ATOM     12  O   UNL     1      -2.181   1.750   2.308  0.00  0.00    +0.000 OA
ENDBRANCH   9  12
BRANCH  10  13
ATOM     13  C   UNL     1       0.247   4.438   1.204  0.00  0.00    +0.000 C 
ATOM     14  C   UNL     1       1.573   4.111   1.888  0.00  0.00    +0.000 C 
ENDBRANCH  10  13
ENDBRANCH   7   9
ENDBRANCH   1   7
BRANCH   2  15
ATOM     15  O   UNL     1      -2.366   0.139  -0.481  0.00  0.00    +0.000 OA
ATOM     16  H   UNL     1      -2.760  -0.089  -1.363  0.00  0.00    +0.000 HD
ENDBRANCH   2  15
BRANCH   5  17
ATOM     17  O   UNL     1       2.287  -2.578   0.481  0.00  0.00    +0.000 OA
ATOM     18  H   UNL     1       2.647  -2.733   1.393  0.00  0.00    +0.000 HD
ENDBRANCH   5  17
BRANCH   6  19
ATOM     19  O   UNL     1       1.647  -0.250   2.097  0.00  0.00    +0.000 OA
ATOM     20  H   UNL     1       2.632  -0.275   1.972  0.00  0.00    +0.000 HD
ENDBRANCH   6  19
BRANCH   4  21
ATOM     21  C   UNL     1       0.007  -3.876  -0.831  0.00  0.00    +0.000 C 
BRANCH  21  22
ATOM     22  O   UNL     1      -0.739  -4.127  -1.989  0.00  0.00    +0.000 OA
ATOM     23  H   UNL     1      -0.811  -5.114  -2.062  0.00  0.00    +0.000 HD
ENDBRANCH  21  22
ENDBRANCH   4  21
TORSDOF 9
