REMARK  Name = 202260
REMARK  14 active torsions:
REMARK  status: ('A' for Active; 'I' for Inactive)
REMARK    1  A    between atoms: C_1  and  C_2
REMARK    2  A    between atoms: C_2  and  O_4
REMARK    3  A    between atoms: O_4  and  C_5
REMARK    4  A    between atoms: C_5  and  C_6
REMARK    5  A    between atoms: C_8  and  O_9
REMARK    6  A    between atoms: O_9  and  C_10
REMARK    7  A    between atoms: C_10  and  C_11
REMARK    8  A    between atoms: C_13  and  N_14
REMARK    9  A    between atoms: C_15  and  O_16
REMARK   10  A    between atoms: O_16  and  C_17
REMARK   11  A    between atoms: C_17  and  C_18
REMARK   12  A    between atoms: C_20  and  O_21
REMARK   13  A    between atoms: O_21  and  C_22
REMARK   14  A    between atoms: C_22  and  C_23
REMARK                            x       y       z     vdW  Elec       q    Type
REMARK                         _______ _______ _______ _____ _____    ______ ____
ROOT
ATOM      1  C   UNL     1       0.270  -1.349   1.169  0.00  0.00    +0.000 C 
ATOM      2  O   UNL     1       1.686  -1.389   1.181  0.00  0.00    +0.000 OA
ATOM      3  C   UNL     1       2.218  -0.192   1.718  0.00  0.00    +0.000 C 
ATOM      4  C   UNL     1       1.886   1.002   0.785  0.00  0.00    +0.000 C 
ATOM      5  C   UNL     1       0.353   1.103   0.603  0.00  0.00    +0.000 C 
ATOM      6  C   UNL     1      -0.227  -0.262   0.192  0.00  0.00    +0.000 C 
ENDROOT
BRANCH   4   7
ATOM      7  N   UNL     1       2.433   2.258   1.316  0.00  0.00    +0.000 N 
ATOM      8  H   UNL     1       3.475   2.202   1.372  0.00  0.00    +0.000 HD
ATOM      9  H   UNL     1       2.042   2.459   2.265  0.00  0.00    +0.000 HD
ATOM     10  H   UNL     1       2.207   3.050   0.673  0.00  0.00    +0.000 HD
ENDBRANCH   4   7
BRANCH   1  11
ATOM     11  C   UNL     1      -0.254  -2.735   0.773  0.00  0.00    +0.000 C 
BRANCH  11  12
ATOM     12  O   UNL     1       0.228  -3.098  -0.518  0.00  0.00    +0.000 OA
BRANCH  12  14
ATOM     13  C   UNL     1       0.420  -4.604  -2.498  0.00  0.00    +0.000 C 
ATOM     14  C   UNL     1      -0.101  -4.309  -1.133  0.00  0.00    +0.000 C 
ATOM     15  O   UNL     1      -0.866  -5.134  -0.564  0.00  0.00    +0.000 OA
ENDBRANCH  12  14
ENDBRANCH  11  12
ENDBRANCH   1  11
BRANCH   3  16
ATOM     16  O   UNL     1       3.634  -0.357   1.815  0.00  0.00    +0.000 OA
BRANCH  16  17
ATOM     17  C   UNL     1       4.413   0.138   2.869  0.00  0.00    +0.000 C 
ATOM     18  C   UNL     1       5.891  -0.056   2.839  0.00  0.00    +0.000 C 
ATOM     19  O   UNL     1       3.889   0.782   3.818  0.00  0.00    +0.000 OA
ENDBRANCH  16  17
ENDBRANCH   3  16
BRANCH   5  20
ATOM     20  O   UNL     1       0.040   2.062  -0.410  0.00  0.00    +0.000 OA
BRANCH  20  21
ATOM     21  C   UNL     1      -0.396   3.366  -0.148  0.00  0.00    +0.000 C 
ATOM     22  C   UNL     1      -0.690   4.281  -1.288  0.00  0.00    +0.000 C 
ATOM     23  O   UNL     1      -0.505   3.790   1.034  0.00  0.00    +0.000 OA
ENDBRANCH  20  21
ENDBRANCH   5  20
BRANCH   6  24
ATOM     24  O   UNL     1      -1.656  -0.212   0.226  0.00  0.00    +0.000 OA
BRANCH  24  25
ATOM     25  C   UNL     1      -2.443   0.270  -0.827  0.00  0.00    +0.000 C 
ATOM     26  C   UNL     1      -3.922   0.340  -0.660  0.00  0.00    +0.000 C 
ATOM     27  O   UNL     1      -1.924   0.593  -1.929  0.00  0.00    +0.000 OA
ENDBRANCH  24  25
ENDBRANCH   6  24
TORSDOF 10
