REMARK  Name = 739
REMARK  6 active torsions:
REMARK  status: ('A' for Active; 'I' for Inactive)
REMARK    1  A    between atoms: N_1  and  C_2
REMARK    2  A    between atoms: C_3  and  O_4
REMARK    3  A    between atoms: C_6  and  C_7
REMARK    4  A    between atoms: C_7  and  O_8
REMARK    5  A    between atoms: C_9  and  O_10
REMARK    6  A    between atoms: C_11  and  O_12
REMARK                            x       y       z     vdW  Elec       q    Type
REMARK                         _______ _______ _______ _____ _____    ______ ____
ROOT
ATOM      1  C   UNL     1       0.884   0.487   0.406  0.00  0.00    +0.000 C 
ATOM      2  C   UNL     1      -0.289  -0.493   0.159  0.00  0.00    +0.000 C 
ATOM      3  O   UNL     1      -0.443  -0.776  -1.226  0.00  0.00    +0.000 OA
ATOM      4  C   UNL     1      -0.752   0.397  -1.965  0.00  0.00    +0.000 C 
ATOM      5  C   UNL     1       0.403   1.432  -1.896  0.00  0.00    +0.000 C 
ATOM      6  C   UNL     1       0.726   1.778  -0.430  0.00  0.00    +0.000 C 
ENDROOT
BRANCH   1   7
ATOM      7  N   UNL     1       1.048   0.799   1.829  0.00  0.00    +0.000 NA
ATOM      8  H   UNL     1       1.279  -0.085   2.338  0.00  0.00    +0.000 HD
ATOM      9  H   UNL     1       0.149   1.155   2.226  0.00  0.00    +0.000 HD
ENDBRANCH   1   7
BRANCH   2  10
ATOM     10  O   UNL     1      -1.488  -0.010   0.714  0.00  0.00    +0.000 OA
ATOM     11  H   UNL     1      -2.155  -0.739   0.616  0.00  0.00    +0.000 HD
ENDBRANCH   2  10
BRANCH   5  12
ATOM     12  O   UNL     1       1.557   0.992  -2.574  0.00  0.00    +0.000 OA
ATOM     13  H   UNL     1       1.804   0.100  -2.220  0.00  0.00    +0.000 HD
ENDBRANCH   5  12
BRANCH   6  14
ATOM     14  O   UNL     1      -0.307   2.579   0.088  0.00  0.00    +0.000 OA
ATOM     15  H   UNL     1       0.098   3.175   0.771  0.00  0.00    +0.000 HD
ENDBRANCH   6  14
BRANCH   4  16
ATOM     16  C   UNL     1      -1.093   0.011  -3.411  0.00  0.00    +0.000 C 
BRANCH  16  17
ATOM     17  O   UNL     1      -0.074  -0.773  -3.970  0.00  0.00    +0.000 OA
ATOM     18  H   UNL     1      -0.359  -0.973  -4.899  0.00  0.00    +0.000 HD
ENDBRANCH  16  17
ENDBRANCH   4  16
TORSDOF 6
