REMARK  Name = 440552
REMARK  8 active torsions:
REMARK  status: ('A' for Active; 'I' for Inactive)
REMARK    1  A    between atoms: O_2  and  C_3
REMARK    2  A    between atoms: C_3  and  C_27
REMARK    3  A    between atoms: N_4  and  C_5
REMARK    4  A    between atoms: C_7  and  O_9
REMARK    5  A    between atoms: C_12  and  C_14
REMARK    6  A    between atoms: C_14  and  O_17
REMARK    7  A    between atoms: C_19  and  O_21
REMARK    8  A    between atoms: C_23  and  O_25
REMARK                            x       y       z     vdW  Elec       q    Type
REMARK                         _______ _______ _______ _____ _____    ______ ____
ROOT
ATOM      1  C   UNL     1       0.930   0.391  -0.642  0.00  0.00    +0.000 C 
ATOM      2  C   UNL     1       0.014  -0.737  -1.162  0.00  0.00    +0.000 C 
ATOM      3  O   UNL     1      -0.906  -1.198  -0.179  0.00  0.00    +0.000 OA
ATOM      4  C   UNL     1      -1.738  -0.178   0.368  0.00  0.00    +0.000 C 
ATOM      5  C   UNL     1      -0.937   1.032   0.919  0.00  0.00    +0.000 C 
ATOM      6  C   UNL     1       0.096   1.556  -0.088  0.00  0.00    +0.000 C 
ENDROOT
BRANCH   1   8
ATOM      7  C   UNL     1       2.878  -0.829   0.204  0.00  0.00    +0.000 C 
ATOM      8  N   UNL     1       1.811  -0.117   0.414  0.00  0.00    +0.000 NA
ATOM      9  C   UNL     1       3.681  -1.312   1.369  0.00  0.00    +0.000 C 
BRANCH   7  11
ATOM     10  H   UNL     1       4.086  -1.734  -1.263  0.00  0.00    +0.000 HD
ATOM     11  O   UNL     1       3.265  -1.166  -1.092  0.00  0.00    +0.000 OA
ENDBRANCH   7  11
ENDBRANCH   1   8
BRANCH   2  12
ATOM     12  O   UNL     1      -0.644  -0.341  -2.336  0.00  0.00    +0.000 OA
ATOM     13  H   UNL     1      -1.093  -1.150  -2.694  0.00  0.00    +0.000 HD
ENDBRANCH   2  12
BRANCH   5  14
ATOM     14  O   UNL     1      -1.794   2.076   1.306  0.00  0.00    +0.000 OA
ATOM     15  H   UNL     1      -2.260   1.774   2.129  0.00  0.00    +0.000 HD
ENDBRANCH   5  14
BRANCH   6  16
ATOM     16  O   UNL     1      -0.544   2.248  -1.130  0.00  0.00    +0.000 OA
ATOM     17  H   UNL     1       0.151   2.789  -1.587  0.00  0.00    +0.000 HD
ENDBRANCH   6  16
BRANCH   4  18
ATOM     18  C   UNL     1      -2.913   0.197  -0.563  0.00  0.00    +0.000 C 
BRANCH  18  19
ATOM     19  O   UNL     1      -3.512  -0.956  -1.089  0.00  0.00    +0.000 OA
ATOM     20  H   UNL     1      -4.033  -1.368  -0.351  0.00  0.00    +0.000 HD
ENDBRANCH  18  19
ENDBRANCH   4  18
TORSDOF 7
