REMARK  Name = 5300
REMARK  8 active torsions:
REMARK  status: ('A' for Active; 'I' for Inactive)
REMARK    1  A    between atoms: C_1  and  N_2
REMARK    2  A    between atoms: N_2  and  N_3
REMARK    3  A    between atoms: N_7  and  C_8
REMARK    4  A    between atoms: C_9  and  O_10
REMARK    5  A    between atoms: C_12  and  C_13
REMARK    6  A    between atoms: C_13  and  O_14
REMARK    7  A    between atoms: C_15  and  O_16
REMARK    8  A    between atoms: C_17  and  O_18
REMARK                            x       y       z     vdW  Elec       q    Type
REMARK                         _______ _______ _______ _____ _____    ______ ____
ROOT
ATOM      1  C   UNL     1      -0.405  -0.941  -0.175  0.00  0.00    +0.000 C 
ATOM      2  C   UNL     1      -1.837  -0.533   0.228  0.00  0.00    +0.000 C 
ATOM      3  O   UNL     1      -1.994   0.871   0.395  0.00  0.00    +0.000 OA
ATOM      4  C   UNL     1      -1.084   1.464   1.317  0.00  0.00    +0.000 C 
ATOM      5  C   UNL     1       0.402   1.131   1.030  0.00  0.00    +0.000 C 
ATOM      6  C   UNL     1       0.625  -0.378   0.817  0.00  0.00    +0.000 C 
ENDROOT
BRANCH   1  11
ATOM      7  C   UNL     1       2.439  -0.734  -4.301  0.00  0.00    +0.000 C 
ATOM      8  N   UNL     1       1.105  -0.668  -3.711  0.00  0.00    +0.000 N 
ATOM      9  C   UNL     1       0.906  -1.093  -2.351  0.00  0.00    +0.000 C 
ATOM     10  O   UNL     1       1.656  -1.980  -1.860  0.00  0.00    +0.000 OA
ATOM     11  N   UNL     1      -0.113  -0.486  -1.540  0.00  0.00    +0.000 N 
ATOM     12  H   UNL     1      -0.620   0.346  -1.916  0.00  0.00    +0.000 HD
BRANCH   8  13
ATOM     13  N   UNL     1       0.023  -0.348  -4.551  0.00  0.00    +0.000 NA
ATOM     14  O   UNL     1      -1.161  -0.538  -4.200  0.00  0.00    +0.000 OA
ENDBRANCH   8  13
ENDBRANCH   1  11
BRANCH   2  15
ATOM     15  O   UNL     1      -2.250  -1.236   1.370  0.00  0.00    +0.000 OA
ATOM     16  H   UNL     1      -3.232  -1.110   1.439  0.00  0.00    +0.000 HD
ENDBRANCH   2  15
BRANCH   5  17
ATOM     17  O   UNL     1       0.813   1.841  -0.112  0.00  0.00    +0.000 OA
ATOM     18  H   UNL     1       1.806   1.845  -0.109  0.00  0.00    +0.000 HD
ENDBRANCH   5  17
BRANCH   6  19
ATOM     19  O   UNL     1       0.531  -1.069   2.036  0.00  0.00    +0.000 OA
ATOM     20  H   UNL     1       1.358  -0.868   2.547  0.00  0.00    +0.000 HD
ENDBRANCH   6  19
BRANCH   4  21
ATOM     21  C   UNL     1      -1.491   1.254   2.791  0.00  0.00    +0.000 C 
BRANCH  21  22
ATOM     22  O   UNL     1      -2.800   1.707   3.007  0.00  0.00    +0.000 OA
ATOM     23  H   UNL     1      -3.408   0.977   2.720  0.00  0.00    +0.000 HD
ENDBRANCH  21  22
ENDBRANCH   4  21
TORSDOF 7
