REMARK  Name = 29327
REMARK  8 active torsions:
REMARK  status: ('A' for Active; 'I' for Inactive)
REMARK    1  A    between atoms: C_1  and  N_2
REMARK    2  A    between atoms: N_2  and  N_3
REMARK    3  A    between atoms: N_7  and  C_8
REMARK    4  A    between atoms: C_9  and  O_10
REMARK    5  A    between atoms: C_12  and  C_13
REMARK    6  A    between atoms: C_13  and  O_14
REMARK    7  A    between atoms: C_15  and  O_16
REMARK    8  A    between atoms: C_17  and  O_18
REMARK                            x       y       z     vdW  Elec       q    Type
REMARK                         _______ _______ _______ _____ _____    ______ ____
ROOT
ATOM      1  C   UNL     1      -0.335  -0.687  -0.040  0.00  0.00    +0.000 C 
ATOM      2  C   UNL     1      -1.608  -1.520  -0.293  0.00  0.00    +0.000 C 
ATOM      3  O   UNL     1      -2.142  -1.262  -1.583  0.00  0.00    +0.000 OA
ATOM      4  C   UNL     1      -2.535   0.095  -1.729  0.00  0.00    +0.000 C 
ATOM      5  C   UNL     1      -1.313   1.035  -1.596  0.00  0.00    +0.000 C 
ATOM      6  C   UNL     1      -0.635   0.810  -0.235  0.00  0.00    +0.000 C 
ENDROOT
BRANCH   1  11
ATOM      7  C   UNL     1       2.068  -3.613   3.322  0.00  0.00    +0.000 C 
ATOM      8  N   UNL     1       1.374  -2.367   2.982  0.00  0.00    +0.000 N 
ATOM      9  C   UNL     1       0.903  -2.142   1.640  0.00  0.00    +0.000 C 
ATOM     10  O   UNL     1       1.127  -3.002   0.744  0.00  0.00    +0.000 OA
ATOM     11  N   UNL     1       0.185  -0.941   1.309  0.00  0.00    +0.000 N 
ATOM     12  H   UNL     1       0.039  -0.219   2.050  0.00  0.00    +0.000 HD
BRANCH   8  13
ATOM     13  N   UNL     1       1.291  -1.323   3.921  0.00  0.00    +0.000 NA
ATOM     14  O   UNL     1       1.771  -1.435   5.068  0.00  0.00    +0.000 OA
ENDBRANCH   8  13
ENDBRANCH   1  11
BRANCH   2  15
ATOM     15  O   UNL     1      -2.566  -1.292   0.711  0.00  0.00    +0.000 OA
ATOM     16  H   UNL     1      -3.302  -1.937   0.546  0.00  0.00    +0.000 HD
ENDBRANCH   2  15
BRANCH   5  17
ATOM     17  O   UNL     1      -1.724   2.378  -1.682  0.00  0.00    +0.000 OA
ATOM     18  H   UNL     1      -1.582   2.669  -2.621  0.00  0.00    +0.000 HD
ENDBRANCH   5  17
BRANCH   6  19
ATOM     19  O   UNL     1       0.568   1.533  -0.173  0.00  0.00    +0.000 OA
ATOM     20  H   UNL     1       0.329   2.473   0.039  0.00  0.00    +0.000 HD
ENDBRANCH   6  19
BRANCH   4  21
ATOM     21  C   UNL     1      -3.204   0.260  -3.102  0.00  0.00    +0.000 C 
BRANCH  21  22
ATOM     22  O   UNL     1      -4.330  -0.570  -3.199  0.00  0.00    +0.000 OA
ATOM     23  H   UNL     1      -4.002  -1.472  -3.454  0.00  0.00    +0.000 HD
ENDBRANCH  21  22
ENDBRANCH   4  21
TORSDOF 7
