REMARK  Name = 449462
REMARK  6 active torsions:
REMARK  status: ('A' for Active; 'I' for Inactive)
REMARK    1  A    between atoms: N_1  and  C_2
REMARK    2  A    between atoms: C_3  and  O_4
REMARK    3  A    between atoms: C_6  and  C_7
REMARK    4  A    between atoms: C_7  and  O_8
REMARK    5  A    between atoms: C_9  and  O_10
REMARK    6  A    between atoms: C_11  and  O_12
REMARK                            x       y       z     vdW  Elec       q    Type
REMARK                         _______ _______ _______ _____ _____    ______ ____
ROOT
ATOM      1  C   UNL     1      -1.346  -0.333   0.587  0.00  0.00    +0.000 C 
ATOM      2  C   UNL     1      -0.468  -1.491   0.047  0.00  0.00    +0.000 C 
ATOM      3  O   UNL     1       0.911  -1.194   0.207  0.00  0.00    +0.000 OA
ATOM      4  C   UNL     1       1.272  -0.070  -0.577  0.00  0.00    +0.000 C 
ATOM      5  C   UNL     1       0.569   1.200  -0.049  0.00  0.00    +0.000 C 
ATOM      6  C   UNL     1      -0.954   0.991  -0.114  0.00  0.00    +0.000 C 
ENDROOT
BRANCH   1   7
ATOM      7  N   UNL     1      -2.772  -0.626   0.385  0.00  0.00    +0.000 N 
ATOM      8  H   UNL     1      -3.029  -1.517   0.868  0.00  0.00    +0.000 HD
ATOM      9  H   UNL     1      -2.989  -0.714  -0.635  0.00  0.00    +0.000 HD
ATOM     10  H   UNL     1      -3.357   0.137   0.797  0.00  0.00    +0.000 HD
ENDBRANCH   1   7
BRANCH   2  11
ATOM     11  O   UNL     1      -0.759  -2.660   0.764  0.00  0.00    +0.000 OA
ATOM     12  H   UNL     1      -0.268  -3.395   0.314  0.00  0.00    +0.000 HD
ENDBRANCH   2  11
BRANCH   5  13
ATOM     13  O   UNL     1       0.966   1.453   1.277  0.00  0.00    +0.000 OA
ATOM     14  H   UNL     1       0.847   2.426   1.435  0.00  0.00    +0.000 HD
ENDBRANCH   5  13
BRANCH   6  15
ATOM     15  O   UNL     1      -1.601   2.079   0.498  0.00  0.00    +0.000 OA
ATOM     16  H   UNL     1      -2.451   2.229   0.009  0.00  0.00    +0.000 HD
ENDBRANCH   6  15
BRANCH   4  17
ATOM     17  C   UNL     1       2.800   0.077  -0.581  0.00  0.00    +0.000 C 
BRANCH  17  18
ATOM     18  O   UNL     1       3.299   0.107   0.729  0.00  0.00    +0.000 OA
ATOM     19  H   UNL     1       4.282   0.212   0.646  0.00  0.00    +0.000 HD
ENDBRANCH  17  18
ENDBRANCH   4  17
TORSDOF 6
