REMARK  Name = 440235
REMARK  8 active torsions:
REMARK  status: ('A' for Active; 'I' for Inactive)
REMARK    1  A    between atoms: C_1  and  C_2
REMARK    2  A    between atoms: N_4  and  C_5
REMARK    3  A    between atoms: C_6  and  O_7
REMARK    4  A    between atoms: C_9  and  C_10
REMARK    5  A    between atoms: C_10  and  O_11
REMARK    6  A    between atoms: O_11  and  S_12
REMARK    7  A    between atoms: C_16  and  O_17
REMARK    8  A    between atoms: C_18  and  O_19
REMARK                            x       y       z     vdW  Elec       q    Type
REMARK                         _______ _______ _______ _____ _____    ______ ____
ROOT
ATOM      1  C   UNL     1      -0.238  -1.555   0.690  0.00  0.00    +0.000 C 
ATOM      2  C   UNL     1      -1.245  -0.740  -0.143  0.00  0.00    +0.000 C 
ATOM      3  O   UNL     1      -0.642   0.455  -0.607  0.00  0.00    +0.000 OA
ATOM      4  C   UNL     1      -0.329   1.310   0.480  0.00  0.00    +0.000 C 
ATOM      5  C   UNL     1       0.752   0.664   1.377  0.00  0.00    +0.000 C 
ATOM      6  C   UNL     1       0.264  -0.709   1.875  0.00  0.00    +0.000 C 
ENDROOT
BRANCH   1  10
ATOM      7  C   UNL     1      -0.899  -5.245   1.774  0.00  0.00    +0.000 C 
ATOM      8  C   UNL     1      -0.219  -4.057   1.176  0.00  0.00    +0.000 C 
ATOM      9  O   UNL     1       0.941  -4.180   0.697  0.00  0.00    +0.000 OA
ATOM     10  N   UNL     1      -0.875  -2.781   1.184  0.00  0.00    +0.000 N 
ATOM     11  H   UNL     1      -1.798  -2.703   1.668  0.00  0.00    +0.000 HD
ENDBRANCH   1  10
BRANCH   2  12
ATOM     12  O   UNL     1      -1.644  -1.505  -1.248  0.00  0.00    +0.000 OA
ATOM     13  H   UNL     1      -2.365  -0.993  -1.698  0.00  0.00    +0.000 HD
ENDBRANCH   2  12
BRANCH   5  14
ATOM     14  O   UNL     1       1.014   1.497   2.478  0.00  0.00    +0.000 OA
ATOM     15  H   UNL     1       1.909   1.244   2.825  0.00  0.00    +0.000 HD
ENDBRANCH   5  14
BRANCH   6  16
ATOM     16  O   UNL     1       1.323  -1.369   2.521  0.00  0.00    +0.000 OA
ATOM     17  H   UNL     1       0.917  -2.029   3.141  0.00  0.00    +0.000 HD
ENDBRANCH   6  16
BRANCH   4  18
ATOM     18  C   UNL     1       0.159   2.650  -0.083  0.00  0.00    +0.000 C 
BRANCH  18  19
ATOM     19  O   UNL     1      -0.855   3.213  -0.882  0.00  0.00    +0.000 OA
BRANCH  19  20
ATOM     20  S   UNL     1      -0.289   4.678  -1.520  0.00  0.00    +0.000 S 
ATOM     21  O   UNL     1       0.919   4.441  -2.382  0.00  0.00    +0.000 OA
ATOM     22  O   UNL     1       0.059   5.632  -0.411  0.00  0.00    +0.000 OA
ATOM     23  O   UNL     1      -1.502   5.359  -2.461  0.00  0.00    +0.000 OA
ENDBRANCH  19  20
ENDBRANCH  18  19
ENDBRANCH   4  18
TORSDOF 7
