REMARK  Name = 198514
REMARK  16 active torsions:
REMARK  status: ('A' for Active; 'I' for Inactive)
REMARK    1  A    between atoms: O_2  and  C_3
REMARK    2  A    between atoms: C_3  and  N_7
REMARK    3  A    between atoms: N_7  and  C_9
REMARK    4  A    between atoms: C_11  and  O_13
REMARK    5  A    between atoms: O_13  and  C_14
REMARK    6  A    between atoms: C_14  and  C_16
REMARK    7  A    between atoms: C_21  and  C_23
REMARK    8  A    between atoms: C_23  and  O_26
REMARK    9  A    between atoms: O_26  and  C_27
REMARK   10  A    between atoms: C_27  and  C_29
REMARK   11  A    between atoms: C_33  and  O_35
REMARK   12  A    between atoms: O_35  and  C_36
REMARK   13  A    between atoms: C_36  and  C_38
REMARK   14  A    between atoms: C_42  and  O_44
REMARK   15  A    between atoms: O_44  and  C_45
REMARK   16  A    between atoms: C_45  and  C_47
REMARK                            x       y       z     vdW  Elec       q    Type
REMARK                         _______ _______ _______ _____ _____    ______ ____
ROOT
ATOM      1  C   UNL     1      -0.729  -0.731  -1.460  0.00  0.00    +0.000 C 
ATOM      2  C   UNL     1      -1.461  -0.868  -0.106  0.00  0.00    +0.000 C 
ATOM      3  O   UNL     1      -0.787  -1.726   0.808  0.00  0.00    +0.000 OA
ATOM      4  C   UNL     1       0.576  -1.388   1.058  0.00  0.00    +0.000 C 
ATOM      5  C   UNL     1       1.420  -1.184  -0.226  0.00  0.00    +0.000 C 
ATOM      6  C   UNL     1       0.718  -0.254  -1.226  0.00  0.00    +0.000 C 
ENDROOT
BRANCH   1   7
ATOM      7  N   UNL     1      -0.752  -2.015  -2.182  0.00  0.00    +0.000 N 
ATOM      8  H   UNL     1      -1.030  -2.874  -1.655  0.00  0.00    +0.000 HD
BRANCH   7   9
ATOM      9  C   UNL     1      -0.391  -2.201  -3.566  0.00  0.00    +0.000 C 
ATOM     10  C   UNL     1      -0.179  -1.174  -4.396  0.00  0.00    +0.000 C 
ATOM     11 BR   UNL     1       0.312  -1.455  -6.222  0.00  0.00    +0.000 Br
BRANCH   9  13
ATOM     12  H   UNL     1      -0.415  -4.304  -3.462  0.00  0.00    +0.000 HD
ATOM     13  O   UNL     1      -0.268  -3.499  -4.059  0.00  0.00    +0.000 OA
ENDBRANCH   9  13
ENDBRANCH   7   9
ENDBRANCH   1   7
BRANCH   2  14
ATOM     14  O   UNL     1      -1.709   0.408   0.485  0.00  0.00    +0.000 OA
BRANCH  14  15
ATOM     15  C   UNL     1      -2.676   1.310   0.025  0.00  0.00    +0.000 C 
ATOM     16  O   UNL     1      -3.446   1.004  -0.925  0.00  0.00    +0.000 OA
ATOM     17  C   UNL     1      -2.814   2.637   0.688  0.00  0.00    +0.000 C 
ENDBRANCH  14  15
ENDBRANCH   2  14
BRANCH   4  18
ATOM     18  C   UNL     1       0.744  -0.264   2.107  0.00  0.00    +0.000 C 
BRANCH  18  19
ATOM     19  O   UNL     1       0.355  -0.720   3.403  0.00  0.00    +0.000 OA
BRANCH  19  20
ATOM     20  C   UNL     1      -0.963  -0.734   3.870  0.00  0.00    +0.000 C 
ATOM     21  O   UNL     1      -1.903  -0.256   3.181  0.00  0.00    +0.000 OA
ATOM     22  C   UNL     1      -1.263  -1.342   5.198  0.00  0.00    +0.000 C 
ENDBRANCH  19  20
ENDBRANCH  18  19
ENDBRANCH   4  18
BRANCH   5  23
ATOM     23  O   UNL     1       1.666  -2.461  -0.822  0.00  0.00    +0.000 OA
BRANCH  23  24
ATOM     24  C   UNL     1       2.662  -2.694  -1.778  0.00  0.00    +0.000 C 
ATOM     25  O   UNL     1       3.470  -1.784  -2.107  0.00  0.00    +0.000 OA
ATOM     26  C   UNL     1       2.777  -4.041  -2.405  0.00  0.00    +0.000 C 
ENDBRANCH  23  24
ENDBRANCH   5  23
BRANCH   6  27
ATOM     27  O   UNL     1       0.738   1.081  -0.715  0.00  0.00    +0.000 OA
BRANCH  27  28
ATOM     28  C   UNL     1       0.472   2.216  -1.486  0.00  0.00    +0.000 C 
ATOM     29  O   UNL     1       0.281   2.126  -2.729  0.00  0.00    +0.000 OA
ATOM     30  C   UNL     1       0.461   3.557  -0.836  0.00  0.00    +0.000 C 
ENDBRANCH  27  28
ENDBRANCH   6  27
TORSDOF 12
