REMARK  Name = 2733335
REMARK  9 active torsions:
REMARK  status: ('A' for Active; 'I' for Inactive)
REMARK    1  A    between atoms: O_2  and  C_3
REMARK    2  A    between atoms: N_4  and  C_5
REMARK    3  A    between atoms: C_7  and  O_9
REMARK    4  A    between atoms: C_12  and  C_14
REMARK    5  A    between atoms: C_14  and  O_17
REMARK    6  A    between atoms: C_19  and  O_21
REMARK    7  A    between atoms: C_23  and  O_25
REMARK    8  A    between atoms: N_27  and  N_28
REMARK    9  A    between atoms: N_27  and  C_30
REMARK                            x       y       z     vdW  Elec       q    Type
REMARK                         _______ _______ _______ _____ _____    ______ ____
ROOT
ATOM      1  C   UNL     1      -0.055   0.165  -0.112  0.00  0.00    +0.000 C 
ATOM      2  C   UNL     1       0.417   0.281  -1.577  0.00  0.00    +0.000 C 
ATOM      3  O   UNL     1      -0.685   0.439  -2.456  0.00  0.00    +0.000 OA
ATOM      4  C   UNL     1      -1.553  -0.685  -2.420  0.00  0.00    +0.000 C 
ATOM      5  C   UNL     1      -2.169  -0.866  -1.010  0.00  0.00    +0.000 C 
ATOM      6  C   UNL     1      -1.047  -1.003   0.032  0.00  0.00    +0.000 C 
ENDROOT
BRANCH   1   8
ATOM      7  C   UNL     1       1.163   0.300   2.016  0.00  0.00    +0.000 C 
ATOM      8  N   UNL     1       1.106  -0.034   0.759  0.00  0.00    +0.000 NA
ATOM      9  N   UNL     1       2.358   0.036   2.775  0.00  0.00    +0.000 N 
ATOM     10  C   UNL     1       3.536  -0.557   2.132  0.00  0.00    +0.000 C 
BRANCH   7  12
ATOM     11  H   UNL     1       0.080   1.206   3.592  0.00  0.00    +0.000 HD
ATOM     12  O   UNL     1       0.067   0.918   2.622  0.00  0.00    +0.000 OA
ENDBRANCH   7  12
BRANCH   9  13
ATOM     13  N   UNL     1       2.328   0.218   4.170  0.00  0.00    +0.000 NA
ATOM     14  O   UNL     1       3.300  -0.086   4.892  0.00  0.00    +0.000 OA
ENDBRANCH   9  13
ENDBRANCH   1   8
BRANCH   2  15
ATOM     15  O   UNL     1       1.202  -0.824  -1.961  0.00  0.00    +0.000 OA
ATOM     16  H   UNL     1       2.119  -0.666  -1.615  0.00  0.00    +0.000 HD
ENDBRANCH   2  15
BRANCH   5  17
ATOM     17  O   UNL     1      -2.967  -2.022  -0.976  0.00  0.00    +0.000 OA
ATOM     18  H   UNL     1      -3.900  -1.740  -1.167  0.00  0.00    +0.000 HD
ENDBRANCH   5  17
BRANCH   6  19
ATOM     19  O   UNL     1      -1.599  -0.997   1.324  0.00  0.00    +0.000 OA
ATOM     20  H   UNL     1      -1.938  -1.914   1.498  0.00  0.00    +0.000 HD
ENDBRANCH   6  19
BRANCH   4  21
ATOM     21  C   UNL     1      -2.639  -0.497  -3.492  0.00  0.00    +0.000 C 
BRANCH  21  22
ATOM     22  O   UNL     1      -3.441   0.620  -3.214  0.00  0.00    +0.000 OA
ATOM     23  H   UNL     1      -2.926   1.420  -3.495  0.00  0.00    +0.000 HD
ENDBRANCH  21  22
ENDBRANCH   4  21
TORSDOF 8
