REMARK  Name = 96523
REMARK  8 active torsions:
REMARK  status: ('A' for Active; 'I' for Inactive)
REMARK    1  A    between atoms: C_1  and  O_2
REMARK    2  A    between atoms: O_2  and  C_3
REMARK    3  A    between atoms: C_5  and  C_6
REMARK    4  A    between atoms: C_6  and  O_7
REMARK    5  A    between atoms: C_8  and  O_9
REMARK    6  A    between atoms: C_10  and  O_11
REMARK    7  A    between atoms: C_12  and  N_13
REMARK    8  A    between atoms: C_14  and  C_15
REMARK                            x       y       z     vdW  Elec       q    Type
REMARK                         _______ _______ _______ _____ _____    ______ ____
ROOT
ATOM      1  C   UNL     1      -0.019   0.671   1.695  0.00  0.00    +0.000 C 
ATOM      2  O   UNL     1      -0.186   2.058   1.444  0.00  0.00    +0.000 OA
ATOM      3  C   UNL     1       0.670   2.508   0.400  0.00  0.00    +0.000 C 
ATOM      4  C   UNL     1       0.577   1.627  -0.889  0.00  0.00    +0.000 C 
ATOM      5  C   UNL     1      -0.604   0.646  -0.810  0.00  0.00    +0.000 C 
ATOM      6  C   UNL     1      -0.572  -0.171   0.510  0.00  0.00    +0.000 C 
ENDROOT
BRANCH   6   7
ATOM      7  N   UNL     1       0.195  -1.414   0.344  0.00  0.00    +0.000 N 
ATOM      8  C   UNL     1       0.119  -2.490   1.290  0.00  0.00    +0.000 C 
ATOM      9  C   UNL     1       0.937  -3.722   1.082  0.00  0.00    +0.000 C 
ATOM     10  O   UNL     1      -0.641  -2.408   2.293  0.00  0.00    +0.000 OA
ATOM     11  H   UNL     1       0.803  -1.543  -0.496  0.00  0.00    +0.000 HD
ENDBRANCH   6   7
BRANCH   1  13
ATOM     12  C   UNL     1       1.701   0.758   3.254  0.00  0.00    +0.000 C 
ATOM     13  O   UNL     1       1.343   0.353   1.951  0.00  0.00    +0.000 OA
ENDBRANCH   1  13
BRANCH   4  14
ATOM     14  O   UNL     1       1.767   0.900  -1.060  0.00  0.00    +0.000 OA
ATOM     15  H   UNL     1       2.453   1.544  -1.377  0.00  0.00    +0.000 HD
ENDBRANCH   4  14
BRANCH   5  16
ATOM     16  O   UNL     1      -1.805   1.373  -0.892  0.00  0.00    +0.000 OA
ATOM     17  H   UNL     1      -2.513   0.733  -1.164  0.00  0.00    +0.000 HD
ENDBRANCH   5  16
BRANCH   3  18
ATOM     18  C   UNL     1       0.341   3.977   0.102  0.00  0.00    +0.000 C 
BRANCH  18  19
ATOM     19  O   UNL     1      -0.991   4.107  -0.312  0.00  0.00    +0.000 OA
ATOM     20  H   UNL     1      -1.130   5.072  -0.493  0.00  0.00    +0.000 HD
ENDBRANCH  18  19
ENDBRANCH   3  18
TORSDOF 6
