REMARK  Name = 96523
REMARK  9 active torsions:
REMARK  status: ('A' for Active; 'I' for Inactive)
REMARK    1  A    between atoms: O_2  and  C_3
REMARK    2  A    between atoms: C_3  and  C_30
REMARK    3  A    between atoms: N_4  and  C_5
REMARK    4  A    between atoms: C_7  and  O_9
REMARK    5  A    between atoms: O_9  and  C_10
REMARK    6  A    between atoms: C_15  and  C_17
REMARK    7  A    between atoms: C_17  and  O_20
REMARK    8  A    between atoms: C_22  and  O_24
REMARK    9  A    between atoms: C_26  and  O_28
REMARK                            x       y       z     vdW  Elec       q    Type
REMARK                         _______ _______ _______ _____ _____    ______ ____
ROOT
ATOM      1  C   UNL     1      -0.252  -0.512  -1.025  0.00  0.00    +0.000 C 
ATOM      2  C   UNL     1      -0.571   0.718  -0.145  0.00  0.00    +0.000 C 
ATOM      3  O   UNL     1      -0.175   0.489   1.202  0.00  0.00    +0.000 OA
ATOM      4  C   UNL     1      -0.883  -0.597   1.781  0.00  0.00    +0.000 C 
ATOM      5  C   UNL     1      -0.574  -1.916   1.038  0.00  0.00    +0.000 C 
ATOM      6  C   UNL     1      -0.933  -1.763  -0.450  0.00  0.00    +0.000 C 
ENDROOT
BRANCH   1   8
ATOM      7  C   UNL     1      -0.149   0.436  -3.308  0.00  0.00    +0.000 C 
ATOM      8  N   UNL     1      -0.721  -0.298  -2.397  0.00  0.00    +0.000 NA
ATOM      9  C   UNL     1      -0.792   0.548  -4.650  0.00  0.00    +0.000 C 
BRANCH   7  11
ATOM     10  H   UNL     1       1.579   1.048  -2.220  0.00  0.00    +0.000 HD
ATOM     11  O   UNL     1       1.059   1.104  -3.085  0.00  0.00    +0.000 OA
ENDBRANCH   7  11
ENDBRANCH   1   8
BRANCH   2  12
ATOM     12  O   UNL     1      -1.950   1.043  -0.236  0.00  0.00    +0.000 OA
ATOM     13  C   UNL     1      -2.174   2.348   0.252  0.00  0.00    +0.000 C 
ENDBRANCH   2  12
BRANCH   5  14
ATOM     14  O   UNL     1      -1.325  -2.961   1.603  0.00  0.00    +0.000 OA
ATOM     15  H   UNL     1      -0.832  -3.803   1.423  0.00  0.00    +0.000 HD
ENDBRANCH   5  14
BRANCH   6  16
ATOM     16  O   UNL     1      -0.501  -2.892  -1.167  0.00  0.00    +0.000 OA
ATOM     17  H   UNL     1      -1.205  -3.585  -1.068  0.00  0.00    +0.000 HD
ENDBRANCH   6  16
BRANCH   4  18
ATOM     18  C   UNL     1      -0.510  -0.683   3.269  0.00  0.00    +0.000 C 
BRANCH  18  19
ATOM     19  O   UNL     1       0.876  -0.833   3.432  0.00  0.00    +0.000 OA
ATOM     20  H   UNL     1       1.056  -1.808   3.485  0.00  0.00    +0.000 HD
ENDBRANCH  18  19
ENDBRANCH   4  18
TORSDOF 7
