REMARK  Name = 57376616
REMARK  7 active torsions:
REMARK  status: ('A' for Active; 'I' for Inactive)
REMARK    1  A    between atoms: C_1  and  C_2
REMARK    2  A    between atoms: N_4  and  C_5
REMARK    3  A    between atoms: C_6  and  O_7
REMARK    4  A    between atoms: C_9  and  C_10
REMARK    5  A    between atoms: C_10  and  O_11
REMARK    6  A    between atoms: C_12  and  O_13
REMARK    7  A    between atoms: C_14  and  O_15
REMARK                            x       y       z     vdW  Elec       q    Type
REMARK                         _______ _______ _______ _____ _____    ______ ____
ROOT
ATOM      1  C   UNL     1       0.162  -1.976  -0.258  0.00  0.00    +0.000 C 
ATOM      2  C   UNL     1      -1.228  -1.548   0.258  0.00  0.00    +0.000 C 
ATOM      3  O   UNL     1      -1.274  -1.468   1.678  0.00  0.00    +0.000 OA
ATOM      4  C   UNL     1      -0.315  -0.578   2.241  0.00  0.00    +0.000 C 
ATOM      5  C   UNL     1       1.137  -0.879   1.773  0.00  0.00    +0.000 C 
ATOM      6  C   UNL     1       1.248  -1.015   0.246  0.00  0.00    +0.000 C 
ENDROOT
BRANCH   1  10
ATOM      7  C   UNL     1       1.187  -2.790  -3.934  0.00  0.00    +0.000 C 
ATOM      8  C   UNL     1       1.208  -2.760  -2.440  0.00  0.00    +0.000 C 
ATOM      9  O   UNL     1       2.111  -3.383  -1.819  0.00  0.00    +0.000 OA
ATOM     10  N   UNL     1       0.180  -2.061  -1.724  0.00  0.00    +0.000 N 
ATOM     11  H   UNL     1      -0.602  -1.642  -2.277  0.00  0.00    +0.000 HD
ENDBRANCH   1  10
BRANCH   2  12
ATOM     12  O   UNL     1      -1.651  -0.347  -0.335  0.00  0.00    +0.000 OA
ATOM     13  H   UNL     1      -2.601  -0.224  -0.074  0.00  0.00    +0.000 HD
ENDBRANCH   2  12
BRANCH   5  14
ATOM     14  O   UNL     1       2.037   0.096   2.234  0.00  0.00    +0.000 OA
ATOM     15  H   UNL     1       2.146  -0.053   3.210  0.00  0.00    +0.000 HD
ENDBRANCH   5  14
BRANCH   6  16
ATOM     16  O   UNL     1       1.125   0.233  -0.390  0.00  0.00    +0.000 OA
ATOM     17  H   UNL     1       2.009   0.680  -0.328  0.00  0.00    +0.000 HD
ENDBRANCH   6  16
BRANCH   4  18
ATOM     18  C   UNL     1      -0.751   0.899   2.120  0.00  0.00    +0.000 C 
BRANCH  18  19
ATOM     19  O   UNL     1      -0.118   1.671   3.104  0.00  0.00    +0.000 OA
ATOM     20  H   UNL     1      -0.447   2.599   2.981  0.00  0.00    +0.000 HD
ENDBRANCH  18  19
ENDBRANCH   4  18
TORSDOF 6
