REMARK  Name = 198515
REMARK  15 active torsions:
REMARK  status: ('A' for Active; 'I' for Inactive)
REMARK    1  A    between atoms: C_1  and  C_2
REMARK    2  A    between atoms: C_2  and  O_4
REMARK    3  A    between atoms: O_4  and  C_5
REMARK    4  A    between atoms: C_5  and  C_6
REMARK    5  A    between atoms: C_8  and  O_9
REMARK    6  A    between atoms: O_9  and  C_10
REMARK    7  A    between atoms: C_10  and  C_11
REMARK    8  A    between atoms: C_13  and  N_14
REMARK    9  A    between atoms: C_15  and  C_17
REMARK   10  A    between atoms: C_19  and  O_20
REMARK   11  A    between atoms: O_20  and  C_21
REMARK   12  A    between atoms: C_21  and  C_22
REMARK   13  A    between atoms: C_24  and  O_25
REMARK   14  A    between atoms: O_25  and  C_26
REMARK   15  A    between atoms: C_26  and  C_27
REMARK                            x       y       z     vdW  Elec       q    Type
REMARK                         _______ _______ _______ _____ _____    ______ ____
ROOT
ATOM      1  C   UNL     1       0.531   1.878   0.270  0.00  0.00    +0.000 C 
ATOM      2  O   UNL     1       1.733   1.671  -0.453  0.00  0.00    +0.000 OA
ATOM      3  C   UNL     1       1.513   0.818  -1.563  0.00  0.00    +0.000 C 
ATOM      4  C   UNL     1       1.090  -0.590  -1.081  0.00  0.00    +0.000 C 
ATOM      5  C   UNL     1      -0.157  -0.490  -0.187  0.00  0.00    +0.000 C 
ATOM      6  C   UNL     1       0.068   0.556   0.922  0.00  0.00    +0.000 C 
ENDROOT
BRANCH   4   7
ATOM      7  N   UNL     1       0.800  -1.458  -2.227  0.00  0.00    +0.000 N 
ATOM      8  C   UNL     1       1.341  -2.780  -2.364  0.00  0.00    +0.000 C 
ATOM      9  O   UNL     1       2.181  -3.219  -1.532  0.00  0.00    +0.000 OA
ATOM     10  H   UNL     1       0.089  -1.138  -2.923  0.00  0.00    +0.000 HD
BRANCH   8  11
ATOM     11  C   UNL     1       0.947  -3.632  -3.526  0.00  0.00    +0.000 C 
ATOM     12 BR   UNL     1       2.022  -3.169  -5.066  0.00  0.00    +0.000 Br
ENDBRANCH   8  11
ENDBRANCH   4   7
BRANCH   1  13
ATOM     13  C   UNL     1       0.777   2.969   1.324  0.00  0.00    +0.000 C 
BRANCH  13  14
ATOM     14  O   UNL     1      -0.393   3.212   2.105  0.00  0.00    +0.000 OA
BRANCH  14  16
ATOM     15  C   UNL     1      -2.719   4.033   2.487  0.00  0.00    +0.000 C 
ATOM     16  C   UNL     1      -1.503   3.921   1.632  0.00  0.00    +0.000 C 
ATOM     17  O   UNL     1      -1.501   4.433   0.480  0.00  0.00    +0.000 OA
ENDBRANCH  14  16
ENDBRANCH  13  14
ENDBRANCH   1  13
BRANCH   3  18
ATOM     18  O   UNL     1       2.741   0.722  -2.288  0.00  0.00    +0.000 OA
BRANCH  18  19
ATOM     19  C   UNL     1       2.824   0.482  -3.664  0.00  0.00    +0.000 C 
ATOM     20  C   UNL     1       4.159   0.264  -4.290  0.00  0.00    +0.000 C 
ATOM     21  O   UNL     1       1.787   0.424  -4.378  0.00  0.00    +0.000 OA
ENDBRANCH  18  19
ENDBRANCH   3  18
BRANCH   5  22
ATOM     22  O   UNL     1      -0.440  -1.774   0.371  0.00  0.00    +0.000 OA
BRANCH  22  23
ATOM     23  C   UNL     1      -1.689  -2.132   0.889  0.00  0.00    +0.000 C 
ATOM     24  C   UNL     1      -1.870  -3.482   1.494  0.00  0.00    +0.000 C 
ATOM     25  O   UNL     1      -2.649  -1.315   0.887  0.00  0.00    +0.000 OA
ENDBRANCH  22  23
ENDBRANCH   5  22
BRANCH   6  26
ATOM     26  O   UNL     1       1.070   0.101   1.837  0.00  0.00    +0.000 OA
BRANCH  26  27
ATOM     27  C   UNL     1       0.794  -0.622   3.002  0.00  0.00    +0.000 C 
ATOM     28  C   UNL     1       1.924  -1.127   3.832  0.00  0.00    +0.000 C 
ATOM     29  O   UNL     1      -0.392  -0.799   3.390  0.00  0.00    +0.000 OA
ENDBRANCH  26  27
ENDBRANCH   6  26
TORSDOF 11
