REMARK  Name = 254124
REMARK  8 active torsions:
REMARK  status: ('A' for Active; 'I' for Inactive)
REMARK    1  A    between atoms: C_1  and  O_2
REMARK    2  A    between atoms: O_2  and  C_3
REMARK    3  A    between atoms: C_5  and  C_6
REMARK    4  A    between atoms: C_6  and  O_7
REMARK    5  A    between atoms: C_8  and  O_9
REMARK    6  A    between atoms: C_10  and  O_11
REMARK    7  A    between atoms: C_12  and  N_13
REMARK    8  A    between atoms: C_14  and  C_15
REMARK                            x       y       z     vdW  Elec       q    Type
REMARK                         _______ _______ _______ _____ _____    ______ ____
ROOT
ATOM      1  C   UNL     1       0.311  -0.274  -2.450  0.00  0.00    +0.000 C 
ATOM      2  O   UNL     1      -1.033  -0.043  -2.849  0.00  0.00    +0.000 OA
ATOM      3  C   UNL     1      -1.768   0.652  -1.853  0.00  0.00    +0.000 C 
ATOM      4  C   UNL     1      -1.895  -0.198  -0.561  0.00  0.00    +0.000 C 
ATOM      5  C   UNL     1      -0.504  -0.625  -0.054  0.00  0.00    +0.000 C 
ATOM      6  C   UNL     1       0.375  -1.187  -1.199  0.00  0.00    +0.000 C 
ENDROOT
BRANCH   6   7
ATOM      7  N   UNL     1      -0.028  -2.558  -1.541  0.00  0.00    +0.000 N 
ATOM      8  C   UNL     1       0.255  -3.678  -0.691  0.00  0.00    +0.000 C 
ATOM      9  C   UNL     1      -0.205  -5.044  -1.082  0.00  0.00    +0.000 C 
ATOM     10  O   UNL     1       0.922  -3.525   0.368  0.00  0.00    +0.000 OA
ATOM     11  H   UNL     1      -0.483  -2.748  -2.463  0.00  0.00    +0.000 HD
ENDBRANCH   6   7
BRANCH   1  13
ATOM     12  C   UNL     1       2.301   0.928  -2.685  0.00  0.00    +0.000 C 
ATOM     13  O   UNL     1       0.972   0.963  -2.210  0.00  0.00    +0.000 OA
ENDBRANCH   1  13
BRANCH   4  14
ATOM     14  O   UNL     1      -2.734  -1.317  -0.730  0.00  0.00    +0.000 OA
ATOM     15  H   UNL     1      -2.489  -1.768  -1.577  0.00  0.00    +0.000 HD
ENDBRANCH   4  14
BRANCH   5  16
ATOM     16  O   UNL     1       0.129   0.488   0.527  0.00  0.00    +0.000 OA
ATOM     17  H   UNL     1       0.865   0.138   1.094  0.00  0.00    +0.000 HD
ENDBRANCH   5  16
BRANCH   3  18
ATOM     18  C   UNL     1      -3.145   1.021  -2.429  0.00  0.00    +0.000 C 
BRANCH  18  19
ATOM     19  O   UNL     1      -3.906   1.740  -1.495  0.00  0.00    +0.000 OA
ATOM     20  H   UNL     1      -3.527   2.657  -1.465  0.00  0.00    +0.000 HD
ENDBRANCH  18  19
ENDBRANCH   3  18
TORSDOF 6
