REMARK  Name = 90220
REMARK  9 active torsions:
REMARK  status: ('A' for Active; 'I' for Inactive)
REMARK    1  A    between atoms: C_1  and  C_2
REMARK    2  A    between atoms: N_4  and  C_5
REMARK    3  A    between atoms: C_6  and  O_7
REMARK    4  A    between atoms: O_7  and  C_8
REMARK    5  A    between atoms: C_11  and  N_12
REMARK    6  A    between atoms: C_18  and  C_19
REMARK    7  A    between atoms: C_19  and  O_20
REMARK    8  A    between atoms: C_21  and  O_22
REMARK    9  A    between atoms: C_23  and  O_24
REMARK                            x       y       z     vdW  Elec       q    Type
REMARK                         _______ _______ _______ _____ _____    ______ ____
ROOT
ATOM      1  C   UNL     1       0.274  -0.062   1.940  0.00  0.00    +0.000 C 
ATOM      2  C   UNL     1      -0.538   0.918   1.065  0.00  0.00    +0.000 C 
ATOM      3  O   UNL     1      -1.440   0.226   0.213  0.00  0.00    +0.000 OA
ATOM      4  C   UNL     1      -0.753  -0.607  -0.710  0.00  0.00    +0.000 C 
ATOM      5  C   UNL     1       0.014  -1.731   0.028  0.00  0.00    +0.000 C 
ATOM      6  C   UNL     1       0.988  -1.105   1.048  0.00  0.00    +0.000 C 
ENDROOT
BRANCH   1  10
ATOM      7  C   UNL     1       1.898   2.202   4.670  0.00  0.00    +0.000 C 
ATOM      8  C   UNL     1       0.865   1.442   3.904  0.00  0.00    +0.000 C 
ATOM      9  O   UNL     1      -0.334   1.458   4.293  0.00  0.00    +0.000 OA
ATOM     10  N   UNL     1       1.249   0.671   2.757  0.00  0.00    +0.000 N 
ATOM     11  H   UNL     1       2.266   0.618   2.519  0.00  0.00    +0.000 HD
ENDBRANCH   1  10
BRANCH   5  12
ATOM     12  O   UNL     1      -0.860  -2.651   0.639  0.00  0.00    +0.000 OA
ATOM     13  H   UNL     1      -1.481  -2.147   1.226  0.00  0.00    +0.000 HD
ENDBRANCH   5  12
BRANCH   6  14
ATOM     14  O   UNL     1       1.625  -2.095   1.818  0.00  0.00    +0.000 OA
ATOM     15  H   UNL     1       0.945  -2.504   2.414  0.00  0.00    +0.000 HD
ENDBRANCH   6  14
BRANCH   2  16
ATOM     16  O   UNL     1       0.338   1.772   0.320  0.00  0.00    +0.000 OA
BRANCH  16  17
ATOM     17  C   UNL     1      -0.076   2.850  -0.477  0.00  0.00    +0.000 A 
ATOM     18  C   UNL     1      -1.424   3.238  -0.589  0.00  0.00    +0.000 A 
ATOM     19  C   UNL     1      -1.783   4.316  -1.403  0.00  0.00    +0.000 A 
ATOM     20  C   UNL     1      -0.804   5.029  -2.118  0.00  0.00    +0.000 A 
ATOM     21  C   UNL     1       0.541   4.640  -1.999  0.00  0.00    +0.000 A 
ATOM     22  C   UNL     1       0.898   3.561  -1.185  0.00  0.00    +0.000 A 
BRANCH  20  23
ATOM     23  N   UNL     1      -1.169   6.140  -2.958  0.00  0.00    +0.000 N 
ATOM     24  O   UNL     1      -2.363   6.490  -3.067  0.00  0.00    +0.000 OA
ATOM     25  O   UNL     1      -0.208   6.835  -3.655  0.00  0.00    +0.000 OA
ENDBRANCH  20  23
ENDBRANCH  16  17
ENDBRANCH   2  16
BRANCH   4  26
ATOM     26  C   UNL     1      -1.764  -1.188  -1.708  0.00  0.00    +0.000 C 
BRANCH  26  27
ATOM     27  O   UNL     1      -2.322  -0.165  -2.489  0.00  0.00    +0.000 OA
ATOM     28  H   UNL     1      -3.015   0.276  -1.931  0.00  0.00    +0.000 HD
ENDBRANCH  26  27
ENDBRANCH   4  26
TORSDOF 8
