REMARK  Name = ZINC000106382965
REMARK  10 active torsions:
REMARK  status: ('A' for Active; 'I' for Inactive)
REMARK    1  A    between atoms: O_2  and  C_3
REMARK    2  A    between atoms: C_3  and  C_39
REMARK    3  A    between atoms: N_4  and  C_5
REMARK    4  A    between atoms: C_7  and  O_9
REMARK    5  A    between atoms: O_9  and  C_10
REMARK    6  A    between atoms: C_15  and  C_16
REMARK    7  A    between atoms: C_24  and  C_26
REMARK    8  A    between atoms: C_26  and  O_29
REMARK    9  A    between atoms: C_31  and  O_33
REMARK   10  A    between atoms: C_35  and  O_37
REMARK                            x       y       z     vdW  Elec       q    Type
REMARK                         _______ _______ _______ _____ _____    ______ ____
ROOT
ATOM      1  C   UNL     1       1.224  -1.032  -0.386  0.00  0.00    +0.000 C 
ATOM      2  C   UNL     1       0.219   0.114  -0.172  0.00  0.00    +0.000 C 
ATOM      3  O   UNL     1      -1.102  -0.354  -0.379  0.00  0.00    +0.000 OA
ATOM      4  C   UNL     1      -1.297  -0.715  -1.736  0.00  0.00    +0.000 C 
ATOM      5  C   UNL     1      -0.402  -1.924  -2.099  0.00  0.00    +0.000 C 
ATOM      6  C   UNL     1       1.076  -1.589  -1.819  0.00  0.00    +0.000 C 
ENDROOT
BRANCH   1   8
ATOM      7  C   UNL     1       3.614  -1.228   0.235  0.00  0.00    +0.000 C 
ATOM      8  N   UNL     1       2.585  -0.534  -0.160  0.00  0.00    +0.000 NA
ATOM      9  C   UNL     1       3.517  -2.693   0.566  0.00  0.00    +0.000 C 
BRANCH   7  11
ATOM     10  H   UNL     1       5.667  -1.062   0.686  0.00  0.00    +0.000 HD
ATOM     11  O   UNL     1       4.836  -0.575   0.374  0.00  0.00    +0.000 OA
ENDBRANCH   7  11
ENDBRANCH   1   8
BRANCH   5  12
ATOM     12  O   UNL     1      -0.570  -2.256  -3.454  0.00  0.00    +0.000 OA
ATOM     13  H   UNL     1      -0.195  -3.167  -3.574  0.00  0.00    +0.000 HD
ENDBRANCH   5  12
BRANCH   6  14
ATOM     14  O   UNL     1       1.532  -0.649  -2.761  0.00  0.00    +0.000 OA
ATOM     15  H   UNL     1       2.515  -0.767  -2.837  0.00  0.00    +0.000 HD
ENDBRANCH   6  14
BRANCH   2  16
ATOM     16  O   UNL     1       0.338   0.584   1.170  0.00  0.00    +0.000 OA
BRANCH  16  17
ATOM     17  C   UNL     1      -0.349   1.690   1.696  0.00  0.00    +0.000 A 
ATOM     18  C   UNL     1      -0.151   2.013   3.043  0.00  0.00    +0.000 A 
ATOM     19  C   UNL     1      -0.811   3.103   3.618  0.00  0.00    +0.000 A 
ATOM     20  C   UNL     1      -1.682   3.889   2.850  0.00  0.00    +0.000 A 
ATOM     21  C   UNL     1      -1.882   3.569   1.496  0.00  0.00    +0.000 A 
ATOM     22  C   UNL     1      -1.221   2.479   0.922  0.00  0.00    +0.000 A 
BRANCH  20  23
ATOM     23  C   UNL     1      -2.369   5.035   3.472  0.00  0.00    +0.000 C 
ATOM     24  O   UNL     1      -3.157   5.760   2.809  0.00  0.00    +0.000 OA
ENDBRANCH  20  23
ENDBRANCH  16  17
ENDBRANCH   2  16
BRANCH   4  25
ATOM     25  C   UNL     1      -2.778  -1.054  -1.938  0.00  0.00    +0.000 C 
BRANCH  25  26
ATOM     26  O   UNL     1      -3.564   0.059  -1.610  0.00  0.00    +0.000 OA
ATOM     27  H   UNL     1      -4.506  -0.219  -1.748  0.00  0.00    +0.000 HD
ENDBRANCH  25  26
ENDBRANCH   4  25
TORSDOF 9
