REMARK  Name = 54758613
REMARK  8 active torsions:
REMARK  status: ('A' for Active; 'I' for Inactive)
REMARK    1  A    between atoms: C_1  and  C_2
REMARK    2  A    between atoms: N_4  and  C_5
REMARK    3  A    between atoms: C_6  and  O_7
REMARK    4  A    between atoms: C_9  and  C_10
REMARK    5  A    between atoms: C_10  and  O_11
REMARK    6  A    between atoms: O_11  and  S_12
REMARK    7  A    between atoms: C_16  and  O_17
REMARK    8  A    between atoms: C_18  and  O_19
REMARK                            x       y       z     vdW  Elec       q    Type
REMARK                         _______ _______ _______ _____ _____    ______ ____
ROOT
ATOM      1  C   UNL     1      -0.645  -0.168   1.003  0.00  0.00    +0.000 C 
ATOM      2  C   UNL     1      -1.227   1.246   1.236  0.00  0.00    +0.000 C 
ATOM      3  O   UNL     1      -1.313   1.953   0.010  0.00  0.00    +0.000 OA
ATOM      4  C   UNL     1      -0.021   2.182  -0.527  0.00  0.00    +0.000 C 
ATOM      5  C   UNL     1       0.635   0.841  -0.928  0.00  0.00    +0.000 C 
ATOM      6  C   UNL     1       0.728  -0.065   0.316  0.00  0.00    +0.000 C 
ENDROOT
BRANCH   1  10
ATOM      7  C   UNL     1      -0.562  -2.940   3.747  0.00  0.00    +0.000 C 
ATOM      8  C   UNL     1      -0.810  -2.267   2.437  0.00  0.00    +0.000 C 
ATOM      9  O   UNL     1      -1.258  -2.939   1.469  0.00  0.00    +0.000 OA
ATOM     10  N   UNL     1      -0.507  -0.874   2.281  0.00  0.00    +0.000 N 
ATOM     11  H   UNL     1      -0.050  -0.376   3.079  0.00  0.00    +0.000 HD
ENDBRANCH   1  10
BRANCH   2  12
ATOM     12  O   UNL     1      -2.522   1.137   1.767  0.00  0.00    +0.000 OA
ATOM     13  H   UNL     1      -2.426   0.968   2.740  0.00  0.00    +0.000 HD
ENDBRANCH   2  12
BRANCH   5  14
ATOM     14  O   UNL     1      -0.130   0.215  -1.929  0.00  0.00    +0.000 OA
ATOM     15  H   UNL     1       0.479  -0.394  -2.421  0.00  0.00    +0.000 HD
ENDBRANCH   5  14
BRANCH   6  16
ATOM     16  O   UNL     1       1.174  -1.347  -0.042  0.00  0.00    +0.000 OA
ATOM     17  H   UNL     1       2.142  -1.266  -0.246  0.00  0.00    +0.000 HD
ENDBRANCH   6  16
BRANCH   4  18
ATOM     18  C   UNL     1      -0.148   3.130  -1.726  0.00  0.00    +0.000 C 
BRANCH  18  19
ATOM     19  O   UNL     1       1.131   3.437  -2.228  0.00  0.00    +0.000 OA
BRANCH  19  20
ATOM     20  S   UNL     1       0.945   4.404  -3.607  0.00  0.00    +0.000 S 
ATOM     21  O   UNL     1       0.311   3.607  -4.713  0.00  0.00    +0.000 OA
ATOM     22  O   UNL     1       2.300   4.871  -4.057  0.00  0.00    +0.000 OA
ATOM     23  O   UNL     1      -0.005   5.747  -3.261  0.00  0.00    +0.000 OA
ENDBRANCH  19  20
ENDBRANCH  18  19
ENDBRANCH   4  18
TORSDOF 7
