REMARK  Name = 52948856
REMARK  16 active torsions:
REMARK  status: ('A' for Active; 'I' for Inactive)
REMARK    1  A    between atoms: C_1  and  O_2
REMARK    2  A    between atoms: O_2  and  C_3
REMARK    3  A    between atoms: C_3  and  C_4
REMARK    4  A    between atoms: C_6  and  O_7
REMARK    5  A    between atoms: O_7  and  C_8
REMARK    6  A    between atoms: C_8  and  C_9
REMARK    7  A    between atoms: C_9  and  C_10
REMARK    8  A    between atoms: C_16  and  N_17
REMARK    9  A    between atoms: N_17  and  C_18
REMARK   10  A    between atoms: C_18  and  C_19
REMARK   11  A    between atoms: C_19  and  C_20
REMARK   12  A    between atoms: C_20  and  N_21
REMARK   13  A    between atoms: C_22  and  O_23
REMARK   14  A    between atoms: O_23  and  C_24
REMARK   15  A    between atoms: C_24  and  C_25
REMARK   16  A    between atoms: C_35  and  O_36
REMARK                            x       y       z     vdW  Elec       q    Type
REMARK                         _______ _______ _______ _____ _____    ______ ____
ROOT
ATOM      1  C   UNL     1      -0.258  -0.968   1.685  0.00  0.00    +0.000 C 
ATOM      2  O   UNL     1      -0.094   0.433   1.845  0.00  0.00    +0.000 OA
ATOM      3  C   UNL     1      -0.401   1.120   0.642  0.00  0.00    +0.000 C 
ATOM      4  C   UNL     1       0.629   0.728  -0.448  0.00  0.00    +0.000 C 
ATOM      5  C   UNL     1       0.568  -0.798  -0.711  0.00  0.00    +0.000 C 
ATOM      6  C   UNL     1       0.751  -1.519   0.646  0.00  0.00    +0.000 C 
ENDROOT
BRANCH   4   7
ATOM      7  N   UNL     1       0.577   1.556  -1.682  0.00  0.00    +0.000 N 
ATOM      8  H   UNL     1       0.978   2.496  -1.450  0.00  0.00    +0.000 HD
ATOM      9  H   UNL     1       1.208   1.117  -2.391  0.00  0.00    +0.000 HD
BRANCH   7  10
ATOM     10  C   UNL     1      -0.758   1.750  -2.288  0.00  0.00    +0.000 C 
BRANCH  10  11
ATOM     11  C   UNL     1      -0.756   2.883  -3.336  0.00  0.00    +0.000 C 
BRANCH  11  12
ATOM     12  C   UNL     1       0.202   2.664  -4.517  0.00  0.00    +0.000 C 
BRANCH  12  13
ATOM     13  N   UNL     1      -0.174   1.482  -5.290  0.00  0.00    +0.000 NA
ATOM     14  H   UNL     1       0.349   1.514  -6.195  0.00  0.00    +0.000 HD
ATOM     15  H   UNL     1       0.171   0.636  -4.784  0.00  0.00    +0.000 HD
ENDBRANCH  12  13
ENDBRANCH  11  12
ENDBRANCH  10  11
ENDBRANCH   7  10
ENDBRANCH   4   7
BRANCH   6  16
ATOM     16  O   UNL     1       0.574  -2.903   0.494  0.00  0.00    +0.000 OA
ATOM     17  H   UNL     1       1.431  -3.265   0.150  0.00  0.00    +0.000 HD
ENDBRANCH   6  16
BRANCH   1  18
ATOM     18  C   UNL     1      -0.075  -1.633   3.056  0.00  0.00    +0.000 C 
BRANCH  18  20
ATOM     19  C   UNL     1       1.306  -1.840   4.886  0.00  0.00    +0.000 C 
ATOM     20  O   UNL     1       1.191  -1.301   3.590  0.00  0.00    +0.000 OA
ENDBRANCH  18  20
ENDBRANCH   1  18
BRANCH   3  21
ATOM     21  O   UNL     1      -0.301   2.510   0.875  0.00  0.00    +0.000 OA
BRANCH  21  22
ATOM     22  C   UNL     1      -1.440   2.979   1.571  0.00  0.00    +0.000 C 
BRANCH  22  23
ATOM     23  C   UNL     1      -1.144   4.362   2.149  0.00  0.00    +0.000 C 
BRANCH  23  24
ATOM     24  C   UNL     1      -0.077   4.279   3.210  0.00  0.00    +0.000 A 
ATOM     25  C   UNL     1       1.281   4.327   2.852  0.00  0.00    +0.000 A 
ATOM     26  C   UNL     1       2.271   4.192   3.828  0.00  0.00    +0.000 A 
ATOM     27  C   UNL     1       1.914   4.001   5.165  0.00  0.00    +0.000 A 
ATOM     28  C   UNL     1       0.566   3.939   5.528  0.00  0.00    +0.000 A 
ATOM     29  C   UNL     1      -0.428   4.074   4.556  0.00  0.00    +0.000 A 
ENDBRANCH  23  24
ENDBRANCH  22  23
ENDBRANCH  21  22
ENDBRANCH   3  21
BRANCH   5  30
ATOM     30  O   UNL     1      -0.696  -1.151  -1.266  0.00  0.00    +0.000 OA
BRANCH  30  31
ATOM     31  C   UNL     1      -0.573  -1.813  -2.513  0.00  0.00    +0.000 C 
BRANCH  31  32
ATOM     32  C   UNL     1      -0.366  -3.288  -2.314  0.00  0.00    +0.000 A 
ATOM     33  C   UNL     1       0.846  -3.895  -2.681  0.00  0.00    +0.000 A 
ATOM     34  C   UNL     1       1.054  -5.256  -2.443  0.00  0.00    +0.000 A 
ATOM     35  C   UNL     1       0.056  -6.027  -1.830  0.00  0.00    +0.000 A 
ATOM     36  C   UNL     1       0.262  -7.392  -1.577  0.00  0.00    +0.000 A 
ATOM     37  C   UNL     1      -0.736  -8.148  -0.955  0.00  0.00    +0.000 A 
ATOM     38  C   UNL     1      -1.943  -7.549  -0.586  0.00  0.00    +0.000 A 
ATOM     39  C   UNL     1      -2.162  -6.192  -0.837  0.00  0.00    +0.000 A 
ATOM     40  C   UNL     1      -1.169  -5.422  -1.460  0.00  0.00    +0.000 A 
ATOM     41  C   UNL     1      -1.373  -4.058  -1.709  0.00  0.00    +0.000 A 
ENDBRANCH  31  32
ENDBRANCH  30  31
ENDBRANCH   5  30
TORSDOF 15
