REMARK  Name = ZINC000396869768
REMARK  9 active torsions:
REMARK  status: ('A' for Active; 'I' for Inactive)
REMARK    1  A    between atoms: C_1  and  O_2
REMARK    2  A    between atoms: O_2  and  C_3
REMARK    3  A    between atoms: C_3  and  C_4
REMARK    4  A    between atoms: C_6  and  O_7
REMARK    5  A    between atoms: C_8  and  N_9
REMARK    6  A    between atoms: C_10  and  O_11
REMARK    7  A    between atoms: O_11  and  C_12
REMARK    8  A    between atoms: C_13  and  O_14
REMARK    9  A    between atoms: O_14  and  C_15
REMARK                            x       y       z     vdW  Elec       q    Type
REMARK                         _______ _______ _______ _____ _____    ______ ____
ROOT
ATOM      1  C   UNL     1      -0.284   1.055  -0.919  0.00  0.00    +0.000 C 
ATOM      2  O   UNL     1       0.416   2.154  -0.364  0.00  0.00    +0.000 OA
ATOM      3  C   UNL     1       1.695   2.287  -0.968  0.00  0.00    +0.000 C 
ATOM      4  C   UNL     1       2.495   0.943  -0.991  0.00  0.00    +0.000 C 
ATOM      5  C   UNL     1       1.823  -0.087  -0.052  0.00  0.00    +0.000 C 
ATOM      6  C   UNL     1       0.334  -0.285  -0.431  0.00  0.00    +0.000 C 
ENDROOT
BRANCH   4   7
ATOM      7  N   UNL     1       2.571   0.423  -2.361  0.00  0.00    +0.000 NA
ATOM      8  H   UNL     1       3.071   1.126  -2.952  0.00  0.00    +0.000 HD
ATOM      9  H   UNL     1       3.181  -0.427  -2.364  0.00  0.00    +0.000 HD
ENDBRANCH   4   7
BRANCH   3  10
ATOM     10  O   UNL     1       2.415   3.247  -0.240  0.00  0.00    +0.000 OA
ATOM     11  H   UNL     1       3.164   3.547  -0.819  0.00  0.00    +0.000 HD
ENDBRANCH   3  10
BRANCH   5  12
ATOM     12  O   UNL     1       2.499  -1.336  -0.105  0.00  0.00    +0.000 OA
ATOM     13  C   UNL     1       3.438  -1.444   0.942  0.00  0.00    +0.000 C 
ENDBRANCH   5  12
BRANCH   6  14
ATOM     14  O   UNL     1       0.225  -1.240  -1.479  0.00  0.00    +0.000 OA
ATOM     15  C   UNL     1      -0.434  -2.405  -1.034  0.00  0.00    +0.000 C 
ENDBRANCH   6  14
BRANCH   1  16
ATOM     16  C   UNL     1      -1.768   1.162  -0.547  0.00  0.00    +0.000 C 
BRANCH  16  18
ATOM     17  C   UNL     1      -3.280   1.294   1.186  0.00  0.00    +0.000 C 
ATOM     18  O   UNL     1      -1.910   1.241   0.857  0.00  0.00    +0.000 OA
ENDBRANCH  16  18
ENDBRANCH   1  16
TORSDOF 6
