REMARK  Name = ZINC000106382957
REMARK  9 active torsions:
REMARK  status: ('A' for Active; 'I' for Inactive)
REMARK    1  A    between atoms: C_1  and  C_2
REMARK    2  A    between atoms: N_4  and  C_5
REMARK    3  A    between atoms: C_6  and  O_7
REMARK    4  A    between atoms: O_7  and  C_8
REMARK    5  A    between atoms: C_13  and  C_14
REMARK    6  A    between atoms: C_17  and  C_18
REMARK    7  A    between atoms: C_18  and  O_19
REMARK    8  A    between atoms: C_20  and  O_21
REMARK    9  A    between atoms: C_22  and  O_23
REMARK                            x       y       z     vdW  Elec       q    Type
REMARK                         _______ _______ _______ _____ _____    ______ ____
ROOT
ATOM      1  C   UNL     1      -0.032  -0.940   0.454  0.00  0.00    +0.000 C 
ATOM      2  C   UNL     1       0.180   0.474  -0.137  0.00  0.00    +0.000 C 
ATOM      3  O   UNL     1       1.428   0.525  -0.807  0.00  0.00    +0.000 OA
ATOM      4  C   UNL     1       2.506   0.372   0.103  0.00  0.00    +0.000 C 
ATOM      5  C   UNL     1       2.465  -1.045   0.738  0.00  0.00    +0.000 C 
ATOM      6  C   UNL     1       1.110  -1.282   1.432  0.00  0.00    +0.000 C 
ENDROOT
BRANCH   1  10
ATOM      7  C   UNL     1      -3.754  -1.772   1.294  0.00  0.00    +0.000 C 
ATOM      8  C   UNL     1      -2.425  -1.814   0.613  0.00  0.00    +0.000 C 
ATOM      9  O   UNL     1      -2.293  -2.489  -0.444  0.00  0.00    +0.000 OA
ATOM     10  N   UNL     1      -1.331  -1.042   1.130  0.00  0.00    +0.000 N 
ATOM     11  H   UNL     1      -1.502  -0.456   1.978  0.00  0.00    +0.000 HD
ENDBRANCH   1  10
BRANCH   5  12
ATOM     12  O   UNL     1       3.527  -1.256   1.637  0.00  0.00    +0.000 OA
ATOM     13  H   UNL     1       3.515  -0.520   2.303  0.00  0.00    +0.000 HD
ENDBRANCH   5  12
BRANCH   6  14
ATOM     14  O   UNL     1       1.022  -0.484   2.588  0.00  0.00    +0.000 OA
ATOM     15  H   UNL     1       0.514  -1.003   3.265  0.00  0.00    +0.000 HD
ENDBRANCH   6  14
BRANCH   2  16
ATOM     16  O   UNL     1      -0.836   0.750  -1.106  0.00  0.00    +0.000 OA
BRANCH  16  17
ATOM     17  C   UNL     1      -2.155   1.173  -0.853  0.00  0.00    +0.000 A 
ATOM     18  C   UNL     1      -2.526   1.774   0.368  0.00  0.00    +0.000 A 
ATOM     19  C   UNL     1      -3.843   2.180   0.590  0.00  0.00    +0.000 A 
ATOM     20  C   UNL     1      -4.806   2.000  -0.400  0.00  0.00    +0.000 A 
ATOM     21  C   UNL     1      -4.457   1.417  -1.618  0.00  0.00    +0.000 A 
ATOM     22  C   UNL     1      -3.137   1.002  -1.860  0.00  0.00    +0.000 A 
BRANCH  22  23
ATOM     23  C   UNL     1      -2.832   0.378  -3.168  0.00  0.00    +0.000 C 
ATOM     24  O   UNL     1      -1.680  -0.045  -3.450  0.00  0.00    +0.000 OA
ENDBRANCH  22  23
ENDBRANCH  16  17
ENDBRANCH   2  16
BRANCH   4  25
ATOM     25  C   UNL     1       3.812   0.601  -0.672  0.00  0.00    +0.000 C 
BRANCH  25  26
ATOM     26  O   UNL     1       4.897   0.690   0.210  0.00  0.00    +0.000 OA
ATOM     27  H   UNL     1       5.701   0.822  -0.355  0.00  0.00    +0.000 HD
ENDBRANCH  25  26
ENDBRANCH   4  25
TORSDOF 8
