REMARK  Name = ZINC000101135603
REMARK  11 active torsions:
REMARK  status: ('A' for Active; 'I' for Inactive)
REMARK    1  A    between atoms: C_1  and  C_2
REMARK    2  A    between atoms: N_4  and  C_5
REMARK    3  A    between atoms: C_6  and  O_7
REMARK    4  A    between atoms: O_7  and  C_8
REMARK    5  A    between atoms: C_8  and  C_9
REMARK    6  A    between atoms: C_15  and  O_16
REMARK    7  A    between atoms: C_17  and  C_18
REMARK    8  A    between atoms: C_18  and  O_19
REMARK    9  A    between atoms: C_21  and  O_22
REMARK   10  A    between atoms: O_22  and  C_23
REMARK   11  A    between atoms: C_23  and  C_24
REMARK                            x       y       z     vdW  Elec       q    Type
REMARK                         _______ _______ _______ _____ _____    ______ ____
ROOT
ATOM      1  C   UNL     1      -0.750   0.099   0.746  0.00  0.00    +0.000 C 
ATOM      2  C   UNL     1      -0.127   0.421  -0.622  0.00  0.00    +0.000 C 
ATOM      3  C   UNL     1      -1.214   0.478  -1.709  0.00  0.00    +0.000 C 
ATOM      4  C   UNL     1      -2.128  -0.772  -1.657  0.00  0.00    +0.000 C 
ATOM      5  O   UNL     1      -2.632  -1.053  -0.353  0.00  0.00    +0.000 OA
ATOM      6  C   UNL     1      -1.636  -1.162   0.656  0.00  0.00    +0.000 C 
ENDROOT
BRANCH   1  10
ATOM      7  C   UNL     1      -1.782   3.446   2.469  0.00  0.00    +0.000 C 
ATOM      8  C   UNL     1      -0.947   2.284   2.042  0.00  0.00    +0.000 C 
ATOM      9  O   UNL     1       0.275   2.248   2.354  0.00  0.00    +0.000 OA
ATOM     10  N   UNL     1      -1.531   1.234   1.259  0.00  0.00    +0.000 N 
ATOM     11  H   UNL     1      -2.548   1.299   1.027  0.00  0.00    +0.000 HD
ENDBRANCH   1  10
BRANCH   3  12
ATOM     12  O   UNL     1      -1.986   1.642  -1.546  0.00  0.00    +0.000 OA
ATOM     13  H   UNL     1      -2.427   1.821  -2.417  0.00  0.00    +0.000 HD
ENDBRANCH   3  12
BRANCH   2  14
ATOM     14  O   UNL     1       0.549   1.666  -0.548  0.00  0.00    +0.000 OA
BRANCH  14  15
ATOM     15  C   UNL     1       1.761   1.632  -1.269  0.00  0.00    +0.000 C 
BRANCH  15  16
ATOM     16  C   UNL     1       2.373   3.002  -1.242  0.00  0.00    +0.000 A 
ATOM     17  C   UNL     1       3.156   3.403  -0.147  0.00  0.00    +0.000 A 
ATOM     18  C   UNL     1       3.689   4.695  -0.099  0.00  0.00    +0.000 A 
ATOM     19  C   UNL     1       3.433   5.597  -1.136  0.00  0.00    +0.000 A 
ATOM     20  C   UNL     1       2.640   5.211  -2.219  0.00  0.00    +0.000 A 
ATOM     21  C   UNL     1       2.104   3.920  -2.271  0.00  0.00    +0.000 A 
ENDBRANCH  15  16
ENDBRANCH  14  15
ENDBRANCH   2  14
BRANCH   4  22
ATOM     22  C   UNL     1      -1.504  -2.003  -2.343  0.00  0.00    +0.000 C 
BRANCH  22  23
ATOM     23  O   UNL     1      -2.322  -3.123  -2.150  0.00  0.00    +0.000 OA
ATOM     24  H   UNL     1      -1.866  -3.880  -2.601  0.00  0.00    +0.000 HD
ENDBRANCH  22  23
ENDBRANCH   4  22
BRANCH   6  25
ATOM     25  O   UNL     1      -0.833  -2.316   0.439  0.00  0.00    +0.000 OA
BRANCH  25  26
ATOM     26  C   UNL     1      -0.798  -3.170   1.568  0.00  0.00    +0.000 C 
BRANCH  26  27
ATOM     27  C   UNL     1       0.127  -2.624   2.623  0.00  0.00    +0.000 A 
ATOM     28  C   UNL     1       1.510  -2.577   2.386  0.00  0.00    +0.000 A 
ATOM     29  C   UNL     1       2.369  -2.017   3.337  0.00  0.00    +0.000 A 
ATOM     30  C   UNL     1       1.851  -1.496   4.527  0.00  0.00    +0.000 A 
ATOM     31  C   UNL     1       0.475  -1.534   4.767  0.00  0.00    +0.000 A 
ATOM     32  C   UNL     1      -0.387  -2.094   3.819  0.00  0.00    +0.000 A 
ENDBRANCH  26  27
ENDBRANCH  25  26
ENDBRANCH   6  25
TORSDOF 10
