REMARK  Name = ZINC000101136391
REMARK  8 active torsions:
REMARK  status: ('A' for Active; 'I' for Inactive)
REMARK    1  A    between atoms: N_1  and  C_2
REMARK    2  A    between atoms: C_3  and  O_4
REMARK    3  A    between atoms: C_5  and  O_6
REMARK    4  A    between atoms: C_7  and  C_8
REMARK    5  A    between atoms: C_8  and  O_9
REMARK    6  A    between atoms: C_11  and  O_12
REMARK    7  A    between atoms: O_12  and  C_13
REMARK    8  A    between atoms: C_13  and  C_14
REMARK                            x       y       z     vdW  Elec       q    Type
REMARK                         _______ _______ _______ _____ _____    ______ ____
ROOT
ATOM      1  C   UNL     1       1.268   0.227   1.460  0.00  0.00    +0.000 C 
ATOM      2  C   UNL     1       0.667  -0.996   2.198  0.00  0.00    +0.000 C 
ATOM      3  C   UNL     1      -0.852  -0.816   2.419  0.00  0.00    +0.000 C 
ATOM      4  C   UNL     1      -1.542  -0.328   1.122  0.00  0.00    +0.000 C 
ATOM      5  O   UNL     1      -0.935   0.866   0.659  0.00  0.00    +0.000 OA
ATOM      6  C   UNL     1       0.399   0.624   0.244  0.00  0.00    +0.000 C 
ENDROOT
BRANCH   1   7
ATOM      7  N   UNL     1       2.659  -0.026   1.057  0.00  0.00    +0.000 N 
ATOM      8  H   UNL     1       3.215  -0.353   1.881  0.00  0.00    +0.000 HD
ATOM      9  H   UNL     1       2.703  -0.750   0.303  0.00  0.00    +0.000 HD
ATOM     10  H   UNL     1       3.094   0.857   0.704  0.00  0.00    +0.000 HD
ENDBRANCH   1   7
BRANCH   2  11
ATOM     11  O   UNL     1       0.957  -2.209   1.542  0.00  0.00    +0.000 OA
ATOM     12  H   UNL     1       0.531  -2.191   0.647  0.00  0.00    +0.000 HD
ENDBRANCH   2  11
BRANCH   3  13
ATOM     13  O   UNL     1      -1.428  -2.025   2.844  0.00  0.00    +0.000 OA
ATOM     14  H   UNL     1      -1.148  -2.158   3.787  0.00  0.00    +0.000 HD
ENDBRANCH   3  13
BRANCH   4  15
ATOM     15  C   UNL     1      -3.039  -0.060   1.345  0.00  0.00    +0.000 C 
BRANCH  15  16
ATOM     16  O   UNL     1      -3.233   1.005   2.238  0.00  0.00    +0.000 OA
ATOM     17  H   UNL     1      -3.340   0.608   3.142  0.00  0.00    +0.000 HD
ENDBRANCH  15  16
ENDBRANCH   4  15
BRANCH   6  18
ATOM     18  O   UNL     1       0.923   1.820  -0.306  0.00  0.00    +0.000 OA
BRANCH  18  19
ATOM     19  C   UNL     1       0.519   1.979  -1.653  0.00  0.00    +0.000 C 
BRANCH  19  20
ATOM     20  C   UNL     1       1.475   1.265  -2.571  0.00  0.00    +0.000 A 
ATOM     21  C   UNL     1       2.813   1.683  -2.654  0.00  0.00    +0.000 A 
ATOM     22  C   UNL     1       3.712   1.007  -3.484  0.00  0.00    +0.000 A 
ATOM     23  C   UNL     1       3.283  -0.092  -4.234  0.00  0.00    +0.000 A 
ATOM     24  C   UNL     1       1.954  -0.516  -4.153  0.00  0.00    +0.000 A 
ATOM     25  C   UNL     1       1.052   0.157  -3.324  0.00  0.00    +0.000 A 
ENDBRANCH  19  20
ENDBRANCH  18  19
ENDBRANCH   6  18
TORSDOF 8
