REMARK  Name = ZINC000032106889
REMARK  5 active torsions:
REMARK  status: ('A' for Active; 'I' for Inactive)
REMARK    1  A    between atoms: O_2  and  C_3
REMARK    2  A    between atoms: C_8  and  C_10
REMARK    3  A    between atoms: C_28  and  O_30
REMARK    4  A    between atoms: O_30  and  C_31
REMARK    5  A    between atoms: C_35  and  N_37
REMARK                            x       y       z     vdW  Elec       q    Type
REMARK                         _______ _______ _______ _____ _____    ______ ____
ROOT
ATOM      1  C   UNL     1       2.383  -0.134  -0.292  0.00  0.00    +0.000 C 
ATOM      2  C   UNL     1       1.164   0.748  -0.659  0.00  0.00    +0.000 C 
ATOM      3  O   UNL     1       1.469   1.589  -1.758  0.00  0.00    +0.000 OA
ATOM      4  C   UNL     1       0.367   2.422  -2.106  0.00  0.00    +0.000 C 
ATOM      5  O   UNL     1      -0.061   3.236  -1.018  0.00  0.00    +0.000 OA
ATOM      6  C   UNL     1      -0.426   2.461   0.106  0.00  0.00    +0.000 C 
ATOM      7  C   UNL     1       0.733   1.584   0.556  0.00  0.00    +0.000 C 
ATOM      8  O   UNL     1       0.334   0.812   1.687  0.00  0.00    +0.000 OA
ATOM      9  C   UNL     1       0.928  -0.485   1.757  0.00  0.00    +0.000 C 
ATOM     10  C   UNL     1       2.381  -0.508   1.214  0.00  0.00    +0.000 C 
ENDROOT
BRANCH   4  11
ATOM     11  C   UNL     1      -0.769   1.677  -2.796  0.00  0.00    +0.000 A 
ATOM     12  C   UNL     1      -2.074   2.206  -2.798  0.00  0.00    +0.000 A 
ATOM     13  C   UNL     1      -3.103   1.552  -3.482  0.00  0.00    +0.000 A 
ATOM     14  C   UNL     1      -2.837   0.381  -4.194  0.00  0.00    +0.000 A 
ATOM     15  C   UNL     1      -1.539  -0.132  -4.235  0.00  0.00    +0.000 A 
ATOM     16  C   UNL     1      -0.506   0.519  -3.553  0.00  0.00    +0.000 A 
ENDBRANCH   4  11
BRANCH  10  17
ATOM     17  N   UNL     1       3.228   0.416   1.973  0.00  0.00    +0.000 NA
ATOM     18  N   UNL     1       3.534   0.194   3.145  0.00  0.00    +0.000 NA
ATOM     19  N   UNL     1       3.841  -0.028   4.316  0.00  0.00    +0.000 NA
ENDBRANCH  10  17
BRANCH   1  21
ATOM     20  H   UNL     1       3.755   0.334  -1.593  0.00  0.00    +0.000 HD
ATOM     21  O   UNL     1       3.591   0.507  -0.629  0.00  0.00    +0.000 OA
ENDBRANCH   1  21
BRANCH   9  22
ATOM     22  O   UNL     1       0.933  -0.929   3.101  0.00  0.00    +0.000 OA
ATOM     23  C   UNL     1      -0.370  -1.293   3.502  0.00  0.00    +0.000 C 
ENDBRANCH   9  22
TORSDOF 4
