REMARK  Name = ZINC000100815672
REMARK  10 active torsions:
REMARK  status: ('A' for Active; 'I' for Inactive)
REMARK    1  A    between atoms: O_2  and  C_3
REMARK    2  A    between atoms: C_3  and  C_40
REMARK    3  A    between atoms: N_4  and  C_5
REMARK    4  A    between atoms: C_7  and  O_9
REMARK    5  A    between atoms: C_11  and  O_13
REMARK    6  A    between atoms: C_15  and  C_17
REMARK    7  A    between atoms: C_17  and  O_20
REMARK    8  A    between atoms: C_23  and  O_25
REMARK    9  A    between atoms: O_25  and  C_26
REMARK   10  A    between atoms: C_26  and  C_29
REMARK                            x       y       z     vdW  Elec       q    Type
REMARK                         _______ _______ _______ _____ _____    ______ ____
ROOT
ATOM      1  C   UNL     1       0.836   1.387   0.308  0.00  0.00    +0.000 C 
ATOM      2  C   UNL     1       1.347   2.510  -0.614  0.00  0.00    +0.000 C 
ATOM      3  C   UNL     1       2.752   2.134  -1.135  0.00  0.00    +0.000 C 
ATOM      4  C   UNL     1       2.741   0.694  -1.714  0.00  0.00    +0.000 C 
ATOM      5  O   UNL     1       2.295  -0.230  -0.731  0.00  0.00    +0.000 OA
ATOM      6  C   UNL     1       0.941   0.014  -0.387  0.00  0.00    +0.000 C 
ENDROOT
BRANCH   1   8
ATOM      7  C   UNL     1      -1.651   1.626   0.238  0.00  0.00    +0.000 C 
ATOM      8  N   UNL     1      -0.502   1.666   0.851  0.00  0.00    +0.000 NA
BRANCH   7   9
ATOM      9  C   UNL     1      -2.905   1.939   0.997  0.00  0.00    +0.000 C 
ATOM     10  F   UNL     1      -3.643   2.881   0.304  0.00  0.00    +0.000 F 
ATOM     11  F   UNL     1      -2.610   2.438   2.255  0.00  0.00    +0.000 F 
ATOM     12  F   UNL     1      -3.655   0.786   1.135  0.00  0.00    +0.000 F 
ENDBRANCH   7   9
BRANCH   7  14
ATOM     13  H   UNL     1      -2.635   1.219  -1.579  0.00  0.00    +0.000 HD
ATOM     14  O   UNL     1      -1.741   1.269  -1.106  0.00  0.00    +0.000 OA
ENDBRANCH   7  14
ENDBRANCH   1   8
BRANCH   2  15
ATOM     15  O   UNL     1       0.468   2.700  -1.694  0.00  0.00    +0.000 OA
ATOM     16  H   UNL     1       0.585   3.635  -2.004  0.00  0.00    +0.000 HD
ENDBRANCH   2  15
BRANCH   3  17
ATOM     17  O   UNL     1       3.161   3.050  -2.118  0.00  0.00    +0.000 OA
ATOM     18  H   UNL     1       3.396   3.891  -1.644  0.00  0.00    +0.000 HD
ENDBRANCH   3  17
BRANCH   4  19
ATOM     19  C   UNL     1       4.144   0.261  -2.162  0.00  0.00    +0.000 C 
BRANCH  19  20
ATOM     20  O   UNL     1       4.544   0.988  -3.291  0.00  0.00    +0.000 OA
ATOM     21  H   UNL     1       5.457   0.669  -3.515  0.00  0.00    +0.000 HD
ENDBRANCH  19  20
ENDBRANCH   4  19
BRANCH   6  22
ATOM     22  O   UNL     1       0.509  -0.978   0.526  0.00  0.00    +0.000 OA
BRANCH  22  23
ATOM     23  C   UNL     1       0.212  -2.178  -0.157  0.00  0.00    +0.000 C 
BRANCH  23  24
ATOM     24  C   UNL     1      -0.174  -3.221   0.851  0.00  0.00    +0.000 A 
ATOM     25  C   UNL     1      -1.494  -3.287   1.327  0.00  0.00    +0.000 A 
ATOM     26  C   UNL     1      -1.847  -4.232   2.296  0.00  0.00    +0.000 A 
ATOM     27  C   UNL     1      -0.883  -5.108   2.803  0.00  0.00    +0.000 A 
ATOM     28  C   UNL     1       0.436  -5.037   2.347  0.00  0.00    +0.000 A 
ATOM     29  C   UNL     1       0.793  -4.093   1.379  0.00  0.00    +0.000 A 
ENDBRANCH  23  24
ENDBRANCH  22  23
ENDBRANCH   6  22
TORSDOF 10
