REMARK  Name = ZINC000257347638
REMARK  9 active torsions:
REMARK  status: ('A' for Active; 'I' for Inactive)
REMARK    1  A    between atoms: O_2  and  C_3
REMARK    2  A    between atoms: C_3  and  C_47
REMARK    3  A    between atoms: N_4  and  C_5
REMARK    4  A    between atoms: C_7  and  O_9
REMARK    5  A    between atoms: O_9  and  S_10
REMARK    6  A    between atoms: S_10  and  C_13
REMARK    7  A    between atoms: C_20  and  C_22
REMARK    8  A    between atoms: C_40  and  O_42
REMARK    9  A    between atoms: O_42  and  C_43
REMARK                            x       y       z     vdW  Elec       q    Type
REMARK                         _______ _______ _______ _____ _____    ______ ____
ROOT
ATOM      1  C   UNL     1      -0.705  -1.013   2.071  0.00  0.00    +0.000 C 
ATOM      2  C   UNL     1      -0.157   0.400   1.757  0.00  0.00    +0.000 C 
ATOM      3  C   UNL     1       1.179   0.339   0.967  0.00  0.00    +0.000 C 
ATOM      4  O   UNL     1       1.045   0.811  -0.363  0.00  0.00    +0.000 OA
ATOM      5  C   UNL     1       2.204   0.525  -1.153  0.00  0.00    +0.000 C 
ATOM      6  O   UNL     1       3.362   0.220  -0.377  0.00  0.00    +0.000 OA
ATOM      7  C   UNL     1       3.178  -0.974   0.374  0.00  0.00    +0.000 C 
ATOM      8  C   UNL     1       1.758  -1.078   0.953  0.00  0.00    +0.000 C 
ATOM      9  O   UNL     1       1.747  -1.602   2.261  0.00  0.00    +0.000 OA
ATOM     10  C   UNL     1       0.417  -1.927   2.676  0.00  0.00    +0.000 C 
ENDROOT
BRANCH   5  11
ATOM     11  C   UNL     1       2.507   1.725  -2.009  0.00  0.00    +0.000 A 
ATOM     12  C   UNL     1       2.728   2.977  -1.408  0.00  0.00    +0.000 A 
ATOM     13  C   UNL     1       3.016   4.096  -2.195  0.00  0.00    +0.000 A 
ATOM     14  C   UNL     1       3.092   3.974  -3.585  0.00  0.00    +0.000 A 
ATOM     15  C   UNL     1       2.884   2.732  -4.190  0.00  0.00    +0.000 A 
ATOM     16  C   UNL     1       2.595   1.610  -3.406  0.00  0.00    +0.000 A 
ENDBRANCH   5  11
BRANCH   1  18
ATOM     17  C   UNL     1      -2.449  -1.464   0.396  0.00  0.00    +0.000 C 
ATOM     18  N   UNL     1      -1.246  -1.638   0.858  0.00  0.00    +0.000 NA
BRANCH  17  19
ATOM     19  C   UNL     1      -2.840  -2.128  -0.870  0.00  0.00    +0.000 A 
ATOM     20  C   UNL     1      -1.864  -2.442  -1.837  0.00  0.00    +0.000 A 
ATOM     21  C   UNL     1      -2.226  -3.071  -3.032  0.00  0.00    +0.000 A 
ATOM     22  C   UNL     1      -3.562  -3.398  -3.273  0.00  0.00    +0.000 A 
ATOM     23  C   UNL     1      -4.537  -3.099  -2.320  0.00  0.00    +0.000 A 
ATOM     24  C   UNL     1      -4.181  -2.469  -1.123  0.00  0.00    +0.000 A 
ENDBRANCH  17  19
BRANCH  17  26
ATOM     25  H   UNL     1      -4.261  -0.412   0.715  0.00  0.00    +0.000 HD
ATOM     26  O   UNL     1      -3.352  -0.654   1.088  0.00  0.00    +0.000 OA
ENDBRANCH  17  26
ENDBRANCH   1  18
BRANCH  10  27
ATOM     27  O   UNL     1       0.349  -1.822   4.087  0.00  0.00    +0.000 OA
ATOM     28  C   UNL     1       0.975  -2.933   4.694  0.00  0.00    +0.000 C 
ENDBRANCH  10  27
BRANCH   2  29
ATOM     29  O   UNL     1      -1.131   1.141   1.046  0.00  0.00    +0.000 OA
BRANCH  29  30
ATOM     30  S   UNL     1      -1.062   2.778   1.487  0.00  0.00    +0.000 S 
ATOM     31  O   UNL     1       0.348   3.297   1.415  0.00  0.00    +0.000 OA
ATOM     32  O   UNL     1      -1.596   2.956   2.880  0.00  0.00    +0.000 OA
ATOM     33  C   UNL     1      -2.070   3.705   0.355  0.00  0.00    +0.000 C 
ENDBRANCH  29  30
ENDBRANCH   2  29
TORSDOF 7
