REMARK  Name = ZINC000019898298
REMARK  8 active torsions:
REMARK  status: ('A' for Active; 'I' for Inactive)
REMARK    1  A    between atoms: C_1  and  O_2
REMARK    2  A    between atoms: O_2  and  C_3
REMARK    3  A    between atoms: C_5  and  C_6
REMARK    4  A    between atoms: C_6  and  O_7
REMARK    5  A    between atoms: C_8  and  O_9
REMARK    6  A    between atoms: C_10  and  O_11
REMARK    7  A    between atoms: C_12  and  N_13
REMARK    8  A    between atoms: C_14  and  C_16
REMARK                            x       y       z     vdW  Elec       q    Type
REMARK                         _______ _______ _______ _____ _____    ______ ____
ROOT
ATOM      1  C   UNL     1       0.169  -1.637  -0.473  0.00  0.00    +0.000 C 
ATOM      2  O   UNL     1       1.280  -2.461  -0.790  0.00  0.00    +0.000 OA
ATOM      3  C   UNL     1       2.059  -1.880  -1.824  0.00  0.00    +0.000 C 
ATOM      4  C   UNL     1       2.695  -0.555  -1.340  0.00  0.00    +0.000 C 
ATOM      5  C   UNL     1       1.596   0.413  -0.866  0.00  0.00    +0.000 C 
ATOM      6  C   UNL     1       0.661  -0.303   0.131  0.00  0.00    +0.000 C 
ENDROOT
BRANCH   6   7
ATOM      7  N   UNL     1      -0.472   0.560   0.485  0.00  0.00    +0.000 N 
ATOM      8  C   UNL     1      -0.317   1.714   1.327  0.00  0.00    +0.000 C 
ATOM      9  O   UNL     1       0.755   1.875   1.973  0.00  0.00    +0.000 OA
ATOM     10  H   UNL     1      -1.430   0.298   0.160  0.00  0.00    +0.000 HD
BRANCH   8  11
ATOM     11  C   UNL     1      -1.404   2.713   1.464  0.00  0.00    +0.000 A 
ATOM     12  C   UNL     1      -2.367   2.880   0.451  0.00  0.00    +0.000 A 
ATOM     13  C   UNL     1      -3.382   3.832   0.590  0.00  0.00    +0.000 A 
ATOM     14  C   UNL     1      -3.444   4.630   1.735  0.00  0.00    +0.000 A 
ATOM     15  C   UNL     1      -2.487   4.481   2.741  0.00  0.00    +0.000 A 
ATOM     16  C   UNL     1      -1.469   3.532   2.607  0.00  0.00    +0.000 A 
ENDBRANCH   8  11
ENDBRANCH   6   7
BRANCH   1  18
ATOM     17  C   UNL     1      -1.386  -3.318  -0.115  0.00  0.00    +0.000 C 
ATOM     18  O   UNL     1      -0.628  -2.295   0.495  0.00  0.00    +0.000 OA
ENDBRANCH   1  18
BRANCH   4  19
ATOM     19  O   UNL     1       3.436   0.030  -2.381  0.00  0.00    +0.000 OA
ATOM     20  H   UNL     1       4.021   0.715  -1.965  0.00  0.00    +0.000 HD
ENDBRANCH   4  19
BRANCH   5  21
ATOM     21  O   UNL     1       0.867   0.879  -1.977  0.00  0.00    +0.000 OA
ATOM     22  H   UNL     1       0.480   1.757  -1.723  0.00  0.00    +0.000 HD
ENDBRANCH   5  21
BRANCH   3  23
ATOM     23  C   UNL     1       3.130  -2.893  -2.261  0.00  0.00    +0.000 C 
BRANCH  23  24
ATOM     24  O   UNL     1       3.998  -3.204  -1.203  0.00  0.00    +0.000 OA
ATOM     25  H   UNL     1       3.525  -3.861  -0.628  0.00  0.00    +0.000 HD
ENDBRANCH  23  24
ENDBRANCH   3  23
TORSDOF 7
