REMARK  Name = ZINC000100815672
REMARK  10 active torsions:
REMARK  status: ('A' for Active; 'I' for Inactive)
REMARK    1  A    between atoms: O_2  and  C_3
REMARK    2  A    between atoms: C_3  and  C_40
REMARK    3  A    between atoms: N_4  and  C_5
REMARK    4  A    between atoms: C_7  and  O_9
REMARK    5  A    between atoms: C_11  and  O_13
REMARK    6  A    between atoms: C_15  and  C_17
REMARK    7  A    between atoms: C_17  and  O_20
REMARK    8  A    between atoms: C_23  and  O_25
REMARK    9  A    between atoms: O_25  and  C_26
REMARK   10  A    between atoms: C_26  and  C_29
REMARK                            x       y       z     vdW  Elec       q    Type
REMARK                         _______ _______ _______ _____ _____    ______ ____
ROOT
ATOM      1  C   UNL     1       1.413  -0.957  -0.014  0.00  0.00    +0.000 C 
ATOM      2  C   UNL     1       1.684  -2.101   0.982  0.00  0.00    +0.000 C 
ATOM      3  C   UNL     1       1.735  -1.540   2.417  0.00  0.00    +0.000 C 
ATOM      4  C   UNL     1       0.480  -0.676   2.689  0.00  0.00    +0.000 C 
ATOM      5  O   UNL     1       0.382   0.368   1.734  0.00  0.00    +0.000 OA
ATOM      6  C   UNL     1       0.174  -0.158   0.432  0.00  0.00    +0.000 C 
ENDROOT
BRANCH   1   8
ATOM      7  C   UNL     1       2.045  -1.623  -2.329  0.00  0.00    +0.000 C 
ATOM      8  N   UNL     1       1.182  -1.501  -1.357  0.00  0.00    +0.000 NA
BRANCH   7   9
ATOM      9  C   UNL     1       3.471  -1.149  -2.227  0.00  0.00    +0.000 C 
ATOM     10  F   UNL     1       4.101  -1.732  -1.144  0.00  0.00    +0.000 F 
ATOM     11  F   UNL     1       4.164  -1.496  -3.373  0.00  0.00    +0.000 F 
ATOM     12  F   UNL     1       3.501   0.228  -2.097  0.00  0.00    +0.000 F 
ENDBRANCH   7   9
BRANCH   7  14
ATOM     13  H   UNL     1       0.669  -2.511  -3.650  0.00  0.00    +0.000 HD
ATOM     14  O   UNL     1       1.622  -2.188  -3.529  0.00  0.00    +0.000 OA
ENDBRANCH   7  14
ENDBRANCH   1   8
BRANCH   2  15
ATOM     15  O   UNL     1       0.673  -3.075   0.873  0.00  0.00    +0.000 OA
ATOM     16  H   UNL     1       1.057  -3.930   1.201  0.00  0.00    +0.000 HD
ENDBRANCH   2  15
BRANCH   3  17
ATOM     17  O   UNL     1       1.807  -2.589   3.348  0.00  0.00    +0.000 OA
ATOM     18  H   UNL     1       2.729  -2.953   3.298  0.00  0.00    +0.000 HD
ENDBRANCH   3  17
BRANCH   4  19
ATOM     19  C   UNL     1       0.520  -0.051   4.090  0.00  0.00    +0.000 C 
BRANCH  19  20
ATOM     20  O   UNL     1       1.612   0.819   4.207  0.00  0.00    +0.000 OA
ATOM     21  H   UNL     1       1.576   1.182   5.130  0.00  0.00    +0.000 HD
ENDBRANCH  19  20
ENDBRANCH   4  19
BRANCH   6  22
ATOM     22  O   UNL     1      -0.007   0.915  -0.473  0.00  0.00    +0.000 OA
BRANCH  22  23
ATOM     23  C   UNL     1      -1.306   1.453  -0.344  0.00  0.00    +0.000 C 
BRANCH  23  24
ATOM     24  C   UNL     1      -1.417   2.660  -1.229  0.00  0.00    +0.000 A 
ATOM     25  C   UNL     1      -1.790   2.519  -2.576  0.00  0.00    +0.000 A 
ATOM     26  C   UNL     1      -1.854   3.640  -3.410  0.00  0.00    +0.000 A 
ATOM     27  C   UNL     1      -1.533   4.905  -2.909  0.00  0.00    +0.000 A 
ATOM     28  C   UNL     1      -1.143   5.051  -1.575  0.00  0.00    +0.000 A 
ATOM     29  C   UNL     1      -1.079   3.932  -0.738  0.00  0.00    +0.000 A 
ENDBRANCH  23  24
ENDBRANCH  22  23
ENDBRANCH   6  22
TORSDOF 10
