REMARK  Name = 134695375
REMARK  8 active torsions:
REMARK  status: ('A' for Active; 'I' for Inactive)
REMARK    1  A    between atoms: O_2  and  N_3
REMARK    2  A    between atoms: N_4  and  C_31
REMARK    3  A    between atoms: N_7  and  C_9
REMARK    4  A    between atoms: C_11  and  O_13
REMARK    5  A    between atoms: C_16  and  C_18
REMARK    6  A    between atoms: C_18  and  O_21
REMARK    7  A    between atoms: C_23  and  O_25
REMARK    8  A    between atoms: C_27  and  O_29
REMARK                            x       y       z     vdW  Elec       q    Type
REMARK                         _______ _______ _______ _____ _____    ______ ____
ROOT
ATOM      1  C   UNL     1      -0.127  -0.010   0.459  0.00  0.00    +0.000 C 
ATOM      2  C   UNL     1      -0.464   0.680  -0.904  0.00  0.00    +0.000 C 
ATOM      3  O   UNL     1      -1.766   0.372  -1.393  0.00  0.00    +0.000 OA
ATOM      4  C   UNL     1      -2.718   0.373  -0.345  0.00  0.00    +0.000 C 
ATOM      5  C   UNL     1      -2.522  -0.888   0.544  0.00  0.00    +0.000 C 
ATOM      6  C   UNL     1      -1.020  -1.256   0.647  0.00  0.00    +0.000 C 
ENDROOT
BRANCH   1  11
ATOM      7  N   UNL     1       4.568   1.091   1.122  0.00  0.00    +0.000 NA
ATOM      8  N   UNL     1       3.713   0.296   0.602  0.00  0.00    +0.000 N 
ATOM      9  C   UNL     1       2.318   0.642   0.688  0.00  0.00    +0.000 C 
ATOM     10  O   UNL     1       1.989   1.840   0.908  0.00  0.00    +0.000 OA
ATOM     11  N   UNL     1       1.297  -0.361   0.547  0.00  0.00    +0.000 N 
ATOM     12  H   UNL     1       1.570  -1.369   0.561  0.00  0.00    +0.000 HD
ATOM     13  C   UNL     1       4.135  -0.966  -0.019  0.00  0.00    +0.000 C 
BRANCH   7  15
ATOM     14  H   UNL     1       6.566   1.473   1.544  0.00  0.00    +0.000 HD
ATOM     15  O   UNL     1       5.918   0.819   1.123  0.00  0.00    +0.000 OA
ENDBRANCH   7  15
ENDBRANCH   1  11
BRANCH   2  16
ATOM     16  O   UNL     1       0.477   0.333  -1.888  0.00  0.00    +0.000 OA
ATOM     17  H   UNL     1       0.341  -0.630  -2.090  0.00  0.00    +0.000 HD
ENDBRANCH   2  16
BRANCH   5  18
ATOM     18  O   UNL     1      -3.215  -1.994   0.018  0.00  0.00    +0.000 OA
ATOM     19  H   UNL     1      -4.110  -2.014   0.448  0.00  0.00    +0.000 HD
ENDBRANCH   5  18
BRANCH   6  20
ATOM     20  O   UNL     1      -0.749  -1.902   1.867  0.00  0.00    +0.000 OA
ATOM     21  H   UNL     1      -0.887  -1.242   2.596  0.00  0.00    +0.000 HD
ENDBRANCH   6  20
BRANCH   4  22
ATOM     22  C   UNL     1      -4.132   0.468  -0.938  0.00  0.00    +0.000 C 
BRANCH  22  23
ATOM     23  O   UNL     1      -4.314   1.707  -1.570  0.00  0.00    +0.000 OA
ATOM     24  H   UNL     1      -3.875   1.643  -2.458  0.00  0.00    +0.000 HD
ENDBRANCH  22  23
ENDBRANCH   4  22
TORSDOF 7
