REMARK  Name = ZINC000082114392
REMARK  7 active torsions:
REMARK  status: ('A' for Active; 'I' for Inactive)
REMARK    1  A    between atoms: C_1  and  O_2
REMARK    2  A    between atoms: O_2  and  C_3
REMARK    3  A    between atoms: C_5  and  C_6
REMARK    4  A    between atoms: C_6  and  O_7
REMARK    5  A    between atoms: C_8  and  O_9
REMARK    6  A    between atoms: C_10  and  O_11
REMARK    7  A    between atoms: C_12  and  N_13
REMARK                            x       y       z     vdW  Elec       q    Type
REMARK                         _______ _______ _______ _____ _____    ______ ____
ROOT
ATOM      1  C   UNL     1      -2.390  -0.128  -0.228  0.00  0.00    +0.000 C 
ATOM      2  O   UNL     1      -1.243   0.659  -0.522  0.00  0.00    +0.000 OA
ATOM      3  C   UNL     1      -0.136   0.306   0.293  0.00  0.00    +0.000 C 
ATOM      4  C   UNL     1       0.300  -1.155   0.020  0.00  0.00    +0.000 C 
ATOM      5  C   UNL     1      -0.879  -2.107   0.279  0.00  0.00    +0.000 C 
ATOM      6  C   UNL     1      -2.117  -1.624  -0.502  0.00  0.00    +0.000 C 
ENDROOT
BRANCH   6   7
ATOM      7  N   UNL     1      -3.289  -2.432  -0.155  0.00  0.00    +0.000 NA
ATOM      8  H   UNL     1      -3.093  -3.425  -0.419  0.00  0.00    +0.000 HD
ATOM      9  H   UNL     1      -4.089  -2.126  -0.757  0.00  0.00    +0.000 HD
ENDBRANCH   6   7
BRANCH   1  11
ATOM     10  C   UNL     1      -3.407   1.340   1.254  0.00  0.00    +0.000 C 
ATOM     11  O   UNL     1      -2.825   0.063   1.110  0.00  0.00    +0.000 OA
ENDBRANCH   1  11
BRANCH   4  12
ATOM     12  O   UNL     1       1.378  -1.513   0.849  0.00  0.00    +0.000 OA
ATOM     13  H   UNL     1       2.212  -1.323   0.345  0.00  0.00    +0.000 HD
ENDBRANCH   4  12
BRANCH   5  14
ATOM     14  O   UNL     1      -1.174  -2.168   1.654  0.00  0.00    +0.000 OA
ATOM     15  H   UNL     1      -0.552  -2.831   2.055  0.00  0.00    +0.000 HD
ENDBRANCH   5  14
BRANCH   3  16
ATOM     16  C   UNL     1       1.005   1.300   0.021  0.00  0.00    +0.000 C 
BRANCH  16  17
ATOM     17  O   UNL     1       1.457   1.207  -1.304  0.00  0.00    +0.000 OA
ATOM     18  H   UNL     1       0.802   1.698  -1.865  0.00  0.00    +0.000 HD
ENDBRANCH  16  17
ENDBRANCH   3  16
TORSDOF 6
