REMARK  Name = ZINC000100656214
REMARK  10 active torsions:
REMARK  status: ('A' for Active; 'I' for Inactive)
REMARK    1  A    between atoms: O_2  and  C_3
REMARK    2  A    between atoms: C_3  and  C_40
REMARK    3  A    between atoms: N_4  and  C_5
REMARK    4  A    between atoms: C_7  and  O_9
REMARK    5  A    between atoms: C_11  and  O_13
REMARK    6  A    between atoms: C_15  and  C_17
REMARK    7  A    between atoms: C_17  and  O_20
REMARK    8  A    between atoms: C_23  and  O_25
REMARK    9  A    between atoms: O_25  and  C_26
REMARK   10  A    between atoms: C_26  and  C_29
REMARK                            x       y       z     vdW  Elec       q    Type
REMARK                         _______ _______ _______ _____ _____    ______ ____
ROOT
ATOM      1  C   UNL     1       0.328  -1.219  -0.542  0.00  0.00    +0.000 C 
ATOM      2  C   UNL     1       1.846  -0.949  -0.547  0.00  0.00    +0.000 C 
ATOM      3  C   UNL     1       2.118   0.530  -0.874  0.00  0.00    +0.000 C 
ATOM      4  C   UNL     1       1.266   1.438   0.048  0.00  0.00    +0.000 C 
ATOM      5  O   UNL     1      -0.106   1.120  -0.103  0.00  0.00    +0.000 OA
ATOM      6  C   UNL     1      -0.381  -0.190   0.366  0.00  0.00    +0.000 C 
ENDROOT
BRANCH   1   8
ATOM      7  C   UNL     1      -0.971  -3.293  -0.381  0.00  0.00    +0.000 C 
ATOM      8  N   UNL     1       0.075  -2.585  -0.074  0.00  0.00    +0.000 NA
ATOM      9  C   UNL     1      -1.108  -4.676   0.167  0.00  0.00    +0.000 C 
BRANCH   7  11
ATOM     10  H   UNL     1      -2.752  -3.343  -1.504  0.00  0.00    +0.000 HD
ATOM     11  O   UNL     1      -1.942  -2.790  -1.247  0.00  0.00    +0.000 OA
ENDBRANCH   7  11
ENDBRANCH   1   8
BRANCH   2  12
ATOM     12  O   UNL     1       2.407  -1.264   0.705  0.00  0.00    +0.000 OA
ATOM     13  H   UNL     1       2.615  -2.235   0.696  0.00  0.00    +0.000 HD
ENDBRANCH   2  12
BRANCH   3  14
ATOM     14  O   UNL     1       3.488   0.793  -0.702  0.00  0.00    +0.000 OA
ATOM     15  H   UNL     1       3.763   1.408  -1.431  0.00  0.00    +0.000 HD
ENDBRANCH   3  14
BRANCH   4  16
ATOM     16  C   UNL     1       1.442   2.926  -0.298  0.00  0.00    +0.000 C 
BRANCH  16  17
ATOM     17  O   UNL     1       2.720   3.382   0.056  0.00  0.00    +0.000 OA
ATOM     18  H   UNL     1       2.722   3.487   1.043  0.00  0.00    +0.000 HD
ENDBRANCH  16  17
ENDBRANCH   4  16
BRANCH   6  19
ATOM     19  O   UNL     1      -1.781  -0.407   0.299  0.00  0.00    +0.000 OA
BRANCH  19  20
ATOM     20  C   UNL     1      -2.438   0.077   1.457  0.00  0.00    +0.000 C 
BRANCH  20  21
ATOM     21  C   UNL     1      -2.508   1.583   1.464  0.00  0.00    +0.000 A 
ATOM     22  C   UNL     1      -3.321   2.254   0.537  0.00  0.00    +0.000 A 
ATOM     23  C   UNL     1      -3.347   3.652   0.506  0.00  0.00    +0.000 A 
ATOM     24  C   UNL     1      -2.558   4.387   1.395  0.00  0.00    +0.000 A 
ATOM     25  C   UNL     1      -1.741   3.725   2.316  0.00  0.00    +0.000 A 
ATOM     26  C   UNL     1      -1.714   2.328   2.352  0.00  0.00    +0.000 A 
ENDBRANCH  20  21
ENDBRANCH  19  20
ENDBRANCH   6  19
TORSDOF 9
