REMARK  Name = ZINC000106382931
REMARK  9 active torsions:
REMARK  status: ('A' for Active; 'I' for Inactive)
REMARK    1  A    between atoms: O_2  and  C_3
REMARK    2  A    between atoms: C_3  and  C_37
REMARK    3  A    between atoms: N_4  and  C_5
REMARK    4  A    between atoms: C_7  and  O_9
REMARK    5  A    between atoms: O_9  and  C_10
REMARK    6  A    between atoms: C_22  and  C_24
REMARK    7  A    between atoms: C_24  and  O_27
REMARK    8  A    between atoms: C_29  and  O_31
REMARK    9  A    between atoms: C_33  and  O_35
REMARK                            x       y       z     vdW  Elec       q    Type
REMARK                         _______ _______ _______ _____ _____    ______ ____
ROOT
ATOM      1  C   UNL     1       0.279   0.917   0.475  0.00  0.00    +0.000 C 
ATOM      2  C   UNL     1       0.819  -0.509   0.210  0.00  0.00    +0.000 C 
ATOM      3  O   UNL     1       0.879  -0.747  -1.185  0.00  0.00    +0.000 OA
ATOM      4  C   UNL     1      -0.421  -0.793  -1.748  0.00  0.00    +0.000 C 
ATOM      5  C   UNL     1      -1.086   0.604  -1.651  0.00  0.00    +0.000 C 
ATOM      6  C   UNL     1      -1.103   1.115  -0.193  0.00  0.00    +0.000 C 
ENDROOT
BRANCH   1   8
ATOM      7  C   UNL     1       0.310   2.302   2.530  0.00  0.00    +0.000 C 
ATOM      8  N   UNL     1       0.183   1.161   1.917  0.00  0.00    +0.000 NA
ATOM      9  C   UNL     1       0.626   3.577   1.796  0.00  0.00    +0.000 C 
BRANCH   7  11
ATOM     10  H   UNL     1       0.275   3.184   4.445  0.00  0.00    +0.000 HD
ATOM     11  O   UNL     1       0.174   2.326   3.915  0.00  0.00    +0.000 OA
ENDBRANCH   7  11
ENDBRANCH   1   8
BRANCH   5  12
ATOM     12  O   UNL     1      -2.382   0.611  -2.200  0.00  0.00    +0.000 OA
ATOM     13  H   UNL     1      -2.898  -0.122  -1.775  0.00  0.00    +0.000 HD
ENDBRANCH   5  12
BRANCH   6  14
ATOM     14  O   UNL     1      -2.135   0.523   0.562  0.00  0.00    +0.000 OA
ATOM     15  H   UNL     1      -1.967  -0.452   0.612  0.00  0.00    +0.000 HD
ENDBRANCH   6  14
BRANCH   2  16
ATOM     16  O   UNL     1       2.152  -0.619   0.719  0.00  0.00    +0.000 OA
BRANCH  16  17
ATOM     17  C   UNL     1       2.526  -0.882   2.049  0.00  0.00    +0.000 A 
ATOM     18  C   UNL     1       3.882  -0.758   2.382  0.00  0.00    +0.000 A 
ATOM     19  C   UNL     1       4.320  -1.003   3.687  0.00  0.00    +0.000 A 
ATOM     20  C   UNL     1       3.405  -1.379   4.673  0.00  0.00    +0.000 A 
ATOM     21  F   UNL     1       3.829  -1.616   5.938  0.00  0.00    +0.000 F 
ATOM     22  C   UNL     1       2.051  -1.514   4.353  0.00  0.00    +0.000 A 
ATOM     23  C   UNL     1       1.610  -1.271   3.048  0.00  0.00    +0.000 A 
ENDBRANCH  16  17
ENDBRANCH   2  16
BRANCH   4  24
ATOM     24  C   UNL     1      -0.301  -1.233  -3.215  0.00  0.00    +0.000 C 
BRANCH  24  25
ATOM     25  O   UNL     1       0.243  -2.523  -3.295  0.00  0.00    +0.000 OA
ATOM     26  H   UNL     1       1.227  -2.425  -3.214  0.00  0.00    +0.000 HD
ENDBRANCH  24  25
ENDBRANCH   4  24
TORSDOF 8
