REMARK  Name = ZINC000105341667
REMARK  7 active torsions:
REMARK  status: ('A' for Active; 'I' for Inactive)
REMARK    1  A    between atoms: C_1  and  O_2
REMARK    2  A    between atoms: O_2  and  C_3
REMARK    3  A    between atoms: C_4  and  O_5
REMARK    4  A    between atoms: C_6  and  C_7
REMARK    5  A    between atoms: C_7  and  O_8
REMARK    6  A    between atoms: C_10  and  O_11
REMARK    7  A    between atoms: C_12  and  N_13
REMARK                            x       y       z     vdW  Elec       q    Type
REMARK                         _______ _______ _______ _____ _____    ______ ____
ROOT
ATOM      1  C   UNL     1       0.184   1.283   1.359  0.00  0.00    +0.000 C 
ATOM      2  C   UNL     1      -0.861   0.164   1.206  0.00  0.00    +0.000 C 
ATOM      3  C   UNL     1      -0.870  -0.360  -0.252  0.00  0.00    +0.000 C 
ATOM      4  O   UNL     1      -1.151   0.695  -1.160  0.00  0.00    +0.000 OA
ATOM      5  C   UNL     1      -0.146   1.698  -1.131  0.00  0.00    +0.000 C 
ATOM      6  C   UNL     1      -0.052   2.350   0.269  0.00  0.00    +0.000 C 
ENDROOT
BRANCH   6   7
ATOM      7  N   UNL     1       0.979   3.396   0.306  0.00  0.00    +0.000 N 
ATOM      8  H   UNL     1       0.996   3.840   1.253  0.00  0.00    +0.000 HD
ATOM      9  H   UNL     1       1.925   3.002   0.097  0.00  0.00    +0.000 HD
ATOM     10  H   UNL     1       0.755   4.136  -0.398  0.00  0.00    +0.000 HD
ENDBRANCH   6   7
BRANCH   1  12
ATOM     11  C   UNL     1       2.223   0.881   2.421  0.00  0.00    +0.000 C 
ATOM     12  O   UNL     1       1.489   0.735   1.226  0.00  0.00    +0.000 OA
ENDBRANCH   1  12
BRANCH   2  13
ATOM     13  O   UNL     1      -0.554  -0.875   2.102  0.00  0.00    +0.000 OA
ATOM     14  H   UNL     1      -1.415  -1.235   2.442  0.00  0.00    +0.000 HD
ENDBRANCH   2  13
BRANCH   5  15
ATOM     15  O   UNL     1       1.097   1.184  -1.543  0.00  0.00    +0.000 OA
ATOM     16  H   UNL     1       0.978   0.886  -2.482  0.00  0.00    +0.000 HD
ENDBRANCH   5  15
BRANCH   3  17
ATOM     17  C   UNL     1      -1.937  -1.450  -0.433  0.00  0.00    +0.000 C 
BRANCH  17  18
ATOM     18  O   UNL     1      -1.917  -1.938  -1.748  0.00  0.00    +0.000 OA
ATOM     19  H   UNL     1      -2.453  -1.308  -2.297  0.00  0.00    +0.000 HD
ENDBRANCH  17  18
ENDBRANCH   3  17
TORSDOF 6
