REMARK  Name = 45934204
REMARK  11 active torsions:
REMARK  status: ('A' for Active; 'I' for Inactive)
REMARK    1  A    between atoms: O_2  and  C_3
REMARK    2  A    between atoms: C_3  and  C_35
REMARK    3  A    between atoms: N_4  and  C_5
REMARK    4  A    between atoms: C_7  and  O_9
REMARK    5  A    between atoms: C_12  and  C_14
REMARK    6  A    between atoms: C_14  and  O_17
REMARK    7  A    between atoms: C_19  and  O_21
REMARK    8  A    between atoms: C_23  and  O_25
REMARK    9  A    between atoms: O_25  and  C_26
REMARK   10  A    between atoms: C_26  and  C_28
REMARK   11  A    between atoms: C_26  and  C_31
REMARK                            x       y       z     vdW  Elec       q    Type
REMARK                         _______ _______ _______ _____ _____    ______ ____
ROOT
ATOM      1  C   UNL     1       0.266  -0.845   0.035  0.00  0.00    +0.000 C 
ATOM      2  C   UNL     1       0.716  -0.869  -1.444  0.00  0.00    +0.000 C 
ATOM      3  O   UNL     1      -0.381  -0.904  -2.345  0.00  0.00    +0.000 OA
ATOM      4  C   UNL     1      -1.295   0.177  -2.197  0.00  0.00    +0.000 C 
ATOM      5  C   UNL     1      -1.821   0.350  -0.749  0.00  0.00    +0.000 C 
ATOM      6  C   UNL     1      -0.687   0.335   0.295  0.00  0.00    +0.000 C 
ENDROOT
BRANCH   1   8
ATOM      7  C   UNL     1       0.205  -3.221   0.624  0.00  0.00    +0.000 C 
ATOM      8  N   UNL     1      -0.406  -2.100   0.382  0.00  0.00    +0.000 NA
ATOM      9  C   UNL     1      -0.595  -4.443   0.943  0.00  0.00    +0.000 C 
BRANCH   7  11
ATOM     10  H   UNL     1       2.080  -4.172   0.741  0.00  0.00    +0.000 HD
ATOM     11  O   UNL     1       1.597  -3.299   0.567  0.00  0.00    +0.000 OA
ENDBRANCH   7  11
ENDBRANCH   1   8
BRANCH   2  12
ATOM     12  O   UNL     1       1.574   0.203  -1.740  0.00  0.00    +0.000 OA
ATOM     13  H   UNL     1       2.426   0.035  -1.258  0.00  0.00    +0.000 HD
ENDBRANCH   2  12
BRANCH   5  14
ATOM     14  O   UNL     1      -2.735  -0.683  -0.475  0.00  0.00    +0.000 OA
ATOM     15  H   UNL     1      -3.291  -0.385   0.292  0.00  0.00    +0.000 HD
ENDBRANCH   5  14
BRANCH   4  16
ATOM     16  C   UNL     1      -0.781   1.480  -2.843  0.00  0.00    +0.000 C 
BRANCH  16  17
ATOM     17  O   UNL     1      -1.852   2.356  -3.068  0.00  0.00    +0.000 OA
ATOM     18  H   UNL     1      -1.465   3.161  -3.500  0.00  0.00    +0.000 HD
ENDBRANCH  16  17
ENDBRANCH   4  16
BRANCH   6  19
ATOM     19  O   UNL     1       0.025   1.562   0.225  0.00  0.00    +0.000 OA
BRANCH  19  20
ATOM     20  C   UNL     1       0.478   1.987   1.498  0.00  0.00    +0.000 C 
ATOM     21  C   UNL     1       1.717   2.857   1.308  0.00  0.00    +0.000 C 
BRANCH  20  22
ATOM     22  C   UNL     1      -0.596   2.784   2.184  0.00  0.00    +0.000 C 
ATOM     23  O   UNL     1      -0.782   2.659   3.423  0.00  0.00    +0.000 OA
ATOM     24  O   UNL     1      -1.362   3.690   1.461  0.00  0.00    +0.000 OA
ENDBRANCH  20  22
ENDBRANCH  19  20
ENDBRANCH   6  19
TORSDOF 9
