REMARK  Name = 49859685
REMARK  9 active torsions:
REMARK  status: ('A' for Active; 'I' for Inactive)
REMARK    1  A    between atoms: O_2  and  C_3
REMARK    2  A    between atoms: C_3  and  C_30
REMARK    3  A    between atoms: N_4  and  C_5
REMARK    4  A    between atoms: C_7  and  O_9
REMARK    5  A    between atoms: O_9  and  P_10
REMARK    6  A    between atoms: C_15  and  C_17
REMARK    7  A    between atoms: C_17  and  O_20
REMARK    8  A    between atoms: C_22  and  O_24
REMARK    9  A    between atoms: C_26  and  O_28
REMARK                            x       y       z     vdW  Elec       q    Type
REMARK                         _______ _______ _______ _____ _____    ______ ____
ROOT
ATOM      1  C   UNL     1       1.422   0.105   0.068  0.00  0.00    +0.000 C 
ATOM      2  C   UNL     1       0.244   0.130   1.063  0.00  0.00    +0.000 C 
ATOM      3  O   UNL     1      -0.925   0.637   0.437  0.00  0.00    +0.000 OA
ATOM      4  C   UNL     1      -1.382  -0.186  -0.630  0.00  0.00    +0.000 C 
ATOM      5  C   UNL     1      -0.299  -0.363  -1.727  0.00  0.00    +0.000 C 
ATOM      6  C   UNL     1       1.066  -0.779  -1.144  0.00  0.00    +0.000 C 
ENDROOT
BRANCH   1   8
ATOM      7  C   UNL     1       2.874   1.931  -0.764  0.00  0.00    +0.000 C 
ATOM      8  N   UNL     1       1.719   1.474  -0.371  0.00  0.00    +0.000 NA
ATOM      9  C   UNL     1       4.115   1.079  -0.769  0.00  0.00    +0.000 C 
BRANCH   7  11
ATOM     10  H   UNL     1       3.833   3.675  -1.459  0.00  0.00    +0.000 HD
ATOM     11  O   UNL     1       2.957   3.263  -1.159  0.00  0.00    +0.000 OA
ENDBRANCH   7  11
ENDBRANCH   1   8
BRANCH   5  12
ATOM     12  O   UNL     1      -0.723  -1.282  -2.700  0.00  0.00    +0.000 OA
ATOM     13  H   UNL     1      -0.137  -1.155  -3.491  0.00  0.00    +0.000 HD
ENDBRANCH   5  12
BRANCH   6  14
ATOM     14  O   UNL     1       1.043  -2.133  -0.771  0.00  0.00    +0.000 OA
ATOM     15  H   UNL     1       1.988  -2.418  -0.664  0.00  0.00    +0.000 HD
ENDBRANCH   6  14
BRANCH   2  16
ATOM     16  O   UNL     1       0.568   1.004   2.130  0.00  0.00    +0.000 OA
BRANCH  16  17
ATOM     17  P   UNL     1       1.034   0.118   3.514  0.00  0.00    +0.000 P 
ATOM     18  O   UNL     1       1.485   1.081   4.588  0.00  0.00    +0.000 OA
ATOM     19  O   UNL     1       2.308  -0.933   3.144  0.00  0.00    +0.000 OA
ATOM     20  O   UNL     1      -0.282  -0.775   4.090  0.00  0.00    +0.000 OA
ENDBRANCH  16  17
ENDBRANCH   2  16
BRANCH   4  21
ATOM     21  C   UNL     1      -2.028  -1.495  -0.116  0.00  0.00    +0.000 C 
BRANCH  21  22
ATOM     22  O   UNL     1      -2.931  -2.003  -1.065  0.00  0.00    +0.000 OA
ATOM     23  H   UNL     1      -2.509  -2.801  -1.477  0.00  0.00    +0.000 HD
ENDBRANCH  21  22
ENDBRANCH   4  21
TORSDOF 8
