REMARK  Name = 46174147
REMARK  9 active torsions:
REMARK  status: ('A' for Active; 'I' for Inactive)
REMARK    1  A    between atoms: C_3  and  O_4
REMARK    2  A    between atoms: C_3  and  O_6
REMARK    3  A    between atoms: O_6  and  C_7
REMARK    4  A    between atoms: C_10  and  C_12
REMARK    5  A    between atoms: C_12  and  O_15
REMARK    6  A    between atoms: C_17  and  O_19
REMARK    7  A    between atoms: C_21  and  O_23
REMARK    8  A    between atoms: C_25  and  N_27
REMARK    9  A    between atoms: C_29  and  C_31
REMARK                            x       y       z     vdW  Elec       q    Type
REMARK                         _______ _______ _______ _____ _____    ______ ____
ROOT
ATOM      1  C   UNL     1       0.218   0.353  -0.200  0.00  0.00    +0.000 C 
ATOM      2  O   UNL     1       1.244  -0.619  -0.321  0.00  0.00    +0.000 OA
ATOM      3  C   UNL     1       2.316  -0.367   0.576  0.00  0.00    +0.000 C 
ATOM      4  C   UNL     1       1.833  -0.468   2.043  0.00  0.00    +0.000 C 
ATOM      5  C   UNL     1       0.675   0.516   2.280  0.00  0.00    +0.000 C 
ATOM      6  C   UNL     1      -0.411   0.324   1.205  0.00  0.00    +0.000 C 
ENDROOT
BRANCH   6   7
ATOM      7  N   UNL     1      -1.443   1.360   1.317  0.00  0.00    +0.000 N 
ATOM      8  H   UNL     1      -1.186   2.296   1.709  0.00  0.00    +0.000 HD
ATOM      9  C   UNL     1      -2.771   1.179   0.806  0.00  0.00    +0.000 C 
ATOM     10  O   UNL     1      -3.109   0.084   0.280  0.00  0.00    +0.000 OA
ATOM     11  C   UNL     1      -3.752   2.306   0.850  0.00  0.00    +0.000 C 
ENDBRANCH   6   7
BRANCH   4  12
ATOM     12  O   UNL     1       2.891  -0.163   2.917  0.00  0.00    +0.000 OA
ATOM     13  H   UNL     1       2.656  -0.550   3.800  0.00  0.00    +0.000 HD
ENDBRANCH   4  12
BRANCH   5  14
ATOM     14  O   UNL     1       0.130   0.288   3.554  0.00  0.00    +0.000 OA
ATOM     15  H   UNL     1      -0.330   1.125   3.827  0.00  0.00    +0.000 HD
ENDBRANCH   5  14
BRANCH   1  16
ATOM     16  O   UNL     1       0.697   1.663  -0.517  0.00  0.00    +0.000 OA
BRANCH  16  19
ATOM     17  H   UNL     1       1.987   3.495  -2.922  0.00  0.00    +0.000 HD
ATOM     18  N   UNL     1       1.606   3.207  -1.994  0.00  0.00    +0.000 NA
ATOM     19  C   UNL     1       1.198   1.998  -1.777  0.00  0.00    +0.000 C 
BRANCH  19  20
ATOM     20  O   UNL     1       1.258   1.040  -2.790  0.00  0.00    +0.000 OA
ATOM     21  H   UNL     1       1.613   1.263  -3.713  0.00  0.00    +0.000 HD
ENDBRANCH  19  20
ENDBRANCH  16  19
ENDBRANCH   1  16
BRANCH   3  22
ATOM     22  C   UNL     1       3.423  -1.389   0.279  0.00  0.00    +0.000 C 
BRANCH  22  23
ATOM     23  O   UNL     1       4.604  -1.044   0.951  0.00  0.00    +0.000 OA
ATOM     24  H   UNL     1       5.269  -1.742   0.716  0.00  0.00    +0.000 HD
ENDBRANCH  22  23
ENDBRANCH   3  22
TORSDOF 8
