REMARK  Name = 45266741
REMARK  6 active torsions:
REMARK  status: ('A' for Active; 'I' for Inactive)
REMARK    1  A    between atoms: N_1  and  C_2
REMARK    2  A    between atoms: C_3  and  O_4
REMARK    3  A    between atoms: C_6  and  C_7
REMARK    4  A    between atoms: C_7  and  O_8
REMARK    5  A    between atoms: C_9  and  O_10
REMARK    6  A    between atoms: C_11  and  O_12
REMARK                            x       y       z     vdW  Elec       q    Type
REMARK                         _______ _______ _______ _____ _____    ______ ____
ROOT
ATOM      1  C   UNL     1      -1.583  -0.162   0.150  0.00  0.00    +0.000 C 
ATOM      2  C   UNL     1      -0.836  -1.218  -0.696  0.00  0.00    +0.000 C 
ATOM      3  O   UNL     1       0.423  -1.510  -0.115  0.00  0.00    +0.000 OA
ATOM      4  C   UNL     1       1.274  -0.378  -0.167  0.00  0.00    +0.000 C 
ATOM      5  C   UNL     1       0.708   0.750   0.730  0.00  0.00    +0.000 C 
ATOM      6  C   UNL     1      -0.717   1.110   0.273  0.00  0.00    +0.000 C 
ENDROOT
BRANCH   1   7
ATOM      7  N   UNL     1      -2.889   0.157  -0.446  0.00  0.00    +0.000 N 
ATOM      8  H   UNL     1      -3.383   0.871   0.136  0.00  0.00    +0.000 HD
ATOM      9  H   UNL     1      -2.770   0.528  -1.417  0.00  0.00    +0.000 HD
ATOM     10  H   UNL     1      -3.488  -0.700  -0.477  0.00  0.00    +0.000 HD
ENDBRANCH   1   7
BRANCH   2  11
ATOM     11  O   UNL     1      -1.595  -2.396  -0.735  0.00  0.00    +0.000 OA
ATOM     12  H   UNL     1      -1.138  -3.003  -1.374  0.00  0.00    +0.000 HD
ENDBRANCH   2  11
BRANCH   5  13
ATOM     13  O   UNL     1       1.516   1.897   0.640  0.00  0.00    +0.000 OA
ATOM     14  H   UNL     1       2.096   1.912   1.445  0.00  0.00    +0.000 HD
ENDBRANCH   5  13
BRANCH   6  15
ATOM     15  O   UNL     1      -1.305   1.986   1.200  0.00  0.00    +0.000 OA
ATOM     16  H   UNL     1      -0.949   2.893   1.008  0.00  0.00    +0.000 HD
ENDBRANCH   6  15
BRANCH   4  17
ATOM     17  C   UNL     1       2.673  -0.820   0.297  0.00  0.00    +0.000 C 
BRANCH  17  18
ATOM     18  O   UNL     1       3.629   0.177   0.056  0.00  0.00    +0.000 OA
ATOM     19  H   UNL     1       3.812   0.167  -0.920  0.00  0.00    +0.000 HD
ENDBRANCH  17  18
ENDBRANCH   4  17
TORSDOF 6
