REMARK  Name = 44630437
REMARK  8 active torsions:
REMARK  status: ('A' for Active; 'I' for Inactive)
REMARK    1  A    between atoms: C_1  and  C_2
REMARK    2  A    between atoms: C_2  and  C_3
REMARK    3  A    between atoms: N_5  and  C_6
REMARK    4  A    between atoms: C_7  and  O_8
REMARK    5  A    between atoms: C_10  and  C_11
REMARK    6  A    between atoms: C_11  and  O_12
REMARK    7  A    between atoms: C_13  and  O_14
REMARK    8  A    between atoms: C_15  and  O_16
REMARK                            x       y       z     vdW  Elec       q    Type
REMARK                         _______ _______ _______ _____ _____    ______ ____
ROOT
ATOM      1  C   UNL     1       0.718  -1.085  -0.877  0.00  0.00    +0.000 C 
ATOM      2  C   UNL     1       1.811  -0.476   0.061  0.00  0.00    +0.000 C 
ATOM      3  O   UNL     1       1.427  -0.484   1.431  0.00  0.00    +0.000 OA
ATOM      4  C   UNL     1       0.134   0.068   1.590  0.00  0.00    +0.000 C 
ATOM      5  C   UNL     1      -0.938  -0.917   1.051  0.00  0.00    +0.000 C 
ATOM      6  C   UNL     1      -0.349  -1.833  -0.054  0.00  0.00    +0.000 C 
ENDROOT
BRANCH   1   9
ATOM      7  C   UNL     1      -0.639  -0.342  -2.898  0.00  0.00    +0.000 C 
ATOM      8  O   UNL     1      -0.682  -1.522  -3.339  0.00  0.00    +0.000 OA
ATOM      9  N   UNL     1       0.082  -0.041  -1.694  0.00  0.00    +0.000 N 
ATOM     10  H   UNL     1       0.133   0.959  -1.394  0.00  0.00    +0.000 HD
BRANCH   7  12
ATOM     11  C   UNL     1      -0.308   1.472  -4.564  0.00  0.00    +0.000 C 
ATOM     12  C   UNL     1      -1.310   0.757  -3.665  0.00  0.00    +0.000 C 
ENDBRANCH   7  12
ENDBRANCH   1   9
BRANCH   2  13
ATOM     13  O   UNL     1       2.989  -1.227  -0.072  0.00  0.00    +0.000 OA
ATOM     14  H   UNL     1       3.690  -0.751   0.445  0.00  0.00    +0.000 HD
ENDBRANCH   2  13
BRANCH   5  15
ATOM     15  O   UNL     1      -2.020  -0.180   0.542  0.00  0.00    +0.000 OA
ATOM     16  H   UNL     1      -2.790  -0.804   0.476  0.00  0.00    +0.000 HD
ENDBRANCH   5  15
BRANCH   6  17
ATOM     17  O   UNL     1       0.242  -2.967   0.529  0.00  0.00    +0.000 OA
ATOM     18  H   UNL     1      -0.497  -3.579   0.785  0.00  0.00    +0.000 HD
ENDBRANCH   6  17
BRANCH   4  19
ATOM     19  C   UNL     1      -0.100   0.377   3.071  0.00  0.00    +0.000 C 
BRANCH  19  20
ATOM     20  O   UNL     1       0.829   1.331   3.507  0.00  0.00    +0.000 OA
ATOM     21  H   UNL     1       0.632   1.489   4.466  0.00  0.00    +0.000 HD
ENDBRANCH  19  20
ENDBRANCH   4  19
TORSDOF 7
