REMARK  Name = 44341508
REMARK  11 active torsions:
REMARK  status: ('A' for Active; 'I' for Inactive)
REMARK    1  A    between atoms: O_2  and  C_3
REMARK    2  A    between atoms: C_3  and  C_47
REMARK    3  A    between atoms: N_4  and  C_5
REMARK    4  A    between atoms: C_7  and  O_9
REMARK    5  A    between atoms: O_9  and  C_10
REMARK    6  A    between atoms: C_18  and  O_19
REMARK    7  A    between atoms: O_19  and  C_20
REMARK    8  A    between atoms: C_32  and  C_34
REMARK    9  A    between atoms: C_34  and  O_37
REMARK   10  A    between atoms: C_39  and  O_41
REMARK   11  A    between atoms: C_43  and  O_45
REMARK                            x       y       z     vdW  Elec       q    Type
REMARK                         _______ _______ _______ _____ _____    ______ ____
ROOT
ATOM      1  C   UNL     1      -2.011   0.335  -0.524  0.00  0.00    +0.000 C 
ATOM      2  C   UNL     1      -1.695  -0.457   0.766  0.00  0.00    +0.000 C 
ATOM      3  O   UNL     1      -2.877  -1.039   1.294  0.00  0.00    +0.000 OA
ATOM      4  C   UNL     1      -3.438  -1.997   0.406  0.00  0.00    +0.000 C 
ATOM      5  C   UNL     1      -3.857  -1.341  -0.934  0.00  0.00    +0.000 C 
ATOM      6  C   UNL     1      -2.655  -0.613  -1.554  0.00  0.00    +0.000 C 
ENDROOT
BRANCH   1   8
ATOM      7  C   UNL     1      -2.652   2.618   0.231  0.00  0.00    +0.000 C 
ATOM      8  N   UNL     1      -2.940   1.435  -0.233  0.00  0.00    +0.000 NA
ATOM      9  C   UNL     1      -1.243   3.050   0.531  0.00  0.00    +0.000 C 
BRANCH   7  11
ATOM     10  H   UNL     1      -3.537   4.434   0.833  0.00  0.00    +0.000 HD
ATOM     11  O   UNL     1      -3.699   3.506   0.464  0.00  0.00    +0.000 OA
ENDBRANCH   7  11
ENDBRANCH   1   8
BRANCH   5  12
ATOM     12  O   UNL     1      -4.306  -2.322  -1.835  0.00  0.00    +0.000 OA
ATOM     13  H   UNL     1      -5.291  -2.386  -1.731  0.00  0.00    +0.000 HD
ENDBRANCH   5  12
BRANCH   6  14
ATOM     14  O   UNL     1      -3.075   0.106  -2.685  0.00  0.00    +0.000 OA
ATOM     15  H   UNL     1      -2.255   0.352  -3.189  0.00  0.00    +0.000 HD
ENDBRANCH   6  14
BRANCH   2  16
ATOM     16  O   UNL     1      -0.705  -1.470   0.535  0.00  0.00    +0.000 OA
BRANCH  16  17
ATOM     17  C   UNL     1       0.656  -1.255   0.264  0.00  0.00    +0.000 A 
ATOM     18  C   UNL     1       1.425  -2.353  -0.139  0.00  0.00    +0.000 A 
ATOM     19  C   UNL     1       2.783  -2.206  -0.429  0.00  0.00    +0.000 A 
ATOM     20  C   UNL     1       3.396  -0.951  -0.317  0.00  0.00    +0.000 A 
ATOM     21  C   UNL     1       4.759  -0.791  -0.609  0.00  0.00    +0.000 A 
ATOM     22  C   UNL     1       5.371   0.464  -0.494  0.00  0.00    +0.000 A 
ATOM     23  C   UNL     1       4.604   1.570  -0.081  0.00  0.00    +0.000 A 
ATOM     24  C   UNL     1       3.246   1.420   0.212  0.00  0.00    +0.000 A 
ATOM     25  C   UNL     1       2.632   0.165   0.097  0.00  0.00    +0.000 A 
ATOM     26  C   UNL     1       1.269   0.006   0.389  0.00  0.00    +0.000 A 
BRANCH  22  27
ATOM     27  O   UNL     1       6.736   0.568  -0.799  0.00  0.00    +0.000 OA
ATOM     28  C   UNL     1       7.487   1.776  -0.727  0.00  0.00    +0.000 C 
ENDBRANCH  22  27
ENDBRANCH  16  17
ENDBRANCH   2  16
BRANCH   4  29
ATOM     29  C   UNL     1      -4.632  -2.668   1.104  0.00  0.00    +0.000 C 
BRANCH  29  30
ATOM     30  O   UNL     1      -5.651  -1.741   1.373  0.00  0.00    +0.000 OA
ATOM     31  H   UNL     1      -5.371  -1.234   2.179  0.00  0.00    +0.000 HD
ENDBRANCH  29  30
ENDBRANCH   4  29
TORSDOF 9
