REMARK  Name = 12600646
REMARK  9 active torsions:
REMARK  status: ('A' for Active; 'I' for Inactive)
REMARK    1  A    between atoms: O_2  and  N_3
REMARK    2  A    between atoms: N_4  and  C_31
REMARK    3  A    between atoms: N_7  and  C_9
REMARK    4  A    between atoms: C_11  and  O_13
REMARK    5  A    between atoms: C_16  and  C_18
REMARK    6  A    between atoms: C_18  and  O_21
REMARK    7  A    between atoms: C_23  and  O_25
REMARK    8  A    between atoms: C_27  and  O_29
REMARK    9  A    between atoms: C_31  and  C_34
REMARK                            x       y       z     vdW  Elec       q    Type
REMARK                         _______ _______ _______ _____ _____    ______ ____
ROOT
ATOM      1  C   UNL     1       0.716   0.145  -0.137  0.00  0.00    +0.000 C 
ATOM      2  C   UNL     1       0.685   1.694  -0.207  0.00  0.00    +0.000 C 
ATOM      3  O   UNL     1       1.960   2.270   0.031  0.00  0.00    +0.000 OA
ATOM      4  C   UNL     1       2.483   1.916   1.302  0.00  0.00    +0.000 C 
ATOM      5  C   UNL     1       2.714   0.390   1.393  0.00  0.00    +0.000 C 
ATOM      6  C   UNL     1       1.383  -0.344   1.165  0.00  0.00    +0.000 C 
ENDROOT
BRANCH   1  11
ATOM      7  N   UNL     1      -3.203  -1.089  -2.738  0.00  0.00    +0.000 NA
ATOM      8  N   UNL     1      -2.561  -1.249  -1.641  0.00  0.00    +0.000 N 
ATOM      9  C   UNL     1      -1.260  -0.632  -1.537  0.00  0.00    +0.000 C 
ATOM     10  O   UNL     1      -0.664  -0.271  -2.589  0.00  0.00    +0.000 OA
ATOM     11  N   UNL     1      -0.639  -0.402  -0.259  0.00  0.00    +0.000 N 
ATOM     12  H   UNL     1      -1.210  -0.489   0.610  0.00  0.00    +0.000 HD
BRANCH   7  14
ATOM     13  H   UNL     1      -5.009  -2.108  -2.318  0.00  0.00    +0.000 HD
ATOM     14  O   UNL     1      -4.462  -1.597  -2.997  0.00  0.00    +0.000 OA
ENDBRANCH   7  14
BRANCH   8  15
ATOM     15  C   UNL     1      -3.106  -2.042  -0.525  0.00  0.00    +0.000 C 
BRANCH  15  16
ATOM     16  C   UNL     1      -4.077  -1.207   0.311  0.00  0.00    +0.000 C 
ATOM     17 CL   UNL     1      -4.701  -2.173   1.670  0.00  0.00    +0.000 Cl
ENDBRANCH  15  16
ENDBRANCH   8  15
ENDBRANCH   1  11
BRANCH   2  18
ATOM     18  O   UNL     1      -0.306   2.287   0.602  0.00  0.00    +0.000 OA
ATOM     19  H   UNL     1      -0.335   1.816   1.473  0.00  0.00    +0.000 HD
ENDBRANCH   2  18
BRANCH   5  20
ATOM     20  O   UNL     1       3.208   0.045   2.664  0.00  0.00    +0.000 OA
ATOM     21  H   UNL     1       4.196  -0.008   2.591  0.00  0.00    +0.000 HD
ENDBRANCH   5  20
BRANCH   6  22
ATOM     22  O   UNL     1       1.577  -1.737   1.136  0.00  0.00    +0.000 OA
ATOM     23  H   UNL     1       2.188  -1.943   0.381  0.00  0.00    +0.000 HD
ENDBRANCH   6  22
BRANCH   4  24
ATOM     24  C   UNL     1       3.802   2.679   1.505  0.00  0.00    +0.000 C 
BRANCH  24  25
ATOM     25  O   UNL     1       3.596   4.059   1.366  0.00  0.00    +0.000 OA
ATOM     26  H   UNL     1       3.142   4.364   2.195  0.00  0.00    +0.000 HD
ENDBRANCH  24  25
ENDBRANCH   4  24
TORSDOF 9
