REMARK  Name = 12917651
REMARK  11 active torsions:
REMARK  status: ('A' for Active; 'I' for Inactive)
REMARK    1  A    between atoms: C_1  and  C_2
REMARK    2  A    between atoms: C_2  and  O_3
REMARK    3  A    between atoms: N_4  and  C_5
REMARK    4  A    between atoms: C_6  and  O_7
REMARK    5  A    between atoms: C_9  and  C_10
REMARK    6  A    between atoms: C_10  and  O_11
REMARK    7  A    between atoms: C_12  and  O_13
REMARK    8  A    between atoms: C_14  and  O_15
REMARK    9  A    between atoms: O_15  and  C_16
REMARK   10  A    between atoms: C_16  and  C_17
REMARK   11  A    between atoms: C_16  and  C_18
REMARK                            x       y       z     vdW  Elec       q    Type
REMARK                         _______ _______ _______ _____ _____    ______ ____
ROOT
ATOM      1  C   UNL     1       0.834   0.088   0.903  0.00  0.00    +0.000 C 
ATOM      2  C   UNL     1       1.802   1.216   0.473  0.00  0.00    +0.000 C 
ATOM      3  O   UNL     1       1.160   2.476   0.565  0.00  0.00    +0.000 OA
ATOM      4  C   UNL     1       0.080   2.553  -0.353  0.00  0.00    +0.000 C 
ATOM      5  C   UNL     1      -1.024   1.536   0.025  0.00  0.00    +0.000 C 
ATOM      6  C   UNL     1      -0.446   0.107   0.040  0.00  0.00    +0.000 C 
ENDROOT
BRANCH   1   9
ATOM      7  C   UNL     1       2.625  -3.195   0.090  0.00  0.00    +0.000 C 
ATOM      8  C   UNL     1       2.027  -1.840  -0.110  0.00  0.00    +0.000 C 
ATOM      9  N   UNL     1       1.487  -1.228   0.903  0.00  0.00    +0.000 NA
BRANCH   8  10
ATOM     10  O   UNL     1       2.015  -1.275  -1.384  0.00  0.00    +0.000 OA
ATOM     11  H   UNL     1       2.413  -1.761  -2.179  0.00  0.00    +0.000 HD
ENDBRANCH   8  10
ENDBRANCH   1   9
BRANCH   2  12
ATOM     12  O   UNL     1       2.939   1.213   1.296  0.00  0.00    +0.000 OA
ATOM     13  H   UNL     1       2.647   1.498   2.202  0.00  0.00    +0.000 HD
ENDBRANCH   2  12
BRANCH   5  14
ATOM     14  O   UNL     1      -2.074   1.611  -0.906  0.00  0.00    +0.000 OA
ATOM     15  H   UNL     1      -2.884   1.254  -0.456  0.00  0.00    +0.000 HD
ENDBRANCH   5  14
BRANCH   4  16
ATOM     16  C   UNL     1      -0.469   3.984  -0.333  0.00  0.00    +0.000 C 
BRANCH  16  17
ATOM     17  O   UNL     1       0.544   4.883  -0.688  0.00  0.00    +0.000 OA
ATOM     18  H   UNL     1       0.138   5.788  -0.648  0.00  0.00    +0.000 HD
ENDBRANCH  16  17
ENDBRANCH   4  16
BRANCH   6  19
ATOM     19  O   UNL     1      -1.412  -0.765   0.611  0.00  0.00    +0.000 OA
BRANCH  19  20
ATOM     20  C   UNL     1      -1.578  -1.957  -0.139  0.00  0.00    +0.000 C 
ATOM     21  C   UNL     1      -2.647  -1.758  -1.216  0.00  0.00    +0.000 C 
BRANCH  20  22
ATOM     22  C   UNL     1      -2.008  -3.047   0.795  0.00  0.00    +0.000 C 
ATOM     23  O   UNL     1      -1.494  -4.194   0.712  0.00  0.00    +0.000 OA
ATOM     24  O   UNL     1      -3.002  -2.809   1.737  0.00  0.00    +0.000 OA
ENDBRANCH  20  22
ENDBRANCH  19  20
ENDBRANCH   6  19
TORSDOF 9
