REMARK  Name = 11096158
REMARK  7 active torsions:
REMARK  status: ('A' for Active; 'I' for Inactive)
REMARK    1  A    between atoms: C_1  and  C_2
REMARK    2  A    between atoms: N_4  and  C_5
REMARK    3  A    between atoms: C_6  and  O_7
REMARK    4  A    between atoms: C_9  and  C_10
REMARK    5  A    between atoms: C_10  and  O_11
REMARK    6  A    between atoms: C_12  and  O_13
REMARK    7  A    between atoms: C_14  and  O_15
REMARK                            x       y       z     vdW  Elec       q    Type
REMARK                         _______ _______ _______ _____ _____    ______ ____
ROOT
ATOM      1  C   UNL     1      -0.533   0.603   1.101  0.00  0.00    +0.000 C 
ATOM      2  C   UNL     1      -1.827  -0.088   0.629  0.00  0.00    +0.000 C 
ATOM      3  O   UNL     1      -1.619  -0.736  -0.615  0.00  0.00    +0.000 OA
ATOM      4  C   UNL     1      -1.357   0.215  -1.636  0.00  0.00    +0.000 C 
ATOM      5  C   UNL     1      -0.022   0.951  -1.359  0.00  0.00    +0.000 C 
ATOM      6  C   UNL     1      -0.071   1.611   0.029  0.00  0.00    +0.000 C 
ENDROOT
BRANCH   1  10
ATOM      7  C   UNL     1       2.545  -1.275   2.596  0.00  0.00    +0.000 C 
ATOM      8  C   UNL     1       1.451  -0.269   2.442  0.00  0.00    +0.000 C 
ATOM      9  O   UNL     1       1.377   0.697   3.248  0.00  0.00    +0.000 OA
ATOM     10  N   UNL     1       0.513  -0.395   1.364  0.00  0.00    +0.000 N 
ATOM     11  H   UNL     1       0.653  -1.173   0.680  0.00  0.00    +0.000 HD
ENDBRANCH   1  10
BRANCH   2  12
ATOM     12  O   UNL     1      -2.214  -1.039   1.584  0.00  0.00    +0.000 OA
ATOM     13  H   UNL     1      -3.096  -1.388   1.290  0.00  0.00    +0.000 HD
ENDBRANCH   2  12
BRANCH   5  14
ATOM     14  O   UNL     1       0.192   1.948  -2.326  0.00  0.00    +0.000 OA
ATOM     15  H   UNL     1       0.762   1.552  -3.036  0.00  0.00    +0.000 HD
ENDBRANCH   5  14
BRANCH   6  16
ATOM     16  O   UNL     1       1.195   2.128   0.347  0.00  0.00    +0.000 OA
ATOM     17  H   UNL     1       1.065   2.754   1.107  0.00  0.00    +0.000 HD
ENDBRANCH   6  16
BRANCH   4  18
ATOM     18  C   UNL     1      -1.308  -0.521  -2.979  0.00  0.00    +0.000 C 
BRANCH  18  19
ATOM     19  O   UNL     1      -2.520  -1.190  -3.195  0.00  0.00    +0.000 OA
ATOM     20  H   UNL     1      -2.427  -1.655  -4.067  0.00  0.00    +0.000 HD
ENDBRANCH  18  19
ENDBRANCH   4  18
TORSDOF 6
