REMARK  Name = 6420074
REMARK  8 active torsions:
REMARK  status: ('A' for Active; 'I' for Inactive)
REMARK    1  A    between atoms: C_1  and  N_2
REMARK    2  A    between atoms: N_2  and  N_3
REMARK    3  A    between atoms: N_7  and  C_8
REMARK    4  A    between atoms: C_9  and  O_10
REMARK    5  A    between atoms: C_12  and  C_13
REMARK    6  A    between atoms: C_13  and  O_14
REMARK    7  A    between atoms: C_15  and  O_16
REMARK    8  A    between atoms: C_17  and  O_18
REMARK                            x       y       z     vdW  Elec       q    Type
REMARK                         _______ _______ _______ _____ _____    ______ ____
ROOT
ATOM      1  C   UNL     1      -0.400  -0.338  -0.814  0.00  0.00    +0.000 C 
ATOM      2  C   UNL     1       0.270   0.234  -2.080  0.00  0.00    +0.000 C 
ATOM      3  O   UNL     1       0.060  -0.618  -3.195  0.00  0.00    +0.000 OA
ATOM      4  C   UNL     1      -1.316  -0.761  -3.530  0.00  0.00    +0.000 C 
ATOM      5  C   UNL     1      -2.195  -1.262  -2.344  0.00  0.00    +0.000 C 
ATOM      6  C   UNL     1      -1.913  -0.498  -1.029  0.00  0.00    +0.000 C 
ENDROOT
BRANCH   1  11
ATOM      7  C   UNL     1      -0.317   3.998   1.899  0.00  0.00    +0.000 C 
ATOM      8  N   UNL     1      -0.098   2.555   1.759  0.00  0.00    +0.000 N 
ATOM      9  C   UNL     1      -0.454   1.861   0.547  0.00  0.00    +0.000 C 
ATOM     10  O   UNL     1      -1.067   2.475  -0.367  0.00  0.00    +0.000 OA
ATOM     11  N   UNL     1      -0.102   0.474   0.376  0.00  0.00    +0.000 N 
ATOM     12  H   UNL     1       0.421  -0.004   1.144  0.00  0.00    +0.000 HD
BRANCH   8  13
ATOM     13  N   UNL     1       0.397   1.819   2.851  0.00  0.00    +0.000 NA
ATOM     14  O   UNL     1       0.687   2.373   3.932  0.00  0.00    +0.000 OA
ENDBRANCH   8  13
ENDBRANCH   1  11
BRANCH   2  15
ATOM     15  O   UNL     1       1.650   0.373  -1.865  0.00  0.00    +0.000 OA
ATOM     16  H   UNL     1       2.031  -0.542  -1.796  0.00  0.00    +0.000 HD
ENDBRANCH   2  15
BRANCH   5  17
ATOM     17  O   UNL     1      -2.032  -2.649  -2.160  0.00  0.00    +0.000 OA
ATOM     18  H   UNL     1      -1.065  -2.832  -2.037  0.00  0.00    +0.000 HD
ENDBRANCH   5  17
BRANCH   6  19
ATOM     19  O   UNL     1      -2.468  -1.184   0.064  0.00  0.00    +0.000 OA
ATOM     20  H   UNL     1      -3.451  -1.053   0.015  0.00  0.00    +0.000 HD
ENDBRANCH   6  19
BRANCH   4  21
ATOM     21  C   UNL     1      -1.879   0.466  -4.288  0.00  0.00    +0.000 C 
BRANCH  21  22
ATOM     22  O   UNL     1      -2.258   1.505  -3.424  0.00  0.00    +0.000 OA
ATOM     23  H   UNL     1      -3.221   1.377  -3.220  0.00  0.00    +0.000 HD
ENDBRANCH  21  22
ENDBRANCH   4  21
TORSDOF 7
