REMARK  Name = 5462244
REMARK  10 active torsions:
REMARK  status: ('A' for Active; 'I' for Inactive)
REMARK    1  A    between atoms: C_1  and  C_2
REMARK    2  A    between atoms: N_4  and  C_5
REMARK    3  A    between atoms: C_6  and  O_7
REMARK    4  A    between atoms: C_9  and  C_10
REMARK    5  A    between atoms: C_10  and  O_11
REMARK    6  A    between atoms: C_12  and  O_13
REMARK    7  A    between atoms: C_14  and  O_15
REMARK    8  A    between atoms: O_15  and  C_16
REMARK    9  A    between atoms: C_16  and  C_17
REMARK   10  A    between atoms: C_16  and  C_18
REMARK                            x       y       z     vdW  Elec       q    Type
REMARK                         _______ _______ _______ _____ _____    ______ ____
ROOT
ATOM      1  C   UNL     1       1.019  -0.010  -0.489  0.00  0.00    +0.000 C 
ATOM      2  C   UNL     1       1.909  -1.204  -0.050  0.00  0.00    +0.000 C 
ATOM      3  O   UNL     1       1.436  -1.746   1.169  0.00  0.00    +0.000 OA
ATOM      4  C   UNL     1       0.187  -2.418   1.012  0.00  0.00    +0.000 C 
ATOM      5  C   UNL     1      -0.754  -1.761  -0.046  0.00  0.00    +0.000 C 
ATOM      6  C   UNL     1      -0.473  -0.251  -0.135  0.00  0.00    +0.000 C 
ENDROOT
BRANCH   1  10
ATOM      7  C   UNL     1       2.125   3.681   0.138  0.00  0.00    +0.000 C 
ATOM      8  C   UNL     1       1.762   2.430  -0.592  0.00  0.00    +0.000 C 
ATOM      9  O   UNL     1       1.674   2.448  -1.850  0.00  0.00    +0.000 OA
ATOM     10  N   UNL     1       1.479   1.231   0.144  0.00  0.00    +0.000 N 
ATOM     11  H   UNL     1       1.534   1.264   1.188  0.00  0.00    +0.000 HD
ENDBRANCH   1  10
BRANCH   2  12
ATOM     12  O   UNL     1       3.240  -0.795   0.127  0.00  0.00    +0.000 OA
ATOM     13  H   UNL     1       3.599  -0.592  -0.777  0.00  0.00    +0.000 HD
ENDBRANCH   2  12
BRANCH   5  14
ATOM     14  O   UNL     1      -2.107  -2.008   0.253  0.00  0.00    +0.000 OA
ATOM     15  H   UNL     1      -2.313  -1.565   1.118  0.00  0.00    +0.000 HD
ENDBRANCH   5  14
BRANCH   4  16
ATOM     16  C   UNL     1       0.421  -3.910   0.734  0.00  0.00    +0.000 C 
BRANCH  16  17
ATOM     17  O   UNL     1      -0.791  -4.609   0.809  0.00  0.00    +0.000 OA
ATOM     18  H   UNL     1      -0.573  -5.559   0.622  0.00  0.00    +0.000 HD
ENDBRANCH  16  17
ENDBRANCH   4  16
BRANCH   6  19
ATOM     19  O   UNL     1      -1.303   0.309  -1.141  0.00  0.00    +0.000 OA
BRANCH  19  20
ATOM     20  C   UNL     1      -1.768   1.603  -0.792  0.00  0.00    +0.000 C 
ATOM     21  C   UNL     1      -3.127   1.498  -0.098  0.00  0.00    +0.000 C 
BRANCH  20  22
ATOM     22  C   UNL     1      -1.903   2.420  -2.042  0.00  0.00    +0.000 C 
ATOM     23  O   UNL     1      -2.426   1.923  -3.075  0.00  0.00    +0.000 OA
ATOM     24  O   UNL     1      -1.485   3.745  -2.054  0.00  0.00    +0.000 OA
ENDBRANCH  20  22
ENDBRANCH  19  20
ENDBRANCH   6  19
TORSDOF 8
