REMARK  Name = 4282259
REMARK  9 active torsions:
REMARK  status: ('A' for Active; 'I' for Inactive)
REMARK    1  A    between atoms: O_2  and  C_3
REMARK    2  A    between atoms: C_3  and  C_37
REMARK    3  A    between atoms: N_4  and  C_5
REMARK    4  A    between atoms: C_7  and  O_9
REMARK    5  A    between atoms: O_9  and  C_10
REMARK    6  A    between atoms: C_22  and  C_24
REMARK    7  A    between atoms: C_24  and  O_27
REMARK    8  A    between atoms: C_29  and  O_31
REMARK    9  A    between atoms: C_33  and  O_35
REMARK                            x       y       z     vdW  Elec       q    Type
REMARK                         _______ _______ _______ _____ _____    ______ ____
ROOT
ATOM      1  C   UNL     1      -1.435  -0.332  -0.046  0.00  0.00    +0.000 C 
ATOM      2  C   UNL     1       0.031   0.102   0.124  0.00  0.00    +0.000 C 
ATOM      3  O   UNL     1       0.132   1.287   0.901  0.00  0.00    +0.000 OA
ATOM      4  C   UNL     1      -0.540   2.394   0.312  0.00  0.00    +0.000 C 
ATOM      5  C   UNL     1      -2.042   2.098   0.070  0.00  0.00    +0.000 C 
ATOM      6  C   UNL     1      -2.229   0.798  -0.724  0.00  0.00    +0.000 C 
ENDROOT
BRANCH   1   8
ATOM      7  C   UNL     1      -2.402  -2.459  -0.881  0.00  0.00    +0.000 C 
ATOM      8  N   UNL     1      -1.474  -1.544  -0.869  0.00  0.00    +0.000 NA
ATOM      9  C   UNL     1      -2.257  -3.617  -1.810  0.00  0.00    +0.000 C 
BRANCH   7  11
ATOM     10  H   UNL     1      -3.676  -1.684   0.644  0.00  0.00    +0.000 HD
ATOM     11  O   UNL     1      -3.515  -2.414  -0.036  0.00  0.00    +0.000 OA
ENDBRANCH   7  11
ENDBRANCH   1   8
BRANCH   5  12
ATOM     12  O   UNL     1      -2.661   3.161  -0.609  0.00  0.00    +0.000 OA
ATOM     13  H   UNL     1      -2.742   3.907   0.042  0.00  0.00    +0.000 HD
ENDBRANCH   5  12
BRANCH   6  14
ATOM     14  O   UNL     1      -3.591   0.462  -0.767  0.00  0.00    +0.000 OA
ATOM     15  H   UNL     1      -4.003   1.014  -1.482  0.00  0.00    +0.000 HD
ENDBRANCH   6  14
BRANCH   2  16
ATOM     16  O   UNL     1       0.728  -0.946   0.797  0.00  0.00    +0.000 OA
BRANCH  16  17
ATOM     17  C   UNL     1       2.115  -0.992   1.007  0.00  0.00    +0.000 A 
ATOM     18  C   UNL     1       2.638  -2.062   1.746  0.00  0.00    +0.000 A 
ATOM     19  C   UNL     1       4.013  -2.154   1.984  0.00  0.00    +0.000 A 
ATOM     20  C   UNL     1       4.877  -1.177   1.483  0.00  0.00    +0.000 A 
ATOM     21  C   UNL     1       4.367  -0.108   0.743  0.00  0.00    +0.000 A 
ATOM     22  C   UNL     1       2.993  -0.012   0.503  0.00  0.00    +0.000 A 
ENDBRANCH  16  17
ENDBRANCH   2  16
BRANCH   4  23
ATOM     23  C   UNL     1       0.199   2.948  -0.925  0.00  0.00    +0.000 C 
BRANCH  23  24
ATOM     24  O   UNL     1       1.545   3.173  -0.611  0.00  0.00    +0.000 OA
ATOM     25  H   UNL     1       1.971   3.508  -1.442  0.00  0.00    +0.000 HD
ENDBRANCH  23  24
ENDBRANCH   4  23
TORSDOF 8
