REMARK  Name = 4282259
REMARK  9 active torsions:
REMARK  status: ('A' for Active; 'I' for Inactive)
REMARK    1  A    between atoms: O_2  and  C_3
REMARK    2  A    between atoms: C_3  and  C_37
REMARK    3  A    between atoms: N_4  and  C_5
REMARK    4  A    between atoms: C_7  and  O_9
REMARK    5  A    between atoms: O_9  and  C_10
REMARK    6  A    between atoms: C_22  and  C_24
REMARK    7  A    between atoms: C_24  and  O_27
REMARK    8  A    between atoms: C_29  and  O_31
REMARK    9  A    between atoms: C_33  and  O_35
REMARK                            x       y       z     vdW  Elec       q    Type
REMARK                         _______ _______ _______ _____ _____    ______ ____
ROOT
ATOM      1  C   UNL     1       0.362   1.159   0.230  0.00  0.00    +0.000 C 
ATOM      2  C   UNL     1      -0.411  -0.132   0.573  0.00  0.00    +0.000 C 
ATOM      3  O   UNL     1       0.264  -1.261   0.044  0.00  0.00    +0.000 OA
ATOM      4  C   UNL     1       1.516  -1.435   0.684  0.00  0.00    +0.000 C 
ATOM      5  C   UNL     1       2.457  -0.252   0.349  0.00  0.00    +0.000 C 
ATOM      6  C   UNL     1       1.795   1.072   0.788  0.00  0.00    +0.000 C 
ENDROOT
BRANCH   1   8
ATOM      7  C   UNL     1      -1.132   3.141   0.200  0.00  0.00    +0.000 C 
ATOM      8  N   UNL     1      -0.316   2.325   0.808  0.00  0.00    +0.000 NA
ATOM      9  C   UNL     1      -1.467   3.015  -1.258  0.00  0.00    +0.000 C 
BRANCH   7  11
ATOM     10  H   UNL     1      -1.497   4.319   1.904  0.00  0.00    +0.000 HD
ATOM     11  O   UNL     1      -1.700   4.189   0.919  0.00  0.00    +0.000 OA
ENDBRANCH   7  11
ENDBRANCH   1   8
BRANCH   5  12
ATOM     12  O   UNL     1       2.713  -0.222  -1.032  0.00  0.00    +0.000 OA
ATOM     13  H   UNL     1       3.514   0.349  -1.163  0.00  0.00    +0.000 HD
ENDBRANCH   5  12
BRANCH   6  14
ATOM     14  O   UNL     1       1.768   1.154   2.192  0.00  0.00    +0.000 OA
ATOM     15  H   UNL     1       2.690   1.377   2.484  0.00  0.00    +0.000 HD
ENDBRANCH   6  14
BRANCH   2  16
ATOM     16  O   UNL     1      -1.714  -0.062  -0.002  0.00  0.00    +0.000 OA
BRANCH  16  17
ATOM     17  C   UNL     1      -2.734  -1.005   0.200  0.00  0.00    +0.000 A 
ATOM     18  C   UNL     1      -3.958  -0.806  -0.452  0.00  0.00    +0.000 A 
ATOM     19  C   UNL     1      -5.006  -1.716  -0.285  0.00  0.00    +0.000 A 
ATOM     20  C   UNL     1      -4.839  -2.832   0.538  0.00  0.00    +0.000 A 
ATOM     21  C   UNL     1      -3.623  -3.040   1.195  0.00  0.00    +0.000 A 
ATOM     22  C   UNL     1      -2.572  -2.132   1.030  0.00  0.00    +0.000 A 
ENDBRANCH  16  17
ENDBRANCH   2  16
BRANCH   4  23
ATOM     23  C   UNL     1       2.112  -2.779   0.237  0.00  0.00    +0.000 C 
BRANCH  23  24
ATOM     24  O   UNL     1       3.338  -3.022   0.873  0.00  0.00    +0.000 OA
ATOM     25  H   UNL     1       3.127  -3.278   1.809  0.00  0.00    +0.000 HD
ENDBRANCH  23  24
ENDBRANCH   4  23
TORSDOF 8
