ATOM      1  C   UNL     1      90.842  20.927-105.326  0.00  0.00    +0.000 C 
ATOM      2  C   UNL     1      90.205  20.109-104.181  0.00  0.00    +0.000 C 
ATOM      3  C   UNL     1      89.345  21.039-103.315  0.00  0.00    +0.000 C 
ATOM      4  O   UNL     1      88.645  20.295-102.337  0.00  0.00    +0.000 OA
ATOM      5  C   UNL     1      87.831  21.141-101.527  0.00  0.00    +0.000 C 
ATOM      6  O   UNL     1      86.896  21.896-102.294  0.00  0.00    +0.000 OA
ATOM      7  C   UNL     1      87.533  22.680-103.285  0.00  0.00    +0.000 C 
ATOM      8  C   UNL     1      88.360  21.797-104.205  0.00  0.00    +0.000 C 
ATOM      9  O   UNL     1      89.060  22.588-105.148  0.00  0.00    +0.000 OA
ATOM     10  C   UNL     1      89.755  21.752-106.064  0.00  0.00    +0.000 C 
ENDROOT
BRANCH   5  11
ATOM     11  C   UNL     1      88.625  21.983-100.537  0.00  0.00    +0.000 A 
ATOM     12  C   UNL     1      88.085  23.174-100.017  0.00  0.00    +0.000 A 
ATOM     13  C   UNL     1      88.790  23.915 -99.063  0.00  0.00    +0.000 A 
ATOM     14  C   UNL     1      90.027  23.463 -98.598  0.00  0.00    +0.000 A 
ATOM     15  C   UNL     1      90.555  22.261 -99.075  0.00  0.00    +0.000 A 
ATOM     16  C   UNL     1      89.853  21.516-100.028  0.00  0.00    +0.000 A 
ENDBRANCH   5  11
BRANCH   1  18
ATOM     17  C   UNL     1      90.968  19.347-107.244  0.00  0.00    +0.000 C 
ATOM     18  N   UNL     1      91.502  20.005-106.253  0.00  0.00    +0.000 NA
BRANCH  17  19
ATOM     19  C   UNL     1      91.815  18.434-108.048  0.00  0.00    +0.000 A 
ATOM     20  C   UNL     1      92.774  17.603-107.434  0.00  0.00    +0.000 A 
ATOM     21  C   UNL     1      93.568  16.745-108.203  0.00  0.00    +0.000 A 
ATOM     22  C   UNL     1      93.415  16.706-109.590  0.00  0.00    +0.000 A 
ATOM     23  C   UNL     1      92.467  17.522-110.211  0.00  0.00    +0.000 A 
ATOM     24  C   UNL     1      91.671  18.381-109.448  0.00  0.00    +0.000 A 
ENDBRANCH  17  19
BRANCH  17  26
ATOM     25  H   UNL     1      88.957  18.719-107.597  0.00  0.00    +0.000 HD
ATOM     26  O   UNL     1      89.616  19.484-107.579  0.00  0.00    +0.000 OA
ENDBRANCH  17  26
ENDBRANCH   1  18
BRANCH  10  27
ATOM     27  O   UNL     1      90.381  22.565-107.038  0.00  0.00    +0.000 OA
ATOM     28  C   UNL     1      91.014  23.665-106.423  0.00  0.00    +0.000 C 
ENDBRANCH  10  27
BRANCH   2  29
ATOM     29  O   UNL     1      89.392  19.082-104.726  0.00  0.00    +0.000 OA
BRANCH  29  30
ATOM     30  S   UNL     1      89.765  17.588-104.013  0.00  0.00    +0.000 S 
ATOM     31  O   UNL     1      90.734  16.822-104.870  0.00  0.00    +0.000 OA
ATOM     32  O   UNL     1      90.355  17.802-102.647  0.00  0.00    +0.000 OA
ATOM     33  C   UNL     1      88.265  16.648-103.858  0.00  0.00    +0.000 C 
ENDBRANCH  29  30
ENDBRANCH   2  29
TORSDOF 7
ENDMDL