ATOM      1  C   UNL     1      34.116   7.751 -57.595  0.00  0.00    +0.000 C 
ATOM      2  C   UNL     1      32.903   8.582 -58.079  0.00  0.00    +0.000 C 
ATOM      3  C   UNL     1      33.253   9.442 -59.324  0.00  0.00    +0.000 C 
ATOM      4  O   UNL     1      32.584   9.001 -60.494  0.00  0.00    +0.000 OA
ATOM      5  C   UNL     1      33.093   9.634 -61.673  0.00  0.00    +0.000 C 
ATOM      6  O   UNL     1      33.834  10.824 -61.407  0.00  0.00    +0.000 OA
ATOM      7  C   UNL     1      35.009  10.541 -60.658  0.00  0.00    +0.000 C 
ATOM      8  C   UNL     1      34.762   9.476 -59.577  0.00  0.00    +0.000 C 
ATOM      9  O   UNL     1      35.433   9.766 -58.373  0.00  0.00    +0.000 OA
ATOM     10  C   UNL     1      35.399   8.648 -57.481  0.00  0.00    +0.000 C 
ENDROOT
BRANCH   5  11
ATOM     11  C   UNL     1      31.933   9.985 -62.565  0.00  0.00    +0.000 A 
ATOM     12  C   UNL     1      32.053   9.843 -63.959  0.00  0.00    +0.000 A 
ATOM     13  C   UNL     1      30.978  10.161 -64.795  0.00  0.00    +0.000 A 
ATOM     14  C   UNL     1      29.776  10.616 -64.248  0.00  0.00    +0.000 A 
ATOM     15  C   UNL     1      29.644  10.750 -62.864  0.00  0.00    +0.000 A 
ATOM     16  C   UNL     1      30.717  10.433 -62.024  0.00  0.00    +0.000 A 
ENDBRANCH   5  11
BRANCH   1  18
ATOM     17  C   UNL     1      34.245   5.376 -58.221  0.00  0.00    +0.000 C 
ATOM     18  N   UNL     1      34.378   6.636 -58.513  0.00  0.00    +0.000 NA
BRANCH  17  19
ATOM     19  C   UNL     1      34.502   4.360 -59.269  0.00  0.00    +0.000 A 
ATOM     20  C   UNL     1      33.512   3.412 -59.596  0.00  0.00    +0.000 A 
ATOM     21  C   UNL     1      33.747   2.453 -60.586  0.00  0.00    +0.000 A 
ATOM     22  C   UNL     1      34.969   2.432 -61.262  0.00  0.00    +0.000 A 
ATOM     23  C   UNL     1      35.955   3.370 -60.952  0.00  0.00    +0.000 A 
ATOM     24  C   UNL     1      35.725   4.331 -59.963  0.00  0.00    +0.000 A 
ENDBRANCH  17  19
BRANCH  17  26
ATOM     25  H   UNL     1      34.525   4.815 -56.196  0.00  0.00    +0.000 HD
ATOM     26  O   UNL     1      33.857   4.995 -56.934  0.00  0.00    +0.000 OA
ENDBRANCH  17  26
ENDBRANCH   1  18
BRANCH  10  27
ATOM     27  O   UNL     1      35.473   9.132 -56.151  0.00  0.00    +0.000 OA
ATOM     28  C   UNL     1      35.268  10.529 -56.124  0.00  0.00    +0.000 C 
ENDBRANCH  10  27
BRANCH   2  29
ATOM     29  O   UNL     1      31.814   7.719 -58.351  0.00  0.00    +0.000 OA
BRANCH  29  30
ATOM     30  S   UNL     1      30.812   7.591 -56.988  0.00  0.00    +0.000 S 
ATOM     31  O   UNL     1      30.341   8.945 -56.535  0.00  0.00    +0.000 OA
ATOM     32  O   UNL     1      31.553   6.914 -55.869  0.00  0.00    +0.000 OA
ATOM     33  C   UNL     1      29.396   6.610 -57.425  0.00  0.00    +0.000 C 
ENDBRANCH  29  30
ENDBRANCH   2  29
TORSDOF 7
ENDMDL