ATOM      1  C   UNL     1      89.360  20.825-104.481  0.00  0.00    +0.000 C 
ATOM      2  C   UNL     1      89.139  22.339-104.708  0.00  0.00    +0.000 C 
ATOM      3  C   UNL     1      88.184  22.862-103.618  0.00  0.00    +0.000 C 
ATOM      4  O   UNL     1      88.051  24.268-103.701  0.00  0.00    +0.000 OA
ATOM      5  C   UNL     1      87.366  24.820-102.575  0.00  0.00    +0.000 C 
ATOM      6  O   UNL     1      86.738  23.843-101.754  0.00  0.00    +0.000 OA
ATOM      7  C   UNL     1      87.716  22.999-101.174  0.00  0.00    +0.000 C 
ATOM      8  C   UNL     1      88.696  22.450-102.227  0.00  0.00    +0.000 C 
ATOM      9  O   UNL     1      88.783  21.040-102.131  0.00  0.00    +0.000 OA
ATOM     10  C   UNL     1      89.777  20.549-103.020  0.00  0.00    +0.000 C 
ENDROOT
BRANCH   5  11
ATOM     11  C   UNL     1      86.313  25.790-103.048  0.00  0.00    +0.000 A 
ATOM     12  C   UNL     1      86.453  26.422-104.299  0.00  0.00    +0.000 A 
ATOM     13  C   UNL     1      85.508  27.359-104.727  0.00  0.00    +0.000 A 
ATOM     14  C   UNL     1      84.418  27.677-103.909  0.00  0.00    +0.000 A 
ATOM     15  C   UNL     1      84.285  27.076-102.653  0.00  0.00    +0.000 A 
ATOM     16  C   UNL     1      85.233  26.146-102.218  0.00  0.00    +0.000 A 
ENDBRANCH   5  11
BRANCH   1  18
ATOM     17  C   UNL     1      90.409  19.100-105.865  0.00  0.00    +0.000 C 
ATOM     18  N   UNL     1      90.388  20.309-105.387  0.00  0.00    +0.000 NA
BRANCH  17  19
ATOM     19  C   UNL     1      91.501  18.701-106.785  0.00  0.00    +0.000 A 
ATOM     20  C   UNL     1      91.782  19.452-107.942  0.00  0.00    +0.000 A 
ATOM     21  C   UNL     1      92.807  19.063-108.810  0.00  0.00    +0.000 A 
ATOM     22  C   UNL     1      93.559  17.919-108.538  0.00  0.00    +0.000 A 
ATOM     23  C   UNL     1      93.285  17.158-107.399  0.00  0.00    +0.000 A 
ATOM     24  C   UNL     1      92.260  17.542-106.528  0.00  0.00    +0.000 A 
ENDBRANCH  17  19
BRANCH  17  26
ATOM     25  H   UNL     1      88.973  17.569-106.177  0.00  0.00    +0.000 HD
ATOM     26  O   UNL     1      89.404  18.195-105.508  0.00  0.00    +0.000 OA
ENDBRANCH  17  26
ENDBRANCH   1  18
BRANCH  10  27
ATOM     27  O   UNL     1      89.906  19.150-102.851  0.00  0.00    +0.000 OA
ATOM     28  C   UNL     1      88.852  18.658-102.052  0.00  0.00    +0.000 C 
ENDBRANCH  10  27
BRANCH   2  29
ATOM     29  O   UNL     1      90.384  23.014-104.628  0.00  0.00    +0.000 OA
BRANCH  29  30
ATOM     30  S   UNL     1      90.719  23.853-106.069  0.00  0.00    +0.000 S 
ATOM     31  O   UNL     1      90.470  22.925-107.225  0.00  0.00    +0.000 OA
ATOM     32  O   UNL     1      92.156  24.298-106.115  0.00  0.00    +0.000 OA
ATOM     33  C   UNL     1      89.654  25.268-106.243  0.00  0.00    +0.000 C 
ENDBRANCH  29  30
ENDBRANCH   2  29
TORSDOF 7
ENDMDL