ATOM      1  C   UNL     1      31.165   2.780 -58.978  0.00  0.00    +0.000 C 
ATOM      2  O   UNL     1      30.923   4.084 -58.466  0.00  0.00    +0.000 OA
ATOM      3  C   UNL     1      32.144   4.789 -58.334  0.00  0.00    +0.000 C 
ATOM      4  C   UNL     1      31.917   6.148 -57.646  0.00  0.00    +0.000 C 
ATOM      5  O   UNL     1      32.365   7.223 -58.452  0.00  0.00    +0.000 OA
ATOM      6  C   UNL     1      33.721   7.013 -58.832  0.00  0.00    +0.000 C 
ATOM      7  O   UNL     1      33.935   5.817 -59.589  0.00  0.00    +0.000 OA
ATOM      8  C   UNL     1      32.754   5.052 -59.720  0.00  0.00    +0.000 C 
ATOM      9  C   UNL     1      33.041   3.716 -60.423  0.00  0.00    +0.000 C 
ATOM     10  C   UNL     1      31.752   2.862 -60.410  0.00  0.00    +0.000 C 
ENDROOT
BRANCH   6  11
ATOM     11  C   UNL     1      34.193   8.221 -59.611  0.00  0.00    +0.000 A 
ATOM     12  C   UNL     1      33.294   9.022 -60.353  0.00  0.00    +0.000 A 
ATOM     13  C   UNL     1      33.765  10.131 -61.062  0.00  0.00    +0.000 A 
ATOM     14  C   UNL     1      35.126  10.464 -61.020  0.00  0.00    +0.000 A 
ATOM     15  C   UNL     1      36.018   9.694 -60.265  0.00  0.00    +0.000 A 
ATOM     16  C   UNL     1      35.553   8.580 -59.560  0.00  0.00    +0.000 A 
ENDBRANCH   6  11
BRANCH  10  17
ATOM     17  N   UNL     1      32.026   1.521 -60.938  0.00  0.00    +0.000 N 
ATOM     18  C   UNL     1      31.149   0.879 -61.879  0.00  0.00    +0.000 C 
ATOM     19  O   UNL     1      30.015   1.378 -62.116  0.00  0.00    +0.000 OA
ATOM     20  H   UNL     1      32.852   0.993 -60.573  0.00  0.00    +0.000 HD
BRANCH  18  21
ATOM     21  C   UNL     1      31.549  -0.374 -62.562  0.00  0.00    +0.000 A 
ATOM     22  C   UNL     1      30.708  -1.501 -62.513  0.00  0.00    +0.000 A 
ATOM     23  C   UNL     1      31.075  -2.688 -63.156  0.00  0.00    +0.000 A 
ATOM     24  C   UNL     1      32.279  -2.761 -63.858  0.00  0.00    +0.000 A 
ATOM     25  C   UNL     1      33.116  -1.644 -63.928  0.00  0.00    +0.000 A 
ATOM     26  C   UNL     1      32.753  -0.454 -63.288  0.00  0.00    +0.000 A 
ENDBRANCH  18  21
ENDBRANCH  10  17
BRANCH   1  28
ATOM     27  C   UNL     1      29.822   1.197 -57.946  0.00  0.00    +0.000 C 
ATOM     28  O   UNL     1      29.938   2.077 -59.044  0.00  0.00    +0.000 OA
ENDBRANCH   1  28
BRANCH   9  29
ATOM     29  O   UNL     1      34.073   3.025 -59.741  0.00  0.00    +0.000 OA
BRANCH  29  30
ATOM     30  S   UNL     1      35.405   2.783 -60.763  0.00  0.00    +0.000 S 
ATOM     31  C   UNL     1      35.556   1.043 -61.096  0.00  0.00    +0.000 C 
ATOM     32  O   UNL     1      36.669   3.263 -60.099  0.00  0.00    +0.000 OA
ATOM     33  O   UNL     1      35.208   3.511 -62.066  0.00  0.00    +0.000 OA
ENDBRANCH  29  30
ENDBRANCH   9  29
TORSDOF 6
ENDMDL