ATOM      1  C   UNL     1      31.673   3.489 -59.795  0.00  0.00    +0.000 A 
ATOM      2  C   UNL     1      32.839   3.979 -59.245  0.00  0.00    +0.000 A 
ATOM      3  N   UNL     1      32.634   5.294 -59.045  0.00  0.00    +0.000 N 
ATOM      4  N   UNL     1      31.411   5.593 -59.453  0.00  0.00    +0.000 NA
ATOM      5  N   UNL     1      30.799   4.510 -59.911  0.00  0.00    +0.000 NA
ENDROOT
BRANCH   1   8
ATOM      6  C   UNL     1      30.599   1.295 -57.897  0.00  0.00    +0.000 C 
ATOM      7  N   UNL     1      30.968   1.125 -59.304  0.00  0.00    +0.000 N 
ATOM      8  C   UNL     1      31.403   2.085 -60.157  0.00  0.00    +0.000 A 
ATOM      9  N   UNL     1      31.585   1.622 -61.413  0.00  0.00    +0.000 NA
ATOM     10  C   UNL     1      31.268   0.313 -61.346  0.00  0.00    +0.000 A 
ATOM     11  C   UNL     1      30.890  -0.001 -60.047  0.00  0.00    +0.000 A 
BRANCH  10  12
ATOM     12  C   UNL     1      31.383  -0.597 -62.508  0.00  0.00    +0.000 A 
ATOM     13  C   UNL     1      30.245  -1.003 -63.231  0.00  0.00    +0.000 A 
ATOM     14  C   UNL     1      30.371  -1.878 -64.314  0.00  0.00    +0.000 A 
ATOM     15  C   UNL     1      31.630  -2.369 -64.677  0.00  0.00    +0.000 A 
ATOM     16  F   UNL     1      31.749  -3.222 -65.725  0.00  0.00    +0.000 F 
ATOM     17  C   UNL     1      32.762  -1.989 -63.952  0.00  0.00    +0.000 A 
ATOM     18  C   UNL     1      32.640  -1.112 -62.868  0.00  0.00    +0.000 A 
ENDBRANCH  10  12
BRANCH  11  19
ATOM     19  C   UNL     1      30.409  -1.312 -59.559  0.00  0.00    +0.000 A 
ATOM     20  C   UNL     1      29.038  -1.604 -59.546  0.00  0.00    +0.000 A 
ATOM     21  C   UNL     1      28.607  -2.857 -59.105  0.00  0.00    +0.000 A 
ATOM     22  N   UNL     1      29.512  -3.784 -58.696  0.00  0.00    +0.000 NA
ATOM     23  C   UNL     1      30.847  -3.529 -58.701  0.00  0.00    +0.000 A 
ATOM     24  C   UNL     1      31.321  -2.288 -59.135  0.00  0.00    +0.000 A 
ENDBRANCH  11  19
ENDBRANCH   1   8
BRANCH   3  25
ATOM     25  C   UNL     1      33.582   6.278 -58.510  0.00  0.00    +0.000 C 
ATOM     26  C   UNL     1      33.246   7.700 -59.003  0.00  0.00    +0.000 C 
ATOM     27  O   UNL     1      34.201   8.622 -58.505  0.00  0.00    +0.000 OA
ATOM     28  C   UNL     1      34.111   8.727 -57.094  0.00  0.00    +0.000 C 
ATOM     29  C   UNL     1      34.488   7.372 -56.430  0.00  0.00    +0.000 C 
ATOM     30  C   UNL     1      33.589   6.243 -56.974  0.00  0.00    +0.000 C 
BRANCH  26  31
ATOM     31  O   UNL     1      33.285   7.717 -60.405  0.00  0.00    +0.000 OA
ATOM     32  H   UNL     1      32.966   6.826 -60.706  0.00  0.00    +0.000 HD
ENDBRANCH  26  31
BRANCH  29  33
ATOM     33  O   UNL     1      34.394   7.441 -55.028  0.00  0.00    +0.000 OA
ATOM     34  H   UNL     1      34.553   8.384 -54.761  0.00  0.00    +0.000 HD
ENDBRANCH  29  33
BRANCH  30  35
ATOM     35  O   UNL     1      34.069   4.995 -56.542  0.00  0.00    +0.000 OA
ATOM     36  H   UNL     1      35.043   5.099 -56.385  0.00  0.00    +0.000 HD
ENDBRANCH  30  35
BRANCH  28  37
ATOM     37  C   UNL     1      35.055   9.855 -56.645  0.00  0.00    +0.000 C 
BRANCH  37  38
ATOM     38  O   UNL     1      36.281   9.798 -57.326  0.00  0.00    +0.000 OA
ATOM     39  H   UNL     1      36.178  10.348 -58.147  0.00  0.00    +0.000 HD
ENDBRANCH  37  38
ENDBRANCH  28  37
ENDBRANCH   3  25
TORSDOF 9
ENDMDL