ATOM      1  C   UNL     1      89.927  20.506-103.667  0.00  0.00    +0.000 A 
ATOM      2  C   UNL     1      90.435  20.350-104.940  0.00  0.00    +0.000 A 
ATOM      3  N   UNL     1      90.530  19.023-105.143  0.00  0.00    +0.000 N 
ATOM      4  N   UNL     1      90.108  18.402-104.054  0.00  0.00    +0.000 NA
ATOM      5  N   UNL     1      89.729  19.281-103.138  0.00  0.00    +0.000 NA
ENDROOT
BRANCH   1   8
ATOM      6  C   UNL     1      87.972  22.663-104.714  0.00  0.00    +0.000 C 
ATOM      7  N   UNL     1      88.782  22.739-103.495  0.00  0.00    +0.000 N 
ATOM      8  C   UNL     1      89.613  21.786-103.005  0.00  0.00    +0.000 A 
ATOM      9  N   UNL     1      90.156  22.130-101.818  0.00  0.00    +0.000 NA
ATOM     10  C   UNL     1      89.662  23.358-101.556  0.00  0.00    +0.000 A 
ATOM     11  C   UNL     1      88.816  23.740-102.589  0.00  0.00    +0.000 A 
BRANCH  10  12
ATOM     12  C   UNL     1      90.049  24.137-100.358  0.00  0.00    +0.000 A 
ATOM     13  C   UNL     1      90.786  25.331-100.473  0.00  0.00    +0.000 A 
ATOM     14  C   UNL     1      91.160  26.042 -99.329  0.00  0.00    +0.000 A 
ATOM     15  C   UNL     1      90.815  25.564 -98.060  0.00  0.00    +0.000 A 
ATOM     16  F   UNL     1      91.183  26.253 -96.952  0.00  0.00    +0.000 F 
ATOM     17  C   UNL     1      90.103  24.368 -97.936  0.00  0.00    +0.000 A 
ATOM     18  C   UNL     1      89.726  23.653 -99.078  0.00  0.00    +0.000 A 
ENDBRANCH  10  12
BRANCH  11  19
ATOM     19  C   UNL     1      88.022  24.986-102.666  0.00  0.00    +0.000 A 
ATOM     20  C   UNL     1      88.467  26.063-103.446  0.00  0.00    +0.000 A 
ATOM     21  C   UNL     1      87.689  27.220-103.525  0.00  0.00    +0.000 A 
ATOM     22  N   UNL     1      86.510  27.297-102.853  0.00  0.00    +0.000 NA
ATOM     23  C   UNL     1      86.055  26.267-102.092  0.00  0.00    +0.000 A 
ATOM     24  C   UNL     1      86.801  25.091-101.986  0.00  0.00    +0.000 A 
ENDBRANCH  11  19
ENDBRANCH   1   8
BRANCH   3  25
ATOM     25  C   UNL     1      91.046  18.333-106.331  0.00  0.00    +0.000 C 
ATOM     26  C   UNL     1      90.921  19.219-107.587  0.00  0.00    +0.000 C 
ATOM     27  O   UNL     1      91.387  18.513-108.725  0.00  0.00    +0.000 OA
ATOM     28  C   UNL     1      92.781  18.266-108.627  0.00  0.00    +0.000 C 
ATOM     29  C   UNL     1      93.074  17.320-107.429  0.00  0.00    +0.000 C 
ATOM     30  C   UNL     1      92.512  17.921-106.125  0.00  0.00    +0.000 C 
BRANCH  26  31
ATOM     31  O   UNL     1      89.571  19.549-107.779  0.00  0.00    +0.000 OA
ATOM     32  H   UNL     1      89.518  20.540-107.756  0.00  0.00    +0.000 HD
ENDBRANCH  26  31
BRANCH  29  33
ATOM     33  O   UNL     1      94.453  17.068-107.297  0.00  0.00    +0.000 OA
ATOM     34  H   UNL     1      94.636  16.179-107.699  0.00  0.00    +0.000 HD
ENDBRANCH  29  33
BRANCH  30  35
ATOM     35  O   UNL     1      92.584  16.975-105.088  0.00  0.00    +0.000 OA
ATOM     36  H   UNL     1      93.299  17.280-104.469  0.00  0.00    +0.000 HD
ENDBRANCH  30  35
BRANCH  28  37
ATOM     37  C   UNL     1      93.242  17.648-109.958  0.00  0.00    +0.000 C 
BRANCH  37  38
ATOM     38  O   UNL     1      93.192  16.246-109.917  0.00  0.00    +0.000 OA
ATOM     39  H   UNL     1      92.475  16.005-109.273  0.00  0.00    +0.000 HD
ENDBRANCH  37  38
ENDBRANCH  28  37
ENDBRANCH   3  25
TORSDOF 9
ENDMDL