ATOM      1  C   UNL     1      31.719   3.467 -59.815  0.00  0.00    +0.000 A 
ATOM      2  C   UNL     1      32.910   4.005 -59.369  0.00  0.00    +0.000 A 
ATOM      3  N   UNL     1      32.665   5.304 -59.124  0.00  0.00    +0.000 N 
ATOM      4  N   UNL     1      31.389   5.546 -59.382  0.00  0.00    +0.000 NA
ATOM      5  N   UNL     1      30.787   4.443 -59.801  0.00  0.00    +0.000 NA
ENDROOT
BRANCH   1   8
ATOM      6  C   UNL     1      30.709   1.241 -57.875  0.00  0.00    +0.000 C 
ATOM      7  N   UNL     1      30.936   1.121 -59.317  0.00  0.00    +0.000 N 
ATOM      8  C   UNL     1      31.423   2.065 -60.162  0.00  0.00    +0.000 A 
ATOM      9  N   UNL     1      31.635   1.587 -61.406  0.00  0.00    +0.000 NA
ATOM     10  C   UNL     1      31.239   0.300 -61.355  0.00  0.00    +0.000 A 
ATOM     11  C   UNL     1      30.802   0.007 -60.070  0.00  0.00    +0.000 A 
BRANCH  10  12
ATOM     12  C   UNL     1      31.266  -0.594 -62.534  0.00  0.00    +0.000 A 
ATOM     13  C   UNL     1      32.483  -1.159 -62.949  0.00  0.00    +0.000 A 
ATOM     14  C   UNL     1      32.529  -1.998 -64.067  0.00  0.00    +0.000 A 
ATOM     15  C   UNL     1      31.363  -2.269 -64.787  0.00  0.00    +0.000 A 
ATOM     16  F   UNL     1      31.409  -3.081 -65.872  0.00  0.00    +0.000 F 
ATOM     17  C   UNL     1      30.151  -1.694 -64.395  0.00  0.00    +0.000 A 
ATOM     18  C   UNL     1      30.101  -0.855 -63.278  0.00  0.00    +0.000 A 
ENDBRANCH  10  12
BRANCH  11  19
ATOM     19  C   UNL     1      30.371  -1.313 -59.560  0.00  0.00    +0.000 A 
ATOM     20  C   UNL     1      31.320  -2.275 -59.183  0.00  0.00    +0.000 A 
ATOM     21  C   UNL     1      30.889  -3.518 -58.716  0.00  0.00    +0.000 A 
ATOM     22  N   UNL     1      29.560  -3.792 -58.627  0.00  0.00    +0.000 NA
ATOM     23  C   UNL     1      28.620  -2.877 -58.985  0.00  0.00    +0.000 A 
ATOM     24  C   UNL     1      29.006  -1.622 -59.459  0.00  0.00    +0.000 A 
ENDBRANCH  11  19
ENDBRANCH   1   8
BRANCH   3  25
ATOM     25  C   UNL     1      33.614   6.285 -58.592  0.00  0.00    +0.000 C 
ATOM     26  C   UNL     1      33.230   7.710 -59.043  0.00  0.00    +0.000 C 
ATOM     27  O   UNL     1      34.152   8.656 -58.526  0.00  0.00    +0.000 OA
ATOM     28  C   UNL     1      34.075   8.709 -57.110  0.00  0.00    +0.000 C 
ATOM     29  C   UNL     1      34.520   7.358 -56.496  0.00  0.00    +0.000 C 
ATOM     30  C   UNL     1      33.649   6.215 -57.057  0.00  0.00    +0.000 C 
BRANCH  26  31
ATOM     31  O   UNL     1      33.225   7.786 -60.444  0.00  0.00    +0.000 OA
ATOM     32  H   UNL     1      32.657   8.562 -60.695  0.00  0.00    +0.000 HD
ENDBRANCH  26  31
BRANCH  29  33
ATOM     33  O   UNL     1      34.385   7.402 -55.098  0.00  0.00    +0.000 OA
ATOM     34  H   UNL     1      33.908   6.575 -54.826  0.00  0.00    +0.000 HD
ENDBRANCH  29  33
BRANCH  30  35
ATOM     35  O   UNL     1      34.173   4.973 -56.665  0.00  0.00    +0.000 OA
ATOM     36  H   UNL     1      34.847   5.152 -55.958  0.00  0.00    +0.000 HD
ENDBRANCH  30  35
BRANCH  28  37
ATOM     37  C   UNL     1      34.973   9.864 -56.634  0.00  0.00    +0.000 C 
BRANCH  37  38
ATOM     38  O   UNL     1      36.218   9.842 -57.281  0.00  0.00    +0.000 OA
ATOM     39  H   UNL     1      36.539   8.903 -57.250  0.00  0.00    +0.000 HD
ENDBRANCH  37  38
ENDBRANCH  28  37
ENDBRANCH   3  25
TORSDOF 9
ENDMDL