ATOM      1  C   UNL     1      87.227  20.859-101.733  0.00  0.00    +0.000 A 
ATOM      2  C   UNL     1      86.936  19.687-102.403  0.00  0.00    +0.000 A 
ATOM      3  N   UNL     1      86.646  18.777-101.456  0.00  0.00    +0.000 N 
ATOM      4  N   UNL     1      86.731  19.363-100.272  0.00  0.00    +0.000 NA
ATOM      5  N   UNL     1      87.080  20.634-100.411  0.00  0.00    +0.000 NA
ENDROOT
BRANCH   1   8
ATOM      6  C   UNL     1      90.034  22.221-101.817  0.00  0.00    +0.000 C 
ATOM      7  N   UNL     1      88.783  22.738-102.376  0.00  0.00    +0.000 N 
ATOM      8  C   UNL     1      87.548  22.181-102.302  0.00  0.00    +0.000 A 
ATOM      9  N   UNL     1      86.587  22.982-102.808  0.00  0.00    +0.000 NA
ATOM     10  C   UNL     1      87.242  24.075-103.247  0.00  0.00    +0.000 A 
ATOM     11  C   UNL     1      88.598  23.929-102.987  0.00  0.00    +0.000 A 
BRANCH  10  12
ATOM     12  C   UNL     1      86.559  25.203-103.918  0.00  0.00    +0.000 A 
ATOM     13  C   UNL     1      85.886  26.164-103.147  0.00  0.00    +0.000 A 
ATOM     14  C   UNL     1      85.226  27.231-103.765  0.00  0.00    +0.000 A 
ATOM     15  C   UNL     1      85.222  27.340-105.158  0.00  0.00    +0.000 A 
ATOM     16  F   UNL     1      84.581  28.374-105.757  0.00  0.00    +0.000 F 
ATOM     17  C   UNL     1      85.871  26.376-105.935  0.00  0.00    +0.000 A 
ATOM     18  C   UNL     1      86.531  25.308-105.320  0.00  0.00    +0.000 A 
ENDBRANCH  10  12
BRANCH  11  19
ATOM     19  C   UNL     1      89.658  24.934-103.223  0.00  0.00    +0.000 A 
ATOM     20  C   UNL     1      90.380  24.935-104.426  0.00  0.00    +0.000 A 
ATOM     21  C   UNL     1      91.385  25.885-104.623  0.00  0.00    +0.000 A 
ATOM     22  N   UNL     1      91.658  26.800-103.655  0.00  0.00    +0.000 NA
ATOM     23  C   UNL     1      90.973  26.821-102.480  0.00  0.00    +0.000 A 
ATOM     24  C   UNL     1      89.961  25.888-102.242  0.00  0.00    +0.000 A 
ENDBRANCH  11  19
ENDBRANCH   1   8
BRANCH   3  25
ATOM     25  C   UNL     1      86.233  17.390-101.678  0.00  0.00    +0.000 C 
ATOM     26  C   UNL     1      84.726  17.220-101.391  0.00  0.00    +0.000 C 
ATOM     27  O   UNL     1      84.331  15.875-101.606  0.00  0.00    +0.000 OA
ATOM     28  C   UNL     1      84.463  15.527-102.975  0.00  0.00    +0.000 C 
ATOM     29  C   UNL     1      85.954  15.566-103.399  0.00  0.00    +0.000 C 
ATOM     30  C   UNL     1      86.539  16.966-103.123  0.00  0.00    +0.000 C 
BRANCH  26  31
ATOM     31  O   UNL     1      84.446  17.578-100.063  0.00  0.00    +0.000 OA
ATOM     32  H   UNL     1      83.716  18.252-100.088  0.00  0.00    +0.000 HD
ENDBRANCH  26  31
BRANCH  29  33
ATOM     33  O   UNL     1      86.067  15.277-104.770  0.00  0.00    +0.000 OA
ATOM     34  H   UNL     1      85.388  14.581-104.976  0.00  0.00    +0.000 HD
ENDBRANCH  29  33
BRANCH  30  35
ATOM     35  O   UNL     1      87.931  16.953-103.313  0.00  0.00    +0.000 OA
ATOM     36  H   UNL     1      88.260  16.077-102.981  0.00  0.00    +0.000 HD
ENDBRANCH  30  35
BRANCH  28  37
ATOM     37  C   UNL     1      83.865  14.122-103.162  0.00  0.00    +0.000 C 
BRANCH  37  38
ATOM     38  O   UNL     1      84.870  13.148-103.259  0.00  0.00    +0.000 OA
ATOM     39  H   UNL     1      85.509  13.465-103.951  0.00  0.00    +0.000 HD
ENDBRANCH  37  38
ENDBRANCH  28  37
ENDBRANCH   3  25
TORSDOF 9
ENDMDL