ATOM      1  C   UNL     1      87.477  21.197-102.731  0.00  0.00    +0.000 A 
ATOM      2  C   UNL     1      86.537  20.393-102.122  0.00  0.00    +0.000 A 
ATOM      3  N   UNL     1      86.884  19.128-102.408  0.00  0.00    +0.000 N 
ATOM      4  N   UNL     1      87.970  19.153-103.166  0.00  0.00    +0.000 NA
ATOM      5  N   UNL     1      88.355  20.404-103.377  0.00  0.00    +0.000 NA
ENDROOT
BRANCH   1   8
ATOM      6  C   UNL     1      89.714  22.976-101.533  0.00  0.00    +0.000 C 
ATOM      7  N   UNL     1      88.506  23.437-102.220  0.00  0.00    +0.000 N 
ATOM      8  C   UNL     1      87.502  22.673-102.716  0.00  0.00    +0.000 A 
ATOM      9  N   UNL     1      86.489  23.408-103.223  0.00  0.00    +0.000 NA
ATOM     10  C   UNL     1      86.876  24.689-103.055  0.00  0.00    +0.000 A 
ATOM     11  C   UNL     1      88.120  24.714-102.440  0.00  0.00    +0.000 A 
BRANCH  10  12
ATOM     12  C   UNL     1      86.059  25.838-103.504  0.00  0.00    +0.000 A 
ATOM     13  C   UNL     1      85.125  26.411-102.626  0.00  0.00    +0.000 A 
ATOM     14  C   UNL     1      84.338  27.491-103.036  0.00  0.00    +0.000 A 
ATOM     15  C   UNL     1      84.468  28.001-104.331  0.00  0.00    +0.000 A 
ATOM     16  F   UNL     1      83.704  29.048-104.728  0.00  0.00    +0.000 F 
ATOM     17  C   UNL     1      85.380  27.423-105.220  0.00  0.00    +0.000 A 
ATOM     18  C   UNL     1      86.168  26.343-104.813  0.00  0.00    +0.000 A 
ENDBRANCH  10  12
BRANCH  11  19
ATOM     19  C   UNL     1      88.867  25.914-102.008  0.00  0.00    +0.000 A 
ATOM     20  C   UNL     1      89.825  26.495-102.851  0.00  0.00    +0.000 A 
ATOM     21  C   UNL     1      90.535  27.615-102.416  0.00  0.00    +0.000 A 
ATOM     22  N   UNL     1      90.298  28.135-101.182  0.00  0.00    +0.000 NA
ATOM     23  C   UNL     1      89.379  27.591-100.343  0.00  0.00    +0.000 A 
ATOM     24  C   UNL     1      88.646  26.468-100.739  0.00  0.00    +0.000 A 
ENDBRANCH  11  19
ENDBRANCH   1   8
BRANCH   3  25
ATOM     25  C   UNL     1      86.151  17.917-102.026  0.00  0.00    +0.000 C 
ATOM     26  C   UNL     1      84.980  17.662-102.993  0.00  0.00    +0.000 C 
ATOM     27  O   UNL     1      84.272  16.486-102.633  0.00  0.00    +0.000 OA
ATOM     28  C   UNL     1      85.091  15.327-102.716  0.00  0.00    +0.000 C 
ATOM     29  C   UNL     1      86.268  15.414-101.711  0.00  0.00    +0.000 C 
ATOM     30  C   UNL     1      87.084  16.693-101.983  0.00  0.00    +0.000 C 
BRANCH  26  31
ATOM     31  O   UNL     1      85.425  17.599-104.327  0.00  0.00    +0.000 OA
ATOM     32  H   UNL     1      84.764  18.106-104.866  0.00  0.00    +0.000 HD
ENDBRANCH  26  31
BRANCH  29  33
ATOM     33  O   UNL     1      87.100  14.290-101.850  0.00  0.00    +0.000 OA
ATOM     34  H   UNL     1      87.038  13.780-101.001  0.00  0.00    +0.000 HD
ENDBRANCH  29  33
BRANCH  30  35
ATOM     35  O   UNL     1      88.090  16.864-101.015  0.00  0.00    +0.000 OA
ATOM     36  H   UNL     1      88.379  17.814-101.045  0.00  0.00    +0.000 HD
ENDBRANCH  30  35
BRANCH  28  37
ATOM     37  C   UNL     1      84.203  14.106-102.431  0.00  0.00    +0.000 C 
BRANCH  37  38
ATOM     38  O   UNL     1      84.868  12.923-102.781  0.00  0.00    +0.000 OA
ATOM     39  H   UNL     1      85.555  13.181-103.449  0.00  0.00    +0.000 HD
ENDBRANCH  37  38
ENDBRANCH  28  37
ENDBRANCH   3  25
TORSDOF 9
ENDMDL