ATOM      1  C   UNL     1      33.469  -0.427 -62.285  0.00  0.00    +0.000 A 
ATOM      2  C   UNL     1      33.075   0.640 -61.506  0.00  0.00    +0.000 A 
ATOM      3  N   UNL     1      34.205   1.242 -61.097  0.00  0.00    +0.000 N 
ATOM      4  N   UNL     1      35.237   0.570 -61.585  0.00  0.00    +0.000 NA
ATOM      5  N   UNL     1      34.816  -0.452 -62.316  0.00  0.00    +0.000 NA
ENDROOT
BRANCH   1   8
ATOM      6  C   UNL     1      31.558  -2.408 -60.860  0.00  0.00    +0.000 C 
ATOM      7  N   UNL     1      31.719  -2.236 -62.305  0.00  0.00    +0.000 N 
ATOM      8  C   UNL     1      32.576  -1.402 -62.942  0.00  0.00    +0.000 A 
ATOM      9  N   UNL     1      32.535  -1.538 -64.285  0.00  0.00    +0.000 NA
ATOM     10  C   UNL     1      31.603  -2.487 -64.506  0.00  0.00    +0.000 A 
ATOM     11  C   UNL     1      31.093  -2.919 -63.289  0.00  0.00    +0.000 A 
BRANCH  10  12
ATOM     12  C   UNL     1      31.216  -2.929 -65.864  0.00  0.00    +0.000 A 
ATOM     13  C   UNL     1      31.868  -4.028 -66.448  0.00  0.00    +0.000 A 
ATOM     14  C   UNL     1      31.524  -4.455 -67.733  0.00  0.00    +0.000 A 
ATOM     15  C   UNL     1      30.533  -3.781 -68.452  0.00  0.00    +0.000 A 
ATOM     16  F   UNL     1      30.200  -4.195 -69.700  0.00  0.00    +0.000 F 
ATOM     17  C   UNL     1      29.893  -2.673 -67.889  0.00  0.00    +0.000 A 
ATOM     18  C   UNL     1      30.236  -2.244 -66.604  0.00  0.00    +0.000 A 
ENDBRANCH  10  12
BRANCH  11  19
ATOM     19  C   UNL     1      30.107  -4.002 -63.080  0.00  0.00    +0.000 A 
ATOM     20  C   UNL     1      28.787  -3.697 -62.721  0.00  0.00    +0.000 A 
ATOM     21  C   UNL     1      27.877  -4.734 -62.507  0.00  0.00    +0.000 A 
ATOM     22  N   UNL     1      28.273  -6.028 -62.644  0.00  0.00    +0.000 NA
ATOM     23  C   UNL     1      29.547  -6.351 -62.988  0.00  0.00    +0.000 A 
ATOM     24  C   UNL     1      30.490  -5.344 -63.211  0.00  0.00    +0.000 A 
ENDBRANCH  11  19
ENDBRANCH   1   8
BRANCH   3  25
ATOM     25  C   UNL     1      34.299   2.394 -60.196  0.00  0.00    +0.000 C 
ATOM     26  C   UNL     1      35.153   3.509 -60.827  0.00  0.00    +0.000 C 
ATOM     27  O   UNL     1      35.241   4.632 -59.961  0.00  0.00    +0.000 OA
ATOM     28  C   UNL     1      33.968   5.218 -59.723  0.00  0.00    +0.000 C 
ATOM     29  C   UNL     1      33.031   4.220 -58.996  0.00  0.00    +0.000 C 
ATOM     30  C   UNL     1      32.902   2.932 -59.833  0.00  0.00    +0.000 C 
BRANCH  26  31
ATOM     31  O   UNL     1      34.657   3.879 -62.090  0.00  0.00    +0.000 OA
ATOM     32  H   UNL     1      33.704   3.604 -62.107  0.00  0.00    +0.000 HD
ENDBRANCH  26  31
BRANCH  29  33
ATOM     33  O   UNL     1      31.761   4.795 -58.824  0.00  0.00    +0.000 OA
ATOM     34  H   UNL     1      31.800   5.336 -57.993  0.00  0.00    +0.000 HD
ENDBRANCH  29  33
BRANCH  30  35
ATOM     35  O   UNL     1      32.153   1.958 -59.148  0.00  0.00    +0.000 OA
ATOM     36  H   UNL     1      31.972   1.216 -59.782  0.00  0.00    +0.000 HD
ENDBRANCH  30  35
BRANCH  28  37
ATOM     37  C   UNL     1      34.188   6.488 -58.886  0.00  0.00    +0.000 C 
BRANCH  37  38
ATOM     38  O   UNL     1      34.914   7.438 -59.615  0.00  0.00    +0.000 OA
ATOM     39  H   UNL     1      34.250   8.095 -59.949  0.00  0.00    +0.000 HD
ENDBRANCH  37  38
ENDBRANCH  28  37
ENDBRANCH   3  25
TORSDOF 9
ENDMDL