ATOM      1  C   UNL     1      89.874  16.483-103.987  0.00  0.00    +0.000 A 
ATOM      2  C   UNL     1      90.156  17.661-104.647  0.00  0.00    +0.000 A 
ATOM      3  N   UNL     1      91.100  17.363-105.555  0.00  0.00    +0.000 N 
ATOM      4  N   UNL     1      91.378  16.072-105.464  0.00  0.00    +0.000 NA
ATOM      5  N   UNL     1      90.643  15.510-104.515  0.00  0.00    +0.000 NA
ENDROOT
BRANCH   1   8
ATOM      6  C   UNL     1      89.491  18.314-101.517  0.00  0.00    +0.000 C 
ATOM      7  N   UNL     1      88.744  17.090-101.821  0.00  0.00    +0.000 N 
ATOM      8  C   UNL     1      88.873  16.302-102.918  0.00  0.00    +0.000 A 
ATOM      9  N   UNL     1      87.980  15.291-102.940  0.00  0.00    +0.000 NA
ATOM     10  C   UNL     1      87.268  15.436-101.805  0.00  0.00    +0.000 A 
ATOM     11  C   UNL     1      87.737  16.541-101.108  0.00  0.00    +0.000 A 
BRANCH  10  12
ATOM     12  C   UNL     1      86.184  14.507-101.415  0.00  0.00    +0.000 A 
ATOM     13  C   UNL     1      84.979  14.504-102.137  0.00  0.00    +0.000 A 
ATOM     14  C   UNL     1      83.946  13.629-101.786  0.00  0.00    +0.000 A 
ATOM     15  C   UNL     1      84.112  12.740-100.720  0.00  0.00    +0.000 A 
ATOM     16  F   UNL     1      83.110  11.893-100.381  0.00  0.00    +0.000 F 
ATOM     17  C   UNL     1      85.316  12.720-100.011  0.00  0.00    +0.000 A 
ATOM     18  C   UNL     1      86.351  13.593-100.358  0.00  0.00    +0.000 A 
ENDBRANCH  10  12
BRANCH  11  19
ATOM     19  C   UNL     1      87.187  17.091 -99.850  0.00  0.00    +0.000 A 
ATOM     20  C   UNL     1      86.152  18.034 -99.883  0.00  0.00    +0.000 A 
ATOM     21  C   UNL     1      85.658  18.555 -98.684  0.00  0.00    +0.000 A 
ATOM     22  N   UNL     1      86.184  18.152 -97.498  0.00  0.00    +0.000 NA
ATOM     23  C   UNL     1      87.192  17.242 -97.438  0.00  0.00    +0.000 A 
ATOM     24  C   UNL     1      87.714  16.696 -98.613  0.00  0.00    +0.000 A 
ENDBRANCH  11  19
ENDBRANCH   1   8
BRANCH   3  25
ATOM     25  C   UNL     1      91.709  18.286-106.520  0.00  0.00    +0.000 C 
ATOM     26  C   UNL     1      93.193  17.921-106.784  0.00  0.00    +0.000 C 
ATOM     27  O   UNL     1      93.278  16.928-107.788  0.00  0.00    +0.000 OA
ATOM     28  C   UNL     1      92.920  17.428-109.076  0.00  0.00    +0.000 C 
ATOM     29  C   UNL     1      91.801  18.514-109.056  0.00  0.00    +0.000 C 
ATOM     30  C   UNL     1      90.888  18.283-107.837  0.00  0.00    +0.000 C 
BRANCH  26  31
ATOM     31  O   UNL     1      93.802  17.436-105.617  0.00  0.00    +0.000 OA
ATOM     32  H   UNL     1      94.770  17.341-105.817  0.00  0.00    +0.000 HD
ENDBRANCH  26  31
BRANCH  29  33
ATOM     33  O   UNL     1      91.052  18.439-110.242  0.00  0.00    +0.000 OA
ATOM     34  H   UNL     1      90.121  18.211-109.983  0.00  0.00    +0.000 HD
ENDBRANCH  29  33
BRANCH  30  35
ATOM     35  O   UNL     1      89.853  19.234-107.782  0.00  0.00    +0.000 OA
ATOM     36  H   UNL     1      89.385  19.119-106.914  0.00  0.00    +0.000 HD
ENDBRANCH  30  35
BRANCH  28  37
ATOM     37  C   UNL     1      94.176  17.903-109.822  0.00  0.00    +0.000 C 
BRANCH  37  38
ATOM     38  O   UNL     1      95.299  17.197-109.374  0.00  0.00    +0.000 OA
ATOM     39  H   UNL     1      95.908  17.872-108.975  0.00  0.00    +0.000 HD
ENDBRANCH  37  38
ENDBRANCH  28  37
ENDBRANCH   3  25
TORSDOF 9
ENDMDL