ATOM      1  C   UNL     1      33.400  -0.602 -62.978  0.00  0.00    +0.000 A 
ATOM      2  C   UNL     1      33.171  -0.045 -61.738  0.00  0.00    +0.000 A 
ATOM      3  N   UNL     1      34.010   1.000 -61.635  0.00  0.00    +0.000 N 
ATOM      4  N   UNL     1      34.725   1.072 -62.748  0.00  0.00    +0.000 NA
ATOM      5  N   UNL     1      34.374   0.107 -63.585  0.00  0.00    +0.000 NA
ENDROOT
BRANCH   1   8
ATOM      6  C   UNL     1      31.004  -2.109 -61.710  0.00  0.00    +0.000 C 
ATOM      7  N   UNL     1      31.656  -2.418 -62.984  0.00  0.00    +0.000 N 
ATOM      8  C   UNL     1      32.724  -1.789 -63.536  0.00  0.00    +0.000 A 
ATOM      9  N   UNL     1      33.127  -2.362 -64.689  0.00  0.00    +0.000 NA
ATOM     10  C   UNL     1      32.269  -3.385 -64.884  0.00  0.00    +0.000 A 
ATOM     11  C   UNL     1      31.357  -3.422 -63.839  0.00  0.00    +0.000 A 
BRANCH  10  12
ATOM     12  C   UNL     1      32.336  -4.270 -66.068  0.00  0.00    +0.000 A 
ATOM     13  C   UNL     1      33.258  -5.331 -66.137  0.00  0.00    +0.000 A 
ATOM     14  C   UNL     1      33.296  -6.161 -67.261  0.00  0.00    +0.000 A 
ATOM     15  C   UNL     1      32.408  -5.952 -68.319  0.00  0.00    +0.000 A 
ATOM     16  F   UNL     1      32.445  -6.760 -69.407  0.00  0.00    +0.000 F 
ATOM     17  C   UNL     1      31.476  -4.913 -68.251  0.00  0.00    +0.000 A 
ATOM     18  C   UNL     1      31.434  -4.079 -67.129  0.00  0.00    +0.000 A 
ENDBRANCH  10  12
BRANCH  11  19
ATOM     19  C   UNL     1      30.297  -4.430 -63.627  0.00  0.00    +0.000 A 
ATOM     20  C   UNL     1      28.954  -4.111 -63.878  0.00  0.00    +0.000 A 
ATOM     21  C   UNL     1      27.971  -5.088 -63.701  0.00  0.00    +0.000 A 
ATOM     22  N   UNL     1      28.318  -6.337 -63.294  0.00  0.00    +0.000 NA
ATOM     23  C   UNL     1      29.611  -6.673 -63.043  0.00  0.00    +0.000 A 
ATOM     24  C   UNL     1      30.626  -5.726 -63.208  0.00  0.00    +0.000 A 
ENDBRANCH  11  19
ENDBRANCH   1   8
BRANCH   3  25
ATOM     25  C   UNL     1      34.157   1.889 -60.479  0.00  0.00    +0.000 C 
ATOM     26  C   UNL     1      35.102   3.062 -60.810  0.00  0.00    +0.000 C 
ATOM     27  O   UNL     1      35.241   3.932 -59.695  0.00  0.00    +0.000 OA
ATOM     28  C   UNL     1      33.999   4.519 -59.329  0.00  0.00    +0.000 C 
ATOM     29  C   UNL     1      32.989   3.436 -58.878  0.00  0.00    +0.000 C 
ATOM     30  C   UNL     1      32.788   2.415 -60.006  0.00  0.00    +0.000 C 
BRANCH  26  31
ATOM     31  O   UNL     1      34.666   3.764 -61.949  0.00  0.00    +0.000 OA
ATOM     32  H   UNL     1      35.047   4.678 -61.877  0.00  0.00    +0.000 HD
ENDBRANCH  26  31
BRANCH  29  33
ATOM     33  O   UNL     1      31.748   4.023 -58.572  0.00  0.00    +0.000 OA
ATOM     34  H   UNL     1      31.121   3.780 -59.304  0.00  0.00    +0.000 HD
ENDBRANCH  29  33
BRANCH  30  35
ATOM     35  O   UNL     1      32.001   1.352 -59.530  0.00  0.00    +0.000 OA
ATOM     36  H   UNL     1      32.382   0.518 -59.909  0.00  0.00    +0.000 HD
ENDBRANCH  30  35
BRANCH  28  37
ATOM     37  C   UNL     1      34.261   5.527 -58.199  0.00  0.00    +0.000 C 
BRANCH  37  38
ATOM     38  O   UNL     1      33.941   4.962 -56.954  0.00  0.00    +0.000 OA
ATOM     39  H   UNL     1      33.911   5.712 -56.301  0.00  0.00    +0.000 HD
ENDBRANCH  37  38
ENDBRANCH  28  37
ENDBRANCH   3  25
TORSDOF 9
ENDMDL