Ctrlneg
 OpenBabel07022101093D

 29 31  0  0  1  0  0  0  0  0999 V2000
   86.5190   18.4540 -102.4040 C   0  0  0  0  0  0  0  0  0  0  0  0
   85.1300   17.8830 -102.0200 C   0  0  0  0  0  0  0  0  0  0  0  0
   84.4860   17.0810 -103.1610 C   0  0  1  0  0  0  0  0  0  0  0  0
   85.4490   16.1350 -103.7730 C   0  0  0  0  0  0  0  0  0  0  0  0
   86.7580   16.7040 -104.1810 C   0  0  1  0  0  0  0  0  0  0  0  0
   87.4690   17.3600 -102.9590 C   0  0  1  0  0  0  0  0  0  0  0  0
   88.7650   17.8560 -103.6690 C   0  0  2  0  0  0  0  0  0  0  0  0
   87.8370   15.8410 -104.8130 C   0  0  0  0  0  0  0  0  0  0  0  0
   89.1140   16.6770 -104.6310 C   0  0  0  0  0  0  0  0  0  0  0  0
   84.9630   14.9000 -103.7900 C   0  0  0  0  0  0  0  0  0  0  0  0
   83.6620   14.9820 -103.1260 C   0  0  0  0  0  0  0  0  0  0  0  0
   83.4250   16.2590 -102.7130 O   0  0  0  0  0  0  0  0  0  0  0  0
   82.9250   14.0310 -102.9360 O   0  0  0  0  0  0  0  0  0  0  0  0
   87.8080   16.3480 -101.8330 C   0  0  0  0  0  0  0  0  0  0  0  0
   84.0200   17.9540 -104.1730 O   0  0  0  0  0  0  0  0  0  0  0  0
   84.7500   18.5720 -104.3460 H   0  0  0  0  0  0  0  0  0  0  0  0
   89.9820   18.2840 -102.8040 C   0  0  2  0  0  0  0  0  0  0  0  0
   89.6630   18.3440 -101.3100 C   0  0  0  0  0  0  0  0  0  0  0  0
   90.4820   19.6530 -103.2300 C   0  0  0  0  0  0  0  0  0  0  0  0
   90.7890   20.0620 -104.4740 C   0  0  0  0  0  0  0  0  0  0  0  0
   90.7580   19.2450 -105.7520 C   0  0  2  0  0  0  0  0  0  0  0  0
   91.8280   18.1450 -105.6460 C   0  0  0  0  0  0  0  0  0  0  0  0
   90.9020   20.0990 -107.0550 C   0  0  1  0  0  0  0  0  0  0  0  0
   89.5850   20.7140 -107.5390 C   0  0  0  0  0  0  0  0  0  0  0  0
   91.7950   21.1950 -106.7750 O   0  0  0  0  0  0  0  0  0  0  0  0
   91.8390   21.7030 -107.6120 H   0  0  0  0  0  0  0  0  0  0  0  0
   91.5470   19.2960 -108.2070 C   0  0  0  0  0  0  0  0  0  0  0  0
   92.6140   20.0590 -108.7840 O   0  0  0  0  0  0  0  0  0  0  0  0
   92.7580   20.8210 -108.1960 H   0  0  0  0  0  0  0  0  0  0  0  0
  1  2  1  0  0  0  0
  3 15  1  6  0  0  0
  3 12  1  0  0  0  0
  3  2  1  0  0  0  0
  4  3  1  0  0  0  0
  5  8  1  1  0  0  0
  5  4  1  0  0  0  0
  5  6  1  0  0  0  0
  6  1  1  0  0  0  0
  6 14  1  1  0  0  0
  7  9  1  6  0  0  0
  7  6  1  0  0  0  0
  7 17  1  0  0  0  0
  8  9  1  0  0  0  0
 10  4  2  0  0  0  0
 10 11  1  0  0  0  0
 11 13  2  0  0  0  0
 11 12  1  0  0  0  0
 16 15  1  0  0  0  0
 17 19  1  6  0  0  0
 17 18  1  0  0  0  0
 20 19  2  0  0  0  0
 21 22  1  1  0  0  0
 21 20  1  0  0  0  0
 23 27  1  6  0  0  0
 23 25  1  0  0  0  0
 23 21  1  0  0  0  0
 24 23  1  0  0  0  0
 26 25  1  0  0  0  0
 28 27  1  0  0  0  0
 28 29  1  0  0  0  0
M  END
>  <TORSDO>
F 8

$$$$
