ATOM      1  C   LIG d   1      86.519  18.454-102.404 -0.18 +0.01    +0.014 C 
ATOM      2  C   LIG d   1      85.130  17.883-102.020 -0.28 +0.02    +0.084 C 
ATOM      3  C   LIG d   1      84.486  17.081-103.161 -0.39 +0.06    +0.237 A 
ATOM      4  C   LIG d   1      85.449  16.135-103.773 -0.35 +0.00    +0.011 A 
ATOM      5  C   LIG d   1      86.758  16.704-104.181 -0.37 -0.00    +0.028 C 
ATOM      6  C   LIG d   1      87.469  17.360-102.959 -0.18 -0.01    -0.022 C 
ATOM      7  C   LIG d   1      88.765  17.856-103.669 -0.23 +0.00    +0.002 C 
ATOM      8  C   LIG d   1      87.837  15.841-104.813 -0.36 -0.00    +0.009 C 
ATOM      9  C   LIG d   1      89.114  16.677-104.631 -0.30 +0.00    +0.005 C 
ATOM     10  C   LIG d   1      84.963  14.900-103.790 -0.43 +0.02    +0.097 A 
ATOM     11  C   LIG d   1      83.662  14.982-103.126 -0.43 +0.19    +0.335 A 
ATOM     12  O   LIG d   1      83.425  16.259-102.713 -0.54 -0.17    -0.425 OA
ATOM     13  O   LIG d   1      82.925  14.031-102.936 -0.71 -0.14    -0.245 OA
ATOM     14  C   LIG d   1      87.808  16.348-101.833 -0.12 +0.01    +0.012 C 
ENDROOT
BRANCH   3  15
ATOM     15  O   LIG d   1      84.020  17.954-104.173 -0.61 -0.04    -0.352 OA
ATOM     16  H   LIG d   1      84.750  18.572-104.346 -0.40 -0.13    +0.214 HD
ENDBRANCH   3  15
BRANCH   7  17
ATOM     17  C   LIG d   1      89.982  18.284-102.804 -0.32 +0.01    +0.012 C 
ATOM     18  C   LIG d   1      89.663  18.344-101.310 -0.27 +0.01    +0.012 C 
BRANCH  17  19
ATOM     19  C   LIG d   1      90.482  19.653-103.230 -0.30 -0.02    -0.027 C 
ATOM     20  C   LIG d   1      90.789  20.062-104.474 -0.32 -0.01    -0.025 C 
BRANCH  20  21
ATOM     21  C   LIG d   1      90.758  19.245-105.752 -0.41 +0.02    +0.042 C 
ATOM     22  C   LIG d   1      91.828  18.145-105.646 -0.40 +0.01    +0.014 C 
BRANCH  21  23
ATOM     23  C   LIG d   1      90.902  20.099-107.055 -0.45 +0.05    +0.092 C 
ATOM     24  C   LIG d   1      89.585  20.714-107.539 -0.26 +0.01    +0.044 C 
BRANCH  23  25
ATOM     25  O   LIG d   1      91.795  21.195-106.775 -1.03 -0.32    -0.386 OA
ATOM     26  H   LIG d   1      91.839  21.703-107.612 -0.56 +0.12    +0.210 HD
ENDBRANCH  23  25
BRANCH  23  27
ATOM     27  C   LIG d   1      91.547  19.296-108.207 -0.44 +0.14    +0.190 C 
BRANCH  27  28
ATOM     28  O   LIG d   1      92.614  20.059-108.784 -0.50 -0.32    -0.392 OA
ATOM     29  H   LIG d   1      92.758  20.821-108.196 -0.54 +0.13    +0.209 HD
ENDBRANCH  27  28
ENDBRANCH  23  27
ENDBRANCH  21  23
ENDBRANCH  20  21
ENDBRANCH  17  19
ENDBRANCH   7  17
TORSDOF 8
TER
ENDMDL