REMARK  8 active torsions:
REMARK  status: ('A' for Active; 'I' for Inactive)
REMARK    1  A    between atoms: C_3  and  O_14 
REMARK    2  A    between atoms: C_7  and  C_16 
REMARK    3  A    between atoms: C_16  and  C_18 
REMARK    4  A    between atoms: C_19  and  C_20 
REMARK    5  A    between atoms: C_20  and  C_21 
REMARK    6  A    between atoms: C_21  and  O_24 
REMARK    7  A    between atoms: C_21  and  C_25 
REMARK    8  A    between atoms: C_25  and  O_26 
ROOT
ATOM      1  C   LIG d   1       1.865   0.834   2.544  0.00  0.00     0.014 C 
ATOM      2  C   LIG d   1       3.043   1.824   2.730  0.00  0.00     0.084 C 
ATOM      3  C   LIG d   1       4.310   1.381   1.984  0.00  0.00     0.237 A 
ATOM      4  C   LIG d   1       4.005   0.962   0.595  0.00  0.00     0.011 A 
ATOM      5  C   LIG d   1       2.907  -0.023   0.433  0.00  0.00     0.028 C 
ATOM      6  C   LIG d   1       1.587   0.530   1.048  0.00  0.00    -0.022 C 
ATOM      7  C   LIG d   1       0.651  -0.679   0.745  0.00  0.00     0.002 C 
ATOM      8  C   LIG d   1       2.489  -0.529  -0.937  0.00  0.00     0.009 C 
ATOM      9  C   LIG d   1       1.089  -1.113  -0.690  0.00  0.00     0.005 C 
ATOM     10  C   LIG d   1       4.762   1.614  -0.280  0.00  0.00     0.097 A 
ATOM     11  C   LIG d   1       5.566   2.543   0.515  0.00  0.00     0.335 A 
ATOM     12  O   LIG d   1       5.246   2.432   1.835  0.00  0.00    -0.425 OA
ATOM     13  O   LIG d   1       6.372   3.329   0.048  0.00  0.00    -0.245 OA
ATOM     14  C   LIG d   1       1.076   1.815   0.345  0.00  0.00     0.012 C 
ENDROOT
BRANCH   3  15
ATOM     15  O   LIG d   1       4.918   0.290   2.651  0.00  0.00    -0.352 OA
ATOM     16  H   LIG d   1       5.087   0.596   3.558  0.00  0.00     0.214 HD
ENDBRANCH   3  15
BRANCH   7  17
ATOM     17  C   LIG d   1      -0.887  -0.489   0.853  0.00  0.00     0.012 C 
ATOM     18  C   LIG d   1      -1.342  -0.086   2.256  0.00  0.00     0.012 C 
BRANCH  17  19
ATOM     19  C   LIG d   1      -1.608  -1.772   0.479  0.00  0.00    -0.027 C 
ATOM     20  C   LIG d   1      -2.732  -1.897  -0.249  0.00  0.00    -0.025 C 
BRANCH  20  21
ATOM     21  C   LIG d   1      -3.583  -0.787  -0.838  0.00  0.00     0.042 C 
ATOM     22  C   LIG d   1      -4.969  -0.840  -0.172  0.00  0.00     0.014 C 
BRANCH  21  23
ATOM     23  C   LIG d   1      -3.667  -0.812  -2.400  0.00  0.00     0.092 C 
ATOM     24  C   LIG d   1      -4.328  -2.075  -2.962  0.00  0.00     0.044 C 
BRANCH  23  25
ATOM     25  O   LIG d   1      -4.476   0.304  -2.823  0.00  0.00    -0.386 OA
ATOM     26  H   LIG d   1      -3.903   1.089  -2.702  0.00  0.00     0.210 HD
ENDBRANCH  23  25
BRANCH  23  27
ATOM     27  C   LIG d   1      -2.283  -0.620  -3.059  0.00  0.00     0.190 C 
BRANCH  27  28
ATOM     28  O   LIG d   1      -1.753   0.661  -2.696  0.00  0.00    -0.392 OA
ATOM     29  H   LIG d   1      -0.896   0.743  -3.149  0.00  0.00     0.209 HD
ENDBRANCH  27  28
ENDBRANCH  23  27
ENDBRANCH  21  23
ENDBRANCH  20  21
ENDBRANCH  17  19
ENDBRANCH   7  17
TORSDOF 8
