Ctrlpos
 OpenBabel07022101083D

 27 27  0  0  1  0  0  0  0  0999 V2000
   88.8320   18.1070 -104.4470 O   0  0  0  0  0  0  0  0  0  0  0  0
   89.0230   19.0080 -104.8100 H   0  0  0  0  0  0  0  0  0  0  0  0
   89.9280   17.3960 -104.8730 C   0  0  0  0  0  0  0  0  0  0  0  0
   89.9200   16.0000 -104.9220 C   0  0  0  0  0  0  0  0  0  0  0  0
   91.0790   15.3480 -105.3860 C   0  0  0  0  0  0  0  0  0  0  0  0
   92.2160   16.0720 -105.7740 C   0  0  0  0  0  0  0  0  0  0  0  0
   92.1970   17.4590 -105.7040 C   0  0  0  0  0  0  0  0  0  0  0  0
   91.0580   18.1120 -105.2560 C   0  0  0  0  0  0  0  0  0  0  0  0
   88.7150   15.2010 -104.5060 C   0  0  0  0  0  0  0  0  0  0  0  0
   87.5410   16.0810 -104.3650 N   0  0  0  0  0  0  0  0  0  0  0  0
   87.4200   16.5730 -105.2610 H   0  0  0  0  0  0  0  0  0  0  0  0
   86.3810   15.3480 -104.0830 N   0  0  0  0  0  0  0  0  0  0  0  0
   85.1290   15.9300 -104.0430 C   0  0  0  0  0  0  0  0  0  0  0  0
   84.1390   15.2490 -103.7880 O   0  0  0  0  0  0  0  0  0  0  0  0
   86.4170   14.3360 -103.9360 H   0  0  0  0  0  0  0  0  0  0  0  0
   85.0510   17.4360 -104.2990 C   0  0  2  0  0  0  0  0  0  0  0  0
   86.3430   18.1440 -103.9930 N   0  0  0  0  0  0  0  0  0  0  0  0
   86.7600   17.6860 -103.1700 H   0  0  0  0  0  0  0  0  0  0  0  0
   87.0150   18.0880 -104.7620 H   0  0  0  0  0  0  0  0  0  0  0  0
   86.1860   19.1470 -103.7750 H   0  0  0  0  0  0  0  0  0  0  0  0
   83.9750   18.1150 -103.4410 C   0  0  0  0  0  0  0  0  0  0  0  0
   84.6250   18.7220 -102.3130 O   0  0  0  0  0  0  0  0  0  0  0  0
   83.9610   18.7670 -101.5930 H   0  0  0  0  0  0  0  0  0  0  0  0
   93.2670   18.2250 -106.0620 O   0  0  0  0  0  0  0  0  0  0  0  0
   93.1590   19.1160 -105.6810 H   0  0  0  0  0  0  0  0  0  0  0  0
   91.0170   19.4790 -105.1780 O   0  0  0  0  0  0  0  0  0  0  0  0
   91.9620   19.7470 -105.1610 H   0  0  0  0  0  0  0  0  0  0  0  0
  2  1  1  0  0  0  0
  3  1  1  0  0  0  0
  4  3  1  0  0  0  0
  4  9  1  0  0  0  0
  5  4  2  0  0  0  0
  6  7  2  0  0  0  0
  6  5  1  0  0  0  0
  7  8  1  0  0  0  0
  8 26  1  0  0  0  0
  8  3  2  0  0  0  0
  9 10  1  0  0  0  0
 10 12  1  0  0  0  0
 11 10  1  0  0  0  0
 12 13  1  0  0  0  0
 12 15  1  0  0  0  0
 13 14  2  0  0  0  0
 16 13  1  1  0  0  0
 16 17  1  0  0  0  0
 16 21  1  0  0  0  0
 17 20  1  0  0  0  0
 17 18  1  0  0  0  0
 19 17  1  0  0  0  0
 21 22  1  0  0  0  0
 22 23  1  0  0  0  0
 24  7  1  0  0  0  0
 24 25  1  0  0  0  0
 26 27  1  0  0  0  0
M  END
>  <TORSDO>
F 10

$$$$
