ATOM      1  O   LIG d   1      88.832  18.107-104.447 -0.30 +0.08    -0.503 OA
ATOM      2  H   LIG d   1      89.023  19.008-104.810 -0.12 -0.09    +0.292 HD
ENDROOT
BRANCH   1   3
ATOM      3  C   LIG d   1      89.928  17.396-104.873 -0.30 +0.03    +0.167 A 
ATOM      4  C   LIG d   1      89.920  16.000-104.922 -0.36 +0.00    +0.013 A 
ATOM      5  C   LIG d   1      91.079  15.348-105.386 -0.52 +0.00    +0.012 A 
ATOM      6  C   LIG d   1      92.216  16.072-105.774 -0.44 +0.02    +0.050 A 
ATOM      7  C   LIG d   1      92.197  17.459-105.704 -0.45 +0.07    +0.162 A 
ATOM      8  C   LIG d   1      91.058  18.112-105.256 -0.37 +0.07    +0.201 A 
BRANCH   4   9
ATOM      9  C   LIG d   1      88.715  15.201-104.506 -0.40 -0.05    +0.140 C 
BRANCH   9  10
ATOM     10  N   LIG d   1      87.541  16.081-104.365 -0.37 +0.05    -0.236 NA
ATOM     11  H   LIG d   1      87.420  16.573-105.261 -0.16 -0.08    +0.145 HD
BRANCH  10  12
ATOM     12  N   LIG d   1      86.381  15.348-104.083 -0.38 +0.07    -0.246 N 
ATOM     13  C   LIG d   1      85.129  15.930-104.043 -0.34 +0.08    +0.277 C 
ATOM     14  O   LIG d   1      84.139  15.249-103.788 -0.51 -0.15    -0.268 OA
ATOM     15  H   LIG d   1      86.417  14.336-103.936 -0.42 -0.18    +0.169 HD
BRANCH  13  16
ATOM     16  CA  LIG d   1      85.051  17.436-104.299 -0.32 -0.01    +0.175 C 
BRANCH  16  17
ATOM     17  N   LIG d   1      86.343  18.144-103.993 -0.14 -0.13    +0.229 N 
ATOM     18  H1  LIG d   1      86.760  17.686-103.170 -0.00 +0.02    +0.200 HD
ATOM     19  H2  LIG d   1      87.015  18.088-104.762 -0.58 -0.31    +0.200 HD
ATOM     20  H3  LIG d   1      86.186  19.147-103.775 -0.52 -0.17    +0.200 HD
ENDBRANCH  16  17
BRANCH  16  21
ATOM     21  C   LIG d   1      83.975  18.115-103.441 -0.53 +0.01    +0.219 C 
BRANCH  21  22
ATOM     22  O   LIG d   1      84.625  18.722-102.313 -0.39 -0.06    -0.389 OA
ATOM     23  H   LIG d   1      83.961  18.767-101.593 -0.59 -0.09    +0.210 HD
ENDBRANCH  21  22
ENDBRANCH  16  21
ENDBRANCH  13  16
ENDBRANCH  10  12
ENDBRANCH   9  10
ENDBRANCH   4   9
BRANCH   7  24
ATOM     24  O   LIG d   1      93.267  18.225-106.062 -0.54 -0.28    -0.503 OA
ATOM     25  H   LIG d   1      93.159  19.116-105.681 -0.58 +0.11    +0.292 HD
ENDBRANCH   7  24
BRANCH   8  26
ATOM     26  O   LIG d   1      91.017  19.479-105.178 -0.43 -0.21    -0.501 OA
ATOM     27  H   LIG d   1      91.962  19.747-105.161 -0.47 +0.12    +0.292 HD
ENDBRANCH   8  26
ENDBRANCH   1   3
TORSDOF 10
TER
ENDMDL