REMARK  10 active torsions:
REMARK  status: ('A' for Active; 'I' for Inactive)
REMARK    1  A    between atoms: O_1  and  C_12 
REMARK    2  A    between atoms: O_2  and  C_15 
REMARK    3  A    between atoms: O_3  and  C_16 
REMARK    4  A    between atoms: O_5  and  C_18 
REMARK    5  A    between atoms: N_6  and  N_7 
REMARK    6  A    between atoms: N_6  and  C_9 
REMARK       I    between atoms: N_7  and  C_13 
REMARK    7  A    between atoms: CA_11  and  N_8 
REMARK    8  A    between atoms: C_9  and  C_10 
REMARK    9  A    between atoms: CA_11  and  C_13 
REMARK   10  A    between atoms: CA_11  and  C_15 
ROOT
ATOM      1  O   LIG d   1      -0.751   1.468  -0.261  0.00  0.00    -0.503 OA
ATOM      2  H   LIG d   1      -0.850   2.345  -0.708  0.00  0.00     0.292 HD
ENDROOT
BRANCH   1   3
ATOM      3  C   LIG d   1       0.156   1.760   0.730  0.00  0.00     0.167 A 
ATOM      4  C   LIG d   1       0.477   0.833   1.724  0.00  0.00     0.013 A 
ATOM      5  C   LIG d   1       1.429   1.205   2.693  0.00  0.00     0.012 A 
ATOM      6  C   LIG d   1       2.029   2.473   2.675  0.00  0.00     0.050 A 
ATOM      7  C   LIG d   1       1.681   3.377   1.680  0.00  0.00     0.162 A 
ATOM      8  C   LIG d   1       0.751   3.018   0.716  0.00  0.00     0.201 A 
BRANCH   4   9
ATOM      9  C   LIG d   1      -0.157  -0.531   1.767  0.00  0.00     0.140 C 
BRANCH   9  10
ATOM     10  N   LIG d   1       0.419  -1.397   0.723  0.00  0.00    -0.236 NA
ATOM     11  H   LIG d   1       1.394  -1.590   0.991  0.00  0.00     0.145 HD
BRANCH  10  12
ATOM     12  N   LIG d   1      -0.277  -2.609   0.620  0.00  0.00    -0.246 N 
ATOM     13  C   LIG d   1      -0.824  -3.049  -0.569  0.00  0.00     0.277 C 
ATOM     14  O   LIG d   1      -1.430  -4.117  -0.613  0.00  0.00    -0.268 OA
ATOM     15  H   LIG d   1      -0.370  -3.236   1.423  0.00  0.00     0.169 HD
BRANCH  13  16
ATOM     16  CA  LIG d   1      -0.663  -2.142  -1.790  0.00  0.00     0.175 C 
BRANCH  16  17
ATOM     17  N   LIG d   1      -1.352  -0.814  -1.621  0.00  0.00     0.229 N 
ATOM     18  H1  LIG d   1      -1.360  -0.350  -2.541  0.00  0.00     0.200 HD
ATOM     19  H2  LIG d   1      -2.320  -0.909  -1.305  0.00  0.00     0.200 HD
ATOM     20  H3  LIG d   1      -0.850  -0.208  -0.944  0.00  0.00     0.200 HD
ENDBRANCH  16  17
BRANCH  16  21
ATOM     21  C   LIG d   1      -1.248  -2.770  -3.062  0.00  0.00     0.219 C 
BRANCH  21  22
ATOM     22  O   LIG d   1      -1.387  -1.733  -4.046  0.00  0.00    -0.389 OA
ATOM     23  H   LIG d   1      -1.641  -2.171  -4.885  0.00  0.00     0.210 HD
ENDBRANCH  21  22
ENDBRANCH  16  21
ENDBRANCH  13  16
ENDBRANCH  10  12
ENDBRANCH   9  10
ENDBRANCH   4   9
BRANCH   7  24
ATOM     24  O   LIG d   1       2.222   4.627   1.604  0.00  0.00    -0.503 OA
ATOM     25  H   LIG d   1       2.837   4.750   2.350  0.00  0.00     0.292 HD
ENDBRANCH   7  24
BRANCH   8  26
ATOM     26  O   LIG d   1       0.392   3.894  -0.275  0.00  0.00    -0.501 OA
ATOM     27  H   LIG d   1       0.917   4.702  -0.083  0.00  0.00     0.292 HD
ENDBRANCH   8  26
ENDBRANCH   1   3
TORSDOF 10
