@<TRIPOS>MOLECULE
MOL
   58    62     1     0     0
SMALL
bcc


@<TRIPOS>ATOM
      1 N1          91.0940    18.4380  -105.2510 na         1 MOL       0.049400
      2 N2          91.0180    19.4420  -104.3920 nc         1 MOL      -0.178800
      3 N3          90.0020    19.2610  -103.5610 nd         1 MOL      -0.346000
      4 N4          87.5400    16.4420  -103.5700 na         1 MOL      -0.157900
      5 N5          87.8440    18.0360  -102.0090 nc         1 MOL      -0.661000
      6 N6          83.5610    13.3180  -102.6640 nb         1 MOL      -0.657000
      7 C1          89.4090    18.1020  -103.9120 cd         1 MOL       0.214300
      8 C2          90.1090    17.5660  -104.9750 cc         1 MOL      -0.147600
      9 C3          87.6320    15.7080  -104.8340 c3         1 MOL       0.016600
     10 C4          88.2710    17.5160  -103.1790 cd         1 MOL       0.394500
     11 C5          86.8220    17.2430  -101.6310 cc         1 MOL       0.381800
     12 C6          86.6320    16.2550  -102.5870 cd         1 MOL      -0.164600
     13 C7          86.0830    17.4380  -100.3640 ca         1 MOL      -0.124500
     14 C8          85.6080    16.3210   -99.6570 ca         1 MOL      -0.086500
     15 C9          84.8990    16.4880   -98.4630 ca         1 MOL      -0.171000
     16 C10         84.6460    17.7710   -97.9720 ca         1 MOL       0.126900
     17 C11         85.0960    18.8900   -98.6790 ca         1 MOL      -0.171000
     18 C12         85.8050    18.7270   -99.8730 ca         1 MOL      -0.086500
     19 C13         85.5600    15.2350  -102.6070 ca         1 MOL       0.018000
     20 C14         85.6840    14.0580  -101.8550 ca         1 MOL      -0.230300
     21 C15         84.6650    13.1040  -101.8980 ca         1 MOL       0.391200
     22 C16         83.4160    14.4510  -103.4010 ca         1 MOL       0.391200
     23 C17         84.4110    15.4300  -103.3880 ca         1 MOL      -0.230300
     24 C18         92.1300    18.2870  -106.2760 c3         1 MOL      -0.023000
     25 C19         92.0610    16.8840  -106.9150 c3         1 MOL       0.337900
     26 C20         92.8290    17.6300  -108.9890 c3         1 MOL       0.107100
     27 C21         92.9520    19.1010  -108.5180 c3         1 MOL       0.122100
     28 C22         91.9670    19.3640  -107.3600 c3         1 MOL       0.098100
     29 C23         93.8530    17.3080  -110.0910 c3         1 MOL       0.140400
     30 O1          93.0650    16.7440  -107.9060 os         1 MOL      -0.460600
     31 O2          92.2370    15.8990  -105.9330 oh         1 MOL      -0.576800
     32 O3          92.6600    19.9690  -109.5840 oh         1 MOL      -0.588800
     33 O4          92.2130    20.6270  -106.7960 oh         1 MOL      -0.599800
     34 O5          94.0920    15.9280  -110.1790 oh         1 MOL      -0.589800
     35 F1          83.9570    17.9320   -96.8150 f          1 MOL      -0.141900
     36 H1          92.9660    16.2090  -105.3320 ho         1 MOL       0.426000
     37 H2          92.5610    20.8790  -109.1990 ho         1 MOL       0.428000
     38 H3          92.6020    21.1930  -107.5120 ho         1 MOL       0.425000
     39 H4          93.8420    15.5390  -109.3000 ho         1 MOL       0.411000
     40 H5          94.7900    17.8170  -109.8660 h1         1 MOL       0.066200
     41 H6          89.9040    16.6260  -105.4870 h4         1 MOL       0.213000
     42 H7          87.0820    16.2450  -105.6070 h1         1 MOL       0.067033
     43 H8          85.7930    15.3180  -100.0410 ha         1 MOL       0.147000
     44 H9          84.5430    15.6160   -97.9150 ha         1 MOL       0.149000
     45 H10         84.8940    19.8910   -98.2990 ha         1 MOL       0.149000
     46 H11         86.1440    19.6030  -100.4260 ha         1 MOL       0.147000
     47 H12         86.5690    13.8890  -101.2420 ha         1 MOL       0.153500
     48 H13         84.7540    12.1860  -101.3170 h4         1 MOL       0.026600
     49 H14         82.5200    14.5960  -104.0040 h4         1 MOL       0.026600
     50 H15         84.2960    16.3380  -103.9800 ha         1 MOL       0.153500
     51 H16         93.1030    18.4060  -105.8000 h1         1 MOL       0.092700
     52 H17         91.0820    16.7640  -107.3780 h2         1 MOL       0.101700
     53 H18         91.8190    17.5020  -109.3780 h1         1 MOL       0.078700
     54 H19         93.9710    19.2790  -108.1750 h1         1 MOL       0.062700
     55 H20         90.9510    19.3330  -107.7540 h1         1 MOL       0.078700
     56 H21         93.4490    17.6480  -111.0450 h1         1 MOL       0.066200
     57 H22         87.2050    14.7130  -104.7090 h1         1 MOL       0.067033
     58 H23         88.6780    15.6200  -105.1270 h1         1 MOL       0.067033
@<TRIPOS>BOND
     1     1     2 1   
     2     1    24 1   
     3     1     8 1   
     4     2     3 2   
     5     3     7 1   
     6     4    10 1   
     7     4    12 1   
     8     4     9 1   
     9     5    11 1   
    10     5    10 2   
    11     6    22 ar  
    12     6    21 ar  
    13     7     8 2   
    14     7    10 1   
    15     8    41 1   
    16     9    42 1   
    17     9    57 1   
    18     9    58 1   
    19    11    12 2   
    20    11    13 1   
    21    12    19 1   
    22    13    14 ar  
    23    13    18 ar  
    24    14    15 ar  
    25    14    43 1   
    26    15    16 ar  
    27    15    44 1   
    28    16    17 ar  
    29    16    35 1   
    30    17    18 ar  
    31    17    45 1   
    32    18    46 1   
    33    19    20 ar  
    34    19    23 ar  
    35    20    21 ar  
    36    20    47 1   
    37    21    48 1   
    38    22    23 ar  
    39    22    49 1   
    40    23    50 1   
    41    24    25 1   
    42    24    28 1   
    43    24    51 1   
    44    25    30 1   
    45    25    31 1   
    46    25    52 1   
    47    26    27 1   
    48    26    29 1   
    49    26    53 1   
    50    26    30 1   
    51    27    28 1   
    52    27    32 1   
    53    27    54 1   
    54    28    33 1   
    55    28    55 1   
    56    29    34 1   
    57    29    40 1   
    58    29    56 1   
    59    31    36 1   
    60    32    37 1   
    61    33    38 1   
    62    34    39 1   
@<TRIPOS>SUBSTRUCTURE
     1 MOL         1 TEMP              0 ****  ****    0 ROOT
