@<TRIPOS>MOLECULE
Lig_5hex.pdb
33 35 1 0 0
SMALL
NO_CHARGES


@<TRIPOS>ATOM
      1 C1         34.4600    0.4030  -61.4630 C.3       1 604    0.0000
      2 C1A        31.4480   -4.1500  -65.6180 C.ar      1 604    0.0000
      3 O1         35.5110   -0.4990  -61.1620 O.3       1 604    0.0000
      4 C2         34.2620    0.5920  -62.9480 C.3       1 604    0.0000
      5 C2A        31.5420   -3.0050  -64.8510 C.ar      1 604    0.0000
      6 N2         34.0600   -0.6570  -63.6450 N.am      1 604    0.0000
      7 C3         35.4470    1.3580  -63.4970 C.3       1 604    0.0000
      8 C3A        32.5930   -4.7780  -66.0400 C.ar      1 604    0.0000
      9 O3         35.3190    1.5200  -64.9050 O.3       1 604    0.0000
     10 C4         35.4990    2.6980  -62.7960 C.3       1 604    0.0000
     11 C4A        33.9180   -3.1030  -64.9360 C.ar      1 604    0.0000
     12 O4         36.6120    3.4100  -63.2990 O.3       1 604    0.0000
     13 C5         35.7180    2.4380  -61.3250 C.3       1 604    0.0000
     14 C5A        33.6680    5.9620  -57.1000 C.ar      1 604    0.0000
     15 O5         34.6550    1.6550  -60.8130 O.3       1 604    0.0000
     16 C6         35.7770    3.7080  -60.4950 C.3       1 604    0.0000
     17 C6A        32.7650   -2.4820  -64.5170 C.ar      1 604    0.0000
     18 C7         34.2580    7.1740  -56.6870 C.ar      1 604    0.0000
     19 C8         33.8240   -4.2540  -65.6940 C.ar      1 604    0.0000
     20 C9         34.7710    7.8040  -57.7890 C.ar      1 604    0.0000
     21 C10        33.8570    5.9180  -58.4620 C.ar      1 604    0.0000
     22 C11        32.8240   -1.2630  -63.7010 C.2       1 604    0.0000
     23 C12        34.2960    7.6700  -55.2570 C.2       1 604    0.0000
     24 C18        35.4850    9.0730  -57.9450 C.3       1 604    0.0000
     25 N21        34.6110    4.5690  -60.7660 N.pl3     1 604    0.0000
     26 O22        34.7110    8.8530  -55.0920 O.co2     1 604    0.0000
     27 O23        31.8220   -0.8920  -63.1150 O.2       1 604    0.0000
     28 O24        33.8950    6.8060  -54.4280 O.co2     1 604    0.0000
     29 O25        33.1760    3.5180  -58.7810 O.2       1 604    0.0000
     30 O26        32.1930    5.3290  -60.1640 O.2       1 604    0.0000
     31 O27        34.5270    7.0310  -58.8860 O.2       1 604    0.0000
     32 S32        33.3610    4.7070  -59.5870 S.o2      1 604    0.0000
     33 BR         35.4060   -5.1490  -66.2810 Br        1 604    0.0000
@<TRIPOS>BOND
     1    1    3 1
     2    1   15 1
     3    1    4 1
     4    2    5 ar
     5    2    8 ar
     6    4    6 1
     7    4    7 1
     8    5   17 ar
     9    6   22 am
    10    7    9 1
    11    7   10 1
    12    8   19 ar
    13   10   12 1
    14   10   13 1
    15   11   17 ar
    16   11   19 ar
    17   13   15 1
    18   13   16 1
    19   14   18 ar
    20   14   21 ar
    21   16   25 1
    22   17   22 1
    23   18   20 ar
    24   18   23 1
    25   19   33 1
    26   20   24 1
    27   20   31 ar
    28   21   31 ar
    29   21   32 1
    30   22   27 2
    31   23   26 2
    32   23   28 2
    33   25   32 1
    34   29   32 2
    35   30   32 2
@<TRIPOS>SUBSTRUCTURE
     1 604     1 RESIDUE           4 A     604     0 ROOT
