@<TRIPOS>MOLECULE
Lig_5hg1.pdb
41 42 1 0 0
SMALL
NO_CHARGES


@<TRIPOS>ATOM
      1 CL1        35.4130  -62.5260   -9.8110 Cl        1 62C    0.0000
      2 CL2        35.2960  -63.1350  -12.9420 Cl        1 62C    0.0000
      3 C1         43.4460  -56.3940   -8.8440 C.3       1 62C    0.0000
      4 O1         44.3340  -57.4360   -9.0910 O.3       1 62C    0.0000
      5 C2         42.6840  -56.0580  -10.1230 C.3       1 62C    0.0000
      6 C3         43.6690  -55.6200  -11.2020 C.3       1 62C    0.0000
      7 O3         42.9500  -55.1360  -12.3230 O.3       1 62C    0.0000
      8 C4         44.5820  -54.5110  -10.6840 C.3       1 62C    0.0000
      9 O4         45.6240  -54.2980  -11.6290 O.3       1 62C    0.0000
     10 C5         45.1810  -54.8550   -9.3130 C.3       1 62C    0.0000
     11 O5         44.1430  -55.2580   -8.4100 O.3       1 62C    0.0000
     12 C6         45.8660  -53.6830   -8.6530 C.3       1 62C    0.0000
     13 O6         45.0100  -52.5500   -8.6110 O.3       1 62C    0.0000
     14 N7         41.8880  -57.1930  -10.5690 N.am      1 62C    0.0000
     15 C8         40.5710  -57.2910  -10.2630 C.2       1 62C    0.0000
     16 O9         39.9790  -56.4150   -9.6100 O.2       1 62C    0.0000
     17 C10        39.8920  -58.5050  -10.7720 C.2       1 62C    0.0000
     18 C11        38.5650  -58.5550  -10.8690 C.2       1 62C    0.0000
     19 C12        37.7690  -59.6850  -11.3650 C.ar      1 62C    0.0000
     20 C13        37.7000  -59.9650  -12.7280 C.ar      1 62C    0.0000
     21 C14        36.9440  -61.0200  -13.2040 C.ar      1 62C    0.0000
     22 C15        36.2360  -61.8150  -12.3190 C.ar      1 62C    0.0000
     23 C16        36.2870  -61.5450  -10.9550 C.ar      1 62C    0.0000
     24 C17        37.0460  -60.4900  -10.4800 C.ar      1 62C    0.0000
     25 H11        42.8140  -56.6610   -8.1580 H         1 62C    0.0000
     26 H12        44.9070  -57.4740   -8.4650 H         1 62C    0.0000
     27 H21        42.0870  -55.3160   -9.9360 H         1 62C    0.0000
     28 H31        44.2100  -56.3800  -11.4670 H         1 62C    0.0000
     29 H32        42.6890  -54.3420  -12.1700 H         1 62C    0.0000
     30 H41        44.0620  -53.6960  -10.6000 H         1 62C    0.0000
     31 H42        45.3500  -54.5090  -12.4060 H         1 62C    0.0000
     32 H51        45.8120  -55.5840   -9.4160 H         1 62C    0.0000
     33 H61        46.6670  -53.4610   -9.1540 H         1 62C    0.0000
     34 H62        46.1150  -53.9280   -7.7480 H         1 62C    0.0000
     35 H63        44.2020  -52.8080   -8.5650 H         1 62C    0.0000
     36 H71        42.2640  -57.8210  -11.0200 H         1 62C    0.0000
     37 H101       40.3990  -59.2390  -11.0320 H         1 62C    0.0000
     38 H111       38.0970  -57.7970  -10.6030 H         1 62C    0.0000
     39 H131       38.1720  -59.4340  -13.3280 H         1 62C    0.0000
     40 H141       36.9120  -61.1960  -14.1160 H         1 62C    0.0000
     41 H171       37.0760  -60.3170   -9.5670 H         1 62C    0.0000
@<TRIPOS>BOND
     1    1   23 1
     2    2   22 1
     3    3    4 1
     4    3   11 1
     5    3   25 1
     6    3    5 1
     7    4   26 1
     8    5    6 1
     9    5   27 1
    10    5   14 1
    11    6    7 1
    12    6   28 1
    13    6    8 1
    14    7   29 1
    15    8    9 1
    16    8   10 1
    17    8   30 1
    18    9   31 1
    19   10   11 1
    20   10   12 1
    21   10   32 1
    22   12   13 1
    23   12   33 1
    24   12   34 1
    25   13   35 1
    26   14   36 1
    27   14   15 am
    28   15   16 2
    29   15   17 1
    30   17   18 2
    31   17   37 1
    32   18   38 1
    33   18   19 1
    34   19   20 ar
    35   19   24 ar
    36   20   21 ar
    37   20   39 1
    38   21   40 1
    39   21   22 ar
    40   22   23 ar
    41   23   24 ar
    42   24   41 1
@<TRIPOS>SUBSTRUCTURE
     1 62C     1 RESIDUE           4 A     62C     0 ROOT
