@<TRIPOS>MOLECULE
Lig_5hfu.pdb
37 40 1 0 0
SMALL
NO_CHARGES


@<TRIPOS>ATOM
      1 C1         29.0180    1.5000  -62.6240 C.1       1 603    0.0000
      2 C2         32.9500   -2.3410  -70.4340 C.ar      1 603    0.0000
      3 C3         32.6020   -3.6340  -70.1010 C.ar      1 603    0.0000
      4 C4         33.0180   -1.3440  -69.4870 C.ar      1 603    0.0000
      5 C5         31.2570   -4.7030  -64.6880 C.ar      1 603    0.0000
      6 C6         30.0960    1.9980  -60.4870 C.ar      1 603    0.0000
      7 C7         30.7360    3.2150  -62.4350 C.ar      1 603    0.0000
      8 C8         32.3150   -3.9560  -68.7940 C.ar      1 603    0.0000
      9 C9         32.7290   -1.6820  -68.1830 C.ar      1 603    0.0000
     10 C10        31.5820   -4.4880  -66.0120 C.ar      1 603    0.0000
     11 C11        31.4160   -3.7030  -63.7490 C.ar      1 603    0.0000
     12 C12        31.0020    2.7110  -59.7240 C.ar      1 603    0.0000
     13 C13        31.6490    3.9320  -61.6880 C.ar      1 603    0.0000
     14 C14        32.2440   -2.2650  -65.4870 C.ar      1 603    0.0000
     15 C15        29.9610    2.2450  -61.8380 C.ar      1 603    0.0000
     16 C16        32.3810   -2.9760  -67.8200 C.ar      1 603    0.0000
     17 C17        32.0760   -3.2640  -66.4250 C.ar      1 603    0.0000
     18 C18        31.9200   -2.4950  -64.1740 C.ar      1 603    0.0000
     19 C19        31.7760    3.6730  -60.3360 C.ar      1 603    0.0000
     20 C20        32.1070   -1.3940  -63.2400 C.2       1 603    0.0000
     21 C21        33.4260    0.5630  -62.8300 C.3       1 603    0.0000
     22 C22        34.6650    1.1870  -63.4100 C.3       1 603    0.0000
     23 C23        34.7920    2.5230  -62.7470 C.3       1 603    0.0000
     24 C24        35.0740    2.2950  -61.2820 C.3       1 603    0.0000
     25 C25        33.6070    0.4250  -61.3390 C.3       1 603    0.0000
     26 C26        35.1620    3.6460  -60.6120 C.3       1 603    0.0000
     27 N27        28.2690    0.8880  -63.2690 N.1       1 603    0.0000
     28 N28        33.2740   -0.7300  -63.4230 N.am      1 603    0.0000
     29 N29        34.3310    3.5600  -59.4040 N.pl3     1 603    0.0000
     30 O30        31.2640   -1.1090  -62.4110 O.2       1 603    0.0000
     31 O31        33.3720    5.7860  -60.0750 O.2       1 603    0.0000
     32 O32        32.4750    4.6350  -57.9990 O.2       1 603    0.0000
     33 O33        33.9400    1.6580  -60.7100 O.3       1 603    0.0000
     34 O34        34.4640    1.4120  -64.7900 O.3       1 603    0.0000
     35 O35        35.8780    3.1940  -63.3560 O.3       1 603    0.0000
     36 O36        34.6380   -0.5100  -61.1200 O.3       1 603    0.0000
     37 S37        32.9640    4.5910  -59.3630 S.o2      1 603    0.0000
@<TRIPOS>BOND
     1    1   15 1
     2    1   27 3
     3    2    3 ar
     4    2    4 ar
     5    3    8 ar
     6    4    9 ar
     7    5   10 ar
     8    5   11 ar
     9    6   12 ar
    10    6   15 ar
    11    7   13 ar
    12    7   15 ar
    13    8   16 ar
    14    9   16 ar
    15   10   17 ar
    16   11   18 ar
    17   12   19 ar
    18   13   19 ar
    19   14   17 ar
    20   14   18 ar
    21   16   17 1
    22   18   20 1
    23   19   37 1
    24   20   28 am
    25   20   30 2
    26   21   22 1
    27   21   25 1
    28   21   28 1
    29   22   23 1
    30   22   34 1
    31   23   24 1
    32   23   35 1
    33   24   26 1
    34   24   33 1
    35   25   33 1
    36   25   36 1
    37   26   29 1
    38   29   37 1
    39   31   37 2
    40   32   37 2
@<TRIPOS>SUBSTRUCTURE
     1 603     1 RESIDUE           4 A     603     0 ROOT
