@<TRIPOS>MOLECULE
Lig_5hex.pdb
33 35 1 0 0
SMALL
NO_CHARGES


@<TRIPOS>ATOM
      1 C1         34.4600    0.4030  -61.4630 C.3       1 604    0.0000
      2 C1A        31.4480   -4.1500  -65.6180 C.ar      1 604    0.0000
      3 O1         35.5110   -0.4990  -61.1620 O.3       1 604    0.0000
      4 C2         34.2620    0.5920  -62.9480 C.3       1 604    0.0000
      5 C2A        31.5420   -3.0050  -64.8510 C.ar      1 604    0.0000
      6 N2         34.0600   -0.6570  -63.6450 N.am      1 604    0.0000
      7 C3         35.4470    1.3580  -63.4970 C.3       1 604    0.0000
      8 C3A        32.5930   -4.7780  -66.0400 C.ar      1 604    0.0000
      9 O3         35.3190    1.5200  -64.9050 O.3       1 604    0.0000
     10 C4         35.4990    2.6980  -62.7960 C.3       1 604    0.0000
     11 C4A        33.9180   -3.1030  -64.9360 C.ar      1 604    0.0000
     12 O4         36.6120    3.4100  -63.2990 O.3       1 604    0.0000
     13 C5         35.7180    2.4380  -61.3250 C.3       1 604    0.0000
     14 C5A        33.6680    5.9620  -57.1000 C.ar      1 604    0.0000
     15 O5         34.6550    1.6550  -60.8130 O.3       1 604    0.0000
     16 C6         35.7770    3.7080  -60.4950 C.3       1 604    0.0000
     17 C6A        32.7650   -2.4820  -64.5170 C.ar      1 604    0.0000
     18 C7         34.2580    7.1740  -56.6870 C.ar      1 604    0.0000
     19 C8         33.8240   -4.2540  -65.6940 C.ar      1 604    0.0000
     20 C9         34.7710    7.8040  -57.7890 C.ar      1 604    0.0000
     21 C10        33.8570    5.9180  -58.4620 C.ar      1 604    0.0000
     22 C11        32.8240   -1.2630  -63.7010 C.2       1 604    0.0000
     23 C12        34.2960    7.6700  -55.2570 C.2       1 604    0.0000
     24 C18        35.4850    9.0730  -57.9450 C.3       1 604    0.0000
     25 N21        34.6110    4.5690  -60.7660 N.pl3     1 604    0.0000
     26 O22        34.7110    8.8530  -55.0920 O.co2     1 604    0.0000
     27 O23        31.8220   -0.8920  -63.1150 O.2       1 604    0.0000
     28 O24        33.8950    6.8060  -54.4280 O.co2     1 604    0.0000
     29 O25        33.1760    3.5180  -58.7810 O.2       1 604    0.0000
     30 O26        32.1930    5.3290  -60.1640 O.2       1 604    0.0000
     31 O27        34.5270    7.0310  -58.8860 O.2       1 604    0.0000
     32 S32        33.3610    4.7070  -59.5870 S.o2      1 604    0.0000
     33 BR         35.4060   -5.1490  -66.2810 Br        1 604    0.0000
@<TRIPOS>BOND
     1    1    3 1
     2    1   15 1
     3    1    4 1
     4    2    5 ar
     5    2    8 ar
     6    4    6 1
     7    4    7 1
     8    5   17 ar
     9    6   22 am
    10    7    9 1
    11    7   10 1
    12    8   19 ar
    13   10   12 1
    14   10   13 1
    15   11   17 ar
    16   11   19 ar
    17   13   15 1
    18   13   16 1
    19   14   18 ar
    20   14   21 ar
    21   16   25 1
    22   17   22 1
    23   18   20 ar
    24   18   23 1
    25   19   33 1
    26   20   24 1
    27   20   31 ar
    28   21   31 ar
    29   21   32 1
    30   22   27 2
    31   23   26 2
    32   23   28 2
    33   25   32 1
    34   29   32 2
    35   30   32 2
@<TRIPOS>SUBSTRUCTURE
     1 604     1 RESIDUE           4 A     604     0 ROOT
@<TRIPOS>MOLECULE
Lig_5hfu.pdb
37 40 1 0 0
SMALL
NO_CHARGES


@<TRIPOS>ATOM
      1 C1         29.0180    1.5000  -62.6240 C.1       1 603    0.0000
      2 C2         32.9500   -2.3410  -70.4340 C.ar      1 603    0.0000
      3 C3         32.6020   -3.6340  -70.1010 C.ar      1 603    0.0000
      4 C4         33.0180   -1.3440  -69.4870 C.ar      1 603    0.0000
      5 C5         31.2570   -4.7030  -64.6880 C.ar      1 603    0.0000
      6 C6         30.0960    1.9980  -60.4870 C.ar      1 603    0.0000
      7 C7         30.7360    3.2150  -62.4350 C.ar      1 603    0.0000
      8 C8         32.3150   -3.9560  -68.7940 C.ar      1 603    0.0000
      9 C9         32.7290   -1.6820  -68.1830 C.ar      1 603    0.0000
     10 C10        31.5820   -4.4880  -66.0120 C.ar      1 603    0.0000
     11 C11        31.4160   -3.7030  -63.7490 C.ar      1 603    0.0000
     12 C12        31.0020    2.7110  -59.7240 C.ar      1 603    0.0000
     13 C13        31.6490    3.9320  -61.6880 C.ar      1 603    0.0000
     14 C14        32.2440   -2.2650  -65.4870 C.ar      1 603    0.0000
     15 C15        29.9610    2.2450  -61.8380 C.ar      1 603    0.0000
     16 C16        32.3810   -2.9760  -67.8200 C.ar      1 603    0.0000
     17 C17        32.0760   -3.2640  -66.4250 C.ar      1 603    0.0000
     18 C18        31.9200   -2.4950  -64.1740 C.ar      1 603    0.0000
     19 C19        31.7760    3.6730  -60.3360 C.ar      1 603    0.0000
     20 C20        32.1070   -1.3940  -63.2400 C.2       1 603    0.0000
     21 C21        33.4260    0.5630  -62.8300 C.3       1 603    0.0000
     22 C22        34.6650    1.1870  -63.4100 C.3       1 603    0.0000
     23 C23        34.7920    2.5230  -62.7470 C.3       1 603    0.0000
     24 C24        35.0740    2.2950  -61.2820 C.3       1 603    0.0000
     25 C25        33.6070    0.4250  -61.3390 C.3       1 603    0.0000
     26 C26        35.1620    3.6460  -60.6120 C.3       1 603    0.0000
     27 N27        28.2690    0.8880  -63.2690 N.1       1 603    0.0000
     28 N28        33.2740   -0.7300  -63.4230 N.am      1 603    0.0000
     29 N29        34.3310    3.5600  -59.4040 N.pl3     1 603    0.0000
     30 O30        31.2640   -1.1090  -62.4110 O.2       1 603    0.0000
     31 O31        33.3720    5.7860  -60.0750 O.2       1 603    0.0000
     32 O32        32.4750    4.6350  -57.9990 O.2       1 603    0.0000
     33 O33        33.9400    1.6580  -60.7100 O.3       1 603    0.0000
     34 O34        34.4640    1.4120  -64.7900 O.3       1 603    0.0000
     35 O35        35.8780    3.1940  -63.3560 O.3       1 603    0.0000
     36 O36        34.6380   -0.5100  -61.1200 O.3       1 603    0.0000
     37 S37        32.9640    4.5910  -59.3630 S.o2      1 603    0.0000
@<TRIPOS>BOND
     1    1   15 1
     2    1   27 3
     3    2    3 ar
     4    2    4 ar
     5    3    8 ar
     6    4    9 ar
     7    5   10 ar
     8    5   11 ar
     9    6   12 ar
    10    6   15 ar
    11    7   13 ar
    12    7   15 ar
    13    8   16 ar
    14    9   16 ar
    15   10   17 ar
    16   11   18 ar
    17   12   19 ar
    18   13   19 ar
    19   14   17 ar
    20   14   18 ar
    21   16   17 1
    22   18   20 1
    23   19   37 1
    24   20   28 am
    25   20   30 2
    26   21   22 1
    27   21   25 1
    28   21   28 1
    29   22   23 1
    30   22   34 1
    31   23   24 1
    32   23   35 1
    33   24   26 1
    34   24   33 1
    35   25   33 1
    36   25   36 1
    37   26   29 1
    38   29   37 1
    39   31   37 2
    40   32   37 2
@<TRIPOS>SUBSTRUCTURE
     1 603     1 RESIDUE           4 A     603     0 ROOT
@<TRIPOS>MOLECULE
Lig_5hg1.pdb
41 42 1 0 0
SMALL
NO_CHARGES


@<TRIPOS>ATOM
      1 CL1        35.4130  -62.5260   -9.8110 Cl        1 62C    0.0000
      2 CL2        35.2960  -63.1350  -12.9420 Cl        1 62C    0.0000
      3 C1         43.4460  -56.3940   -8.8440 C.3       1 62C    0.0000
      4 O1         44.3340  -57.4360   -9.0910 O.3       1 62C    0.0000
      5 C2         42.6840  -56.0580  -10.1230 C.3       1 62C    0.0000
      6 C3         43.6690  -55.6200  -11.2020 C.3       1 62C    0.0000
      7 O3         42.9500  -55.1360  -12.3230 O.3       1 62C    0.0000
      8 C4         44.5820  -54.5110  -10.6840 C.3       1 62C    0.0000
      9 O4         45.6240  -54.2980  -11.6290 O.3       1 62C    0.0000
     10 C5         45.1810  -54.8550   -9.3130 C.3       1 62C    0.0000
     11 O5         44.1430  -55.2580   -8.4100 O.3       1 62C    0.0000
     12 C6         45.8660  -53.6830   -8.6530 C.3       1 62C    0.0000
     13 O6         45.0100  -52.5500   -8.6110 O.3       1 62C    0.0000
     14 N7         41.8880  -57.1930  -10.5690 N.am      1 62C    0.0000
     15 C8         40.5710  -57.2910  -10.2630 C.2       1 62C    0.0000
     16 O9         39.9790  -56.4150   -9.6100 O.2       1 62C    0.0000
     17 C10        39.8920  -58.5050  -10.7720 C.2       1 62C    0.0000
     18 C11        38.5650  -58.5550  -10.8690 C.2       1 62C    0.0000
     19 C12        37.7690  -59.6850  -11.3650 C.ar      1 62C    0.0000
     20 C13        37.7000  -59.9650  -12.7280 C.ar      1 62C    0.0000
     21 C14        36.9440  -61.0200  -13.2040 C.ar      1 62C    0.0000
     22 C15        36.2360  -61.8150  -12.3190 C.ar      1 62C    0.0000
     23 C16        36.2870  -61.5450  -10.9550 C.ar      1 62C    0.0000
     24 C17        37.0460  -60.4900  -10.4800 C.ar      1 62C    0.0000
     25 H11        42.8140  -56.6610   -8.1580 H         1 62C    0.0000
     26 H12        44.9070  -57.4740   -8.4650 H         1 62C    0.0000
     27 H21        42.0870  -55.3160   -9.9360 H         1 62C    0.0000
     28 H31        44.2100  -56.3800  -11.4670 H         1 62C    0.0000
     29 H32        42.6890  -54.3420  -12.1700 H         1 62C    0.0000
     30 H41        44.0620  -53.6960  -10.6000 H         1 62C    0.0000
     31 H42        45.3500  -54.5090  -12.4060 H         1 62C    0.0000
     32 H51        45.8120  -55.5840   -9.4160 H         1 62C    0.0000
     33 H61        46.6670  -53.4610   -9.1540 H         1 62C    0.0000
     34 H62        46.1150  -53.9280   -7.7480 H         1 62C    0.0000
     35 H63        44.2020  -52.8080   -8.5650 H         1 62C    0.0000
     36 H71        42.2640  -57.8210  -11.0200 H         1 62C    0.0000
     37 H101       40.3990  -59.2390  -11.0320 H         1 62C    0.0000
     38 H111       38.0970  -57.7970  -10.6030 H         1 62C    0.0000
     39 H131       38.1720  -59.4340  -13.3280 H         1 62C    0.0000
     40 H141       36.9120  -61.1960  -14.1160 H         1 62C    0.0000
     41 H171       37.0760  -60.3170   -9.5670 H         1 62C    0.0000
@<TRIPOS>BOND
     1    1   23 1
     2    2   22 1
     3    3    4 1
     4    3   11 1
     5    3   25 1
     6    3    5 1
     7    4   26 1
     8    5    6 1
     9    5   27 1
    10    5   14 1
    11    6    7 1
    12    6   28 1
    13    6    8 1
    14    7   29 1
    15    8    9 1
    16    8   10 1
    17    8   30 1
    18    9   31 1
    19   10   11 1
    20   10   12 1
    21   10   32 1
    22   12   13 1
    23   12   33 1
    24   12   34 1
    25   13   35 1
    26   14   36 1
    27   14   15 am
    28   15   16 2
    29   15   17 1
    30   17   18 2
    31   17   37 1
    32   18   38 1
    33   18   19 1
    34   19   20 ar
    35   19   24 ar
    36   20   21 ar
    37   20   39 1
    38   21   40 1
    39   21   22 ar
    40   22   23 ar
    41   23   24 ar
    42   24   41 1
@<TRIPOS>SUBSTRUCTURE
     1 62C     1 RESIDUE           4 A     62C     0 ROOT
