@<TRIPOS>MOLECULE
Unknown
   39    40     1    0    0
SMALL
USER_CHARGES

File created by VEGA 1.5.7
@<TRIPOS>ATOM
      1 C1         -6.4005   -7.8408    1.4664 C.ar      1 <0>1       -0.0609
      2 C2         -5.8075   -7.6246    2.7103 C.ar      1 <0>1       -0.0597
      3 C3         -6.3859   -6.8328    0.5022 C.ar      1 <0>1       -0.0460
      4 C4         -5.2001   -6.4006    2.9901 C.ar      1 <0>1       -0.0337
      5 C5         -2.1582   -2.7925    3.5521 C.ar      1 <0>1       -0.0321
      6 C6         -1.5453   -1.5758    3.8512 C.ar      1 <0>1       -0.0296
      7 C7         -2.7201   -1.9685    1.3516 C.ar      1 <0>1       -0.0284
      8 C8         -5.7785   -5.6088    0.7820 C.ar      1 <0>1        0.0748
      9 C9         -2.1077   -0.7840    1.6815 C.ar      1 <0>1       -0.0102
     10 C10        -2.7457   -2.9889    2.3023 C.ar      1 <0>1        0.0866
     11 C11        -5.1875   -5.3965    2.0250 C.ar      1 <0>1        0.0997
     12 C12        -1.5198   -0.5553    2.9005 C.ar      1 <0>1        0.0764
     13 C13        -5.7761   -4.5580   -0.2525 C.2       1 <0>1        0.2118
     14 C14        -2.8078   -0.1574   -0.6558 C.3       1 <0>1       -0.0560
     15 C15        -0.6306    0.6956    0.2759 C.3       1 <0>1       -0.0560
     16 C16        -2.7925    1.6314    1.0710 C.3       1 <0>1       -0.0560
     17 C17        -2.0904    0.3299    0.6216 C.3       1 <0>1       -0.0102
     18 N1         -3.3600   -4.2089    2.0028 N.2       1 <0>1       -0.1493
     19 N2         -4.5704   -4.1704    2.3265 N.2       1 <0>1       -0.1485
     20 O1         -5.2141   -3.4316    0.0133 O.co2     1 <0>1       -0.6439
     21 O2         -6.3365   -4.8049   -1.3840 O.co2     1 <0>1       -0.6439
     22 O3         -0.9158    0.6264    3.2085 O.3       1 <0>1       -0.3595
     23 H1         -6.8743   -8.7934    1.2489 H         1 <0>1        0.0618
     24 H2         -5.8199   -8.4092    3.4611 H         1 <0>1        0.0618
     25 H3         -6.8512   -7.0124   -0.4637 H         1 <0>1        0.0626
     26 H4         -4.7410   -6.2414    3.9625 H         1 <0>1        0.0639
     27 H5         -2.1734   -3.5820    4.2990 H         1 <0>1        0.0640
     28 H6         -1.0889   -1.4294    4.8265 H         1 <0>1        0.0644
     29 H7         -3.1787   -2.1220    0.3773 H         1 <0>1        0.0643
     30 H8         -2.8394    0.6312   -1.4167 H         1 <0>1        0.0238
     31 H9         -2.3069   -1.0197   -1.1095 H         1 <0>1        0.0238
     32 H10        -3.8411   -0.4536   -0.4392 H         1 <0>1        0.0238
     33 H11        -0.0837   -0.1480   -0.1590 H         1 <0>1        0.0238
     34 H12        -0.5900    1.5135   -0.4530 H         1 <0>1        0.0238
     35 H13        -0.0825    1.0176    1.1693 H         1 <0>1        0.0238
     36 H14        -2.7538    2.3934    0.2832 H         1 <0>1        0.0238
     37 H15        -3.8506    1.4604    1.3014 H         1 <0>1        0.0238
     38 H16        -2.3147    2.0618    1.9588 H         1 <0>1        0.0238
     39 H17        -1.2766    0.9814    4.0360 H         1 <0>1        0.2173
@<TRIPOS>BOND
     1    1    2 ar
     2    1    3 ar
     3    1   23 1
     4    2    4 ar
     5    2   24 1
     6    3    8 ar
     7    3   25 1
     8    4   11 ar
     9    4   26 1
    10    5    6 ar
    11    5   10 ar
    12    5   27 1
    13    6   12 ar
    14    6   28 1
    15    7    9 ar
    16    7   10 ar
    17    7   29 1
    18    8   11 ar
    19    8   13 1
    20    9   12 ar
    21    9   17 1
    22   10   18 1
    23   11   19 1
    24   12   22 1
    25   13   20 1
    26   13   21 2
    27   14   17 1
    28   14   30 1
    29   14   31 1
    30   14   32 1
    31   15   17 1
    32   15   33 1
    33   15   34 1
    34   15   35 1
    35   16   17 1
    36   16   36 1
    37   16   37 1
    38   16   38 1
    39   18   19 2
    40   22   39 1
@<TRIPOS>SUBSTRUCTURE
     1 <0>1        1 RESIDUE           1 A     <0>     0 ROOT

@<TRIPOS>MOLECULE
Unknown
   30    31     1    0    0
SMALL
USER_CHARGES

File created by VEGA 1.5.7
@<TRIPOS>ATOM
      1 C1          1.3449   -0.3967   -0.1312 C.ar      1 <0>1       -0.0609
      2 C2          0.2661    0.1766    0.5419 C.ar      1 <0>1       -0.0597
      3 C3          2.3807   -0.9910    0.5897 C.ar      1 <0>1       -0.0460
      4 C4          0.2230    0.1556    1.9359 C.ar      1 <0>1       -0.0337
      5 C5         -0.5400   -0.9165    6.5002 C.ar      1 <0>1       -0.0321
      6 C6         -0.6019   -0.9276    7.8936 C.ar      1 <0>1       -0.0296
      7 C7          1.5731   -2.0848    6.5849 C.ar      1 <0>1       -0.0292
      8 C8          2.3376   -1.0120    1.9837 C.ar      1 <0>1        0.0748
      9 C9          1.5111   -2.0959    7.9784 C.ar      1 <0>1       -0.0187
     10 C10         0.5472   -1.4951    5.8528 C.ar      1 <0>1        0.0866
     11 C11         1.2588   -0.4387    2.6569 C.ar      1 <0>1        0.0997
     12 C12         0.4236   -1.5173    8.6327 C.ar      1 <0>1        0.0756
     13 C13         3.4444   -1.6452    2.7244 C.2       1 <0>1        0.2118
     14 C14         2.6182   -2.7303    8.7535 C.3       1 <0>1       -0.0372
     15 N1          0.6094   -1.4838    4.4488 N.2       1 <0>1       -0.1493
     16 N2          1.1969   -0.4494    4.0564 N.2       1 <0>1       -0.1485
     17 O1          3.3974   -1.6602    4.0100 O.co2     1 <0>1       -0.6439
     18 O2          4.4176   -2.1598    2.0587 O.co2     1 <0>1       -0.6439
     19 O3          0.3467   -1.5206    9.9930 O.3       1 <0>1       -0.3596
     20 H1          1.3789   -0.3795   -1.2165 H         1 <0>1        0.0618
     21 H2         -0.5396    0.6401   -0.0196 H         1 <0>1        0.0618
     22 H3          3.2165   -1.4347    0.0546 H         1 <0>1        0.0626
     23 H4         -0.6217    0.6053    2.4515 H         1 <0>1        0.0639
     24 H5         -1.3435   -0.4548    5.9324 H         1 <0>1        0.0640
     25 H6         -1.4522   -0.4757    8.3973 H         1 <0>1        0.0644
     26 H7          2.4210   -2.5355    6.0742 H         1 <0>1        0.0643
     27 H8          3.1362   -1.9790    9.3612 H         1 <0>1        0.0278
     28 H9          2.2378   -3.5155    9.4187 H         1 <0>1        0.0278
     29 H10         3.3490   -3.2041    8.0862 H         1 <0>1        0.0278
     30 H11        -0.3520   -0.9171   10.2905 H         1 <0>1        0.2173
@<TRIPOS>BOND
     1    1    2 ar
     2    1    3 ar
     3    1   20 1
     4    2    4 ar
     5    2   21 1
     6    3    8 ar
     7    3   22 1
     8    4   11 ar
     9    4   23 1
    10    5    6 ar
    11    5   10 ar
    12    5   24 1
    13    6   12 ar
    14    6   25 1
    15    7    9 ar
    16    7   10 ar
    17    7   26 1
    18    8   11 ar
    19    8   13 1
    20    9   12 ar
    21    9   14 1
    22   10   15 1
    23   11   16 1
    24   12   19 1
    25   13   17 1
    26   13   18 2
    27   14   27 1
    28   14   28 1
    29   14   29 1
    30   15   16 2
    31   19   30 1
@<TRIPOS>SUBSTRUCTURE
     1 <0>1        1 RESIDUE           1 A     <0>     0 ROOT

@<TRIPOS>MOLECULE
Unknown
   35    36     1    0    0
SMALL
USER_CHARGES

File created by VEGA 1.5.7
@<TRIPOS>ATOM
      1 C1          1.8886   -1.0415   -0.1123 C.ar      1 <0>1       -0.0609
      2 C2          2.9044   -1.6258    0.6442 C.ar      1 <0>1       -0.0597
      3 C3          0.7930   -0.4577    0.5237 C.ar      1 <0>1       -0.0460
      4 C4          2.8246   -1.6263    2.0368 C.ar      1 <0>1       -0.0337
      5 C5          1.0679    0.5415    6.5830 C.ar      1 <0>1       -0.0018
      6 C6          3.1809   -0.6268    6.6672 C.ar      1 <0>1       -0.0018
      7 C7          0.7131   -0.4583    1.9162 C.ar      1 <0>1        0.0748
      8 C8          1.7289   -1.0426    2.6728 C.ar      1 <0>1        0.0997
      9 C9          2.1550   -0.0370    5.9353 C.ar      1 <0>1        0.0912
     10 C10         1.0061    0.5303    7.9764 C.ar      1 <0>1        0.1100
     11 C11         3.1192   -0.6380    8.0607 C.ar      1 <0>1        0.1100
     12 C12         2.0317   -0.0595    8.7153 C.ar      1 <0>1        0.1331
     13 C13        -0.4550    0.1642    2.5663 C.2       1 <0>1        0.2118
     14 C14        -1.1826    0.2578    8.8659 C.3       1 <0>1        0.0431
     15 C15         3.9944   -2.6042    9.0725 C.3       1 <0>1        0.0431
     16 N1          1.6674   -1.0535    4.0723 N.2       1 <0>1       -0.1485
     17 N2          2.2172   -0.0257    4.5313 N.2       1 <0>1       -0.1491
     18 O1         -0.5214    0.1593    3.8511 O.co2     1 <0>1       -0.6439
     19 O2         -1.3662    0.6896    1.8254 O.co2     1 <0>1       -0.6439
     20 O3          1.9715   -0.0701   10.0774 O.3       1 <0>1       -0.3554
     21 O4         -0.0613    1.0991    8.6034 O.3       1 <0>1       -0.3452
     22 O5          4.1277   -1.2168    8.7705 O.3       1 <0>1       -0.3452
     23 H1          1.9503   -1.0419   -1.1966 H         1 <0>1        0.0618
     24 H2          3.7568   -2.0811    0.1488 H         1 <0>1        0.0618
     25 H3          0.0072   -0.0053   -0.0761 H         1 <0>1        0.0626
     26 H4          3.6209   -2.0845    2.6178 H         1 <0>1        0.0639
     27 H5          0.2670    1.0020    6.0093 H         1 <0>1        0.0666
     28 H6          4.0298   -1.0784    6.1593 H         1 <0>1        0.0666
     29 H7         -0.8380   -0.6870    9.2935 H         1 <0>1        0.0529
     30 H8         -1.7258    0.0724    7.9358 H         1 <0>1        0.0529
     31 H9         -1.8433    0.7579    9.5780 H         1 <0>1        0.0529
     32 H10         4.5197   -3.1944    8.3175 H         1 <0>1        0.0529
     33 H11         2.9355   -2.8742    9.0895 H         1 <0>1        0.0529
     34 H12         4.4337   -2.7982   10.0538 H         1 <0>1        0.0529
     35 H13         1.2741    0.5290   10.3855 H         1 <0>1        0.2175
@<TRIPOS>BOND
     1    1    2 ar
     2    1    3 ar
     3    1   23 1
     4    2    4 ar
     5    2   24 1
     6    3    7 ar
     7    3   25 1
     8    4    8 ar
     9    4   26 1
    10    5    9 ar
    11    5   10 ar
    12    5   27 1
    13    6    9 ar
    14    6   11 ar
    15    6   28 1
    16    7    8 ar
    17    7   13 1
    18    8   16 1
    19    9   17 1
    20   10   12 ar
    21   10   21 1
    22   11   12 ar
    23   11   22 1
    24   12   20 1
    25   13   18 1
    26   13   19 2
    27   14   21 1
    28   14   29 1
    29   14   30 1
    30   14   31 1
    31   15   22 1
    32   15   32 1
    33   15   33 1
    34   15   34 1
    35   16   17 2
    36   20   35 1
@<TRIPOS>SUBSTRUCTURE
     1 <0>1        1 RESIDUE           1 A     <0>     0 ROOT

@<TRIPOS>MOLECULE
Unknown
   33    34     1    0    0
SMALL
USER_CHARGES

File created by VEGA 1.5.7
@<TRIPOS>ATOM
      1 C1          2.9543    1.0639   -0.0483 C.ar      1 <0>1       -0.0609
      2 C2          1.8752    1.6368    0.6248 C.ar      1 <0>1       -0.0597
      3 C3          3.9898    0.4692    0.6727 C.ar      1 <0>1       -0.0460
      4 C4          1.8316    1.6150    2.0188 C.ar      1 <0>1       -0.0337
      5 C5          1.0678    0.5416    6.5830 C.ar      1 <0>1       -0.0292
      6 C6          3.1809   -0.6267    6.6675 C.ar      1 <0>1       -0.0292
      7 C7          3.9462    0.4474    2.0667 C.ar      1 <0>1        0.0748
      8 C8          1.0060    0.5305    7.9764 C.ar      1 <0>1       -0.0184
      9 C9          3.1191   -0.6378    8.0609 C.ar      1 <0>1       -0.0184
     10 C10         2.8671    1.0203    2.7398 C.ar      1 <0>1        0.0997
     11 C11         2.1550   -0.0370    5.9353 C.ar      1 <0>1        0.0868
     12 C12         2.0316   -0.0592    8.7154 C.ar      1 <0>1        0.0785
     13 C13         5.0527   -0.1862    2.8074 C.2       1 <0>1        0.2118
     14 C14        -0.1673    1.1531    8.6590 C.3       1 <0>1       -0.0372
     15 C15         4.2273   -1.2728    8.8347 C.3       1 <0>1       -0.0372
     16 N1          2.8047    1.0088    4.1392 N.2       1 <0>1       -0.1485
     17 N2          2.2172   -0.0257    4.5313 N.2       1 <0>1       -0.1493
     18 O1          5.0053   -0.2019    4.0930 O.co2     1 <0>1       -0.6439
     19 O2          6.0262   -0.7005    2.1418 O.co2     1 <0>1       -0.6439
     20 O3          1.9708   -0.0706   10.0778 O.3       1 <0>1       -0.3593
     21 H1          2.9887    1.0817   -1.1336 H         1 <0>1        0.0618
     22 H2          1.0697    2.1006    0.0632 H         1 <0>1        0.0618
     23 H3          4.8258    0.0258    0.1376 H         1 <0>1        0.0626
     24 H4          0.9868    2.0644    2.5343 H         1 <0>1        0.0639
     25 H5          0.2684    1.0015    6.0064 H         1 <0>1        0.0643
     26 H6          4.0285   -1.0775    6.1563 H         1 <0>1        0.0643
     27 H7         -0.1328    0.9491    9.7355 H         1 <0>1        0.0278
     28 H8         -0.1824    2.2397    8.5094 H         1 <0>1        0.0278
     29 H9         -1.1115    0.7627    8.2593 H         1 <0>1        0.0278
     30 H10         4.7449   -0.5219    9.4430 H         1 <0>1        0.0278
     31 H11         3.8474   -2.0591    9.4987 H         1 <0>1        0.0278
     32 H12         4.9577   -1.7451    8.1661 H         1 <0>1        0.0278
     33 H13         1.2736    0.5287   10.3857 H         1 <0>1        0.2173
@<TRIPOS>BOND
     1    1    2 ar
     2    1    3 ar
     3    1   21 1
     4    2    4 ar
     5    2   22 1
     6    3    7 ar
     7    3   23 1
     8    4   10 ar
     9    4   24 1
    10    5    8 ar
    11    5   11 ar
    12    5   25 1
    13    6    9 ar
    14    6   11 ar
    15    6   26 1
    16    7   10 ar
    17    7   13 1
    18    8   12 ar
    19    8   14 1
    20    9   12 ar
    21    9   15 1
    22   10   16 1
    23   11   17 1
    24   12   20 1
    25   13   18 1
    26   13   19 2
    27   14   27 1
    28   14   28 1
    29   14   29 1
    30   15   30 1
    31   15   31 1
    32   15   32 1
    33   16   17 2
    34   20   33 1
@<TRIPOS>SUBSTRUCTURE
     1 <0>1        1 RESIDUE           1 A     <0>     0 ROOT

@<TRIPOS>MOLECULE
Unknown
   33    35     1    0    0
SMALL
USER_CHARGES

File created by VEGA 1.5.7
@<TRIPOS>ATOM
      1 C1         -0.4966   -2.0341    0.4940 C.ar      1 <0>1       -0.0611
      2 C2          0.3500   -1.0275    0.0392 C.ar      1 <0>1       -0.0611
      3 C3         -1.3718   -9.3639    3.1753 C.ar      1 <0>1       -0.0609
      4 C4         -0.8490   -9.3658    1.8822 C.ar      1 <0>1       -0.0597
      5 C5         -0.0479   -3.3542    0.5448 C.ar      1 <0>1       -0.0519
      6 C6          1.6484   -1.3369   -0.3665 C.ar      1 <0>1       -0.0515
      7 C7         -1.0889   -8.3069    4.0405 C.ar      1 <0>1       -0.0460
      8 C8         -0.0431   -8.3108    1.4542 C.ar      1 <0>1       -0.0337
      9 C9          3.0228   -5.3167   -0.2210 C.ar      1 <0>1       -0.0315
     10 C10         3.8693   -4.3100   -0.6758 C.ar      1 <0>1       -0.0293
     11 C11         1.2560   -3.6839    0.1403 C.ar      1 <0>1        0.0117
     12 C12         2.1168   -2.6602   -0.3222 C.ar      1 <0>1        0.0139
     13 C13        -0.2830   -7.2519    3.6125 C.ar      1 <0>1        0.0748
     14 C14         1.7243   -5.0072    0.1848 C.ar      1 <0>1        0.0940
     15 C15         0.2373   -7.2572    2.3208 C.ar      1 <0>1        0.0997
     16 C16         3.4207   -2.9899   -0.7267 C.ar      1 <0>1        0.0804
     17 C17         0.0029   -6.1459    4.5449 C.2       1 <0>1        0.2118
     18 N1          0.9119   -6.0590    0.6348 N.2       1 <0>1       -0.1487
     19 N2          1.0513   -6.2038    1.8705 N.2       1 <0>1       -0.1485
     20 O1          0.7473   -5.1767    4.1427 O.co2     1 <0>1       -0.6439
     21 O2         -0.5019   -6.1897    5.7275 O.co2     1 <0>1       -0.6439
     22 O3          4.2877   -2.0367   -1.1797 O.3       1 <0>1       -0.3592
     23 H1         -1.5071   -1.7921    0.8100 H         1 <0>1        0.0618
     24 H2         -0.0002    0.0000    0.0005 H         1 <0>1        0.0618
     25 H3         -1.9985  -10.1857    3.5089 H         1 <0>1        0.0618
     26 H4         -1.0686  -10.1894    1.2092 H         1 <0>1        0.0618
     27 H5         -0.7383   -4.1133    0.9053 H         1 <0>1        0.0624
     28 H6          2.2837   -0.5261   -0.7165 H         1 <0>1        0.0624
     29 H7         -1.5018   -8.3159    5.0460 H         1 <0>1        0.0626
     30 H8          0.3601   -8.3215    0.4448 H         1 <0>1        0.0639
     31 H9          3.3833   -6.3417   -0.1853 H         1 <0>1        0.0640
     32 H10         4.8798   -4.5591   -0.9889 H         1 <0>1        0.0644
     33 H11         4.8118   -1.6882   -0.4431 H         1 <0>1        0.2173
@<TRIPOS>BOND
     1    1    2 ar
     2    1    5 ar
     3    1   23 1
     4    2    6 ar
     5    2   24 1
     6    3    4 ar
     7    3    7 ar
     8    3   25 1
     9    4    8 ar
    10    4   26 1
    11    5   11 ar
    12    5   27 1
    13    6   12 ar
    14    6   28 1
    15    7   13 ar
    16    7   29 1
    17    8   15 ar
    18    8   30 1
    19    9   10 ar
    20    9   14 ar
    21    9   31 1
    22   10   16 ar
    23   10   32 1
    24   11   12 ar
    25   11   14 ar
    26   12   16 ar
    27   13   15 ar
    28   13   17 1
    29   14   18 1
    30   15   19 1
    31   16   22 1
    32   17   20 1
    33   17   21 2
    34   18   19 2
    35   22   33 1
@<TRIPOS>SUBSTRUCTURE
     1 <0>1        1 RESIDUE           1 A     <0>     0 ROOT
