ATOM      1  C   UNL     1      87.827  17.935-104.168 -0.01 -0.00    +0.000 C 
ATOM      2  C   UNL     1      89.050  17.238-104.811 -0.24 -0.00    +0.000 C 
ATOM      3  C   UNL     1      89.970  18.319-105.409 -0.34 +0.00    +0.000 C 
ATOM      4  O   UNL     1      91.168  17.745-105.895 -0.42 +0.00    +0.000 OA
ATOM      5  C   UNL     1      92.144  18.728-106.243 -0.41 +0.00    +0.000 C 
ATOM      6  O   UNL     1      91.630  20.053-106.283 -0.83 +0.00    +0.000 OA
ATOM      7  C   UNL     1      91.202  20.445-104.991 -0.25 +0.00    +0.000 C 
ATOM      8  C   UNL     1      90.277  19.393-104.351 -0.36 +0.00    +0.000 C 
ATOM      9  O   UNL     1      89.079  20.000-103.901 -0.27 +0.00    +0.000 OA
ATOM     10  C   UNL     1      88.283  19.052-103.203 -0.18 +0.00    +0.000 C 
ENDROOT
BRANCH   5  11
ATOM     11  C   UNL     1      92.729  18.405-107.595 -0.40 +0.00    +0.000 A 
ATOM     12  C   UNL     1      92.478  19.254-108.690 -0.40 +0.00    +0.000 A 
ATOM     13  C   UNL     1      92.975  18.938-109.957 -0.46 +0.00    +0.000 A 
ATOM     14  C   UNL     1      93.723  17.771-110.145 -0.45 +0.00    +0.000 A 
ATOM     15  C   UNL     1      93.953  16.906-109.071 -0.55 +0.00    +0.000 A 
ATOM     16  C   UNL     1      93.450  17.214-107.803 -0.46 +0.00    +0.000 A 
ENDBRANCH   5  11
BRANCH   1  18
ATOM     17  C   UNL     1      86.434  15.932-103.980 -0.39 -0.00    +0.000 C 
ATOM     18  N   UNL     1      87.003  16.969-103.440 -0.22 +0.00    +0.000 NA
BRANCH  17  19
ATOM     19  C   UNL     1      85.631  15.019-103.131 -0.30 +0.00    +0.000 A 
ATOM     20  C   UNL     1      86.154  14.501-101.931 -0.17 +0.00    +0.000 A 
ATOM     21  C   UNL     1      85.394  13.633-101.142 -0.22 +0.00    +0.000 A 
ATOM     22  C   UNL     1      84.108  13.266-101.542 -0.38 +0.00    +0.000 A 
ATOM     23  C   UNL     1      83.580  13.764-102.735 -0.49 +0.00    +0.000 A 
ATOM     24  C   UNL     1      84.336  14.632-103.529 -0.48 +0.00    +0.000 A 
ENDBRANCH  17  19
BRANCH  17  26
ATOM     25  H   UNL     1      86.719  14.759-105.726 -0.59 -0.00    +0.000 HD
ATOM     26  O   UNL     1      86.587  15.690-105.349 -0.88 -0.00    +0.000 OA
ENDBRANCH  17  26
ENDBRANCH   1  18
BRANCH  10  27
ATOM     27  O   UNL     1      87.130  19.695-102.693 -0.21 +0.00    +0.000 OA
ATOM     28  C   UNL     1      87.325  21.092-102.666 -0.19 +0.00    +0.000 C 
ENDBRANCH  10  27
BRANCH   2  29
ATOM     29  O   UNL     1      89.746  16.501-103.819 -0.35 +0.00    +0.000 OA
BRANCH  29  30
ATOM     30  S   UNL     1      89.868  14.860-104.250 -0.61 +0.00    +0.000 S 
ATOM     31  O   UNL     1      88.837  14.570-105.304 -0.70 -0.00    +0.000 OA
ATOM     32  O   UNL     1      89.605  13.968-103.066 -0.31 -0.00    +0.000 OA
ATOM     33  C   UNL     1      91.476  14.496-104.920 -0.41 +0.00    +0.000 C 
ENDBRANCH  29  30
ENDBRANCH   2  29
TORSDOF 7
TER
ENDMDL