ATOM      1  C   UNL     1      89.656  17.510-102.068 -0.28 +0.00    +0.000 C 
ATOM      2  O   UNL     1      90.131  16.343-102.727 -0.36 +0.00    +0.000 OA
ATOM      3  C   UNL     1      90.178  16.560-104.126 -0.40 +0.00    +0.000 C 
ATOM      4  C   UNL     1      90.550  15.262-104.867 -0.55 +0.00    +0.000 C 
ATOM      5  O   UNL     1      91.713  15.428-105.658 -0.64 +0.00    +0.000 OA
ATOM      6  C   UNL     1      91.550  16.539-106.534 -0.43 +0.00    +0.000 C 
ATOM      7  O   UNL     1      91.333  17.783-105.861 -0.43 +0.00    +0.000 OA
ATOM      8  C   UNL     1      91.238  17.621-104.460 -0.40 +0.00    +0.000 C 
ATOM      9  C   UNL     1      90.877  18.949-103.778 -0.11 +0.00    +0.000 C 
ATOM     10  C   UNL     1      90.645  18.686-102.272 -0.32 +0.00    +0.000 C 
ENDROOT
BRANCH   6  11
ATOM     11  C   UNL     1      92.768  16.628-107.427 -0.46 +0.00    +0.000 A 
ATOM     12  C   UNL     1      93.009  17.757-108.243 -0.41 +0.00    +0.000 A 
ATOM     13  C   UNL     1      94.145  17.804-109.056 -0.50 +0.00    +0.000 A 
ATOM     14  C   UNL     1      95.059  16.742-109.047 -0.57 +0.00    +0.000 A 
ATOM     15  C   UNL     1      94.844  15.634-108.221 -0.59 +0.00    +0.000 A 
ATOM     16  C   UNL     1      93.706  15.578-107.411 -0.39 +0.00    +0.000 A 
ENDBRANCH   6  11
BRANCH  10  17
ATOM     17  N   UNL     1      90.152  19.901-101.614 -0.31 +0.00    +0.000 N 
ATOM     18  C   UNL     1      90.714  20.381-100.380 -0.41 +0.00    +0.000 C 
ATOM     19  O   UNL     1      91.513  19.650 -99.733 -1.06 +0.00    +0.000 OA
ATOM     20  H   UNL     1      89.328  20.398-102.022 +0.00 +0.00    +0.000 HD
BRANCH  18  21
ATOM     21  C   UNL     1      90.355  21.715 -99.847 -0.27 +0.00    +0.000 A 
ATOM     22  C   UNL     1      90.355  21.941 -98.457 -0.20 +0.00    +0.000 A 
ATOM     23  C   UNL     1      90.019  23.198 -97.943 -0.18 +0.00    +0.000 A 
ATOM     24  C   UNL     1      89.686  24.242 -98.807 -0.13 +0.00    +0.000 A 
ATOM     25  C   UNL     1      89.698  24.036-100.189 -0.13 +0.00    +0.000 A 
ATOM     26  C   UNL     1      90.034  22.782-100.709 -0.18 +0.00    +0.000 A 
ENDBRANCH  18  21
ENDBRANCH  10  17
BRANCH   1  28
ATOM     27  C   UNL     1      89.575  15.856-100.447 -0.25 +0.00    +0.000 C 
ATOM     28  O   UNL     1      89.562  17.248-100.681 -0.28 +0.00    +0.000 OA
ENDBRANCH   1  28
BRANCH   9  29
ATOM     29  O   UNL     1      89.696  19.481-104.351 -0.32 +0.00    +0.000 OA
BRANCH  29  30
ATOM     30  S   UNL     1      90.069  20.463-105.684 -0.47 +0.00    +0.000 S 
ATOM     31  C   UNL     1      89.254  22.029-105.480 -0.29 +0.00    +0.000 C 
ATOM     32  O   UNL     1      89.584  19.823-106.958 -0.41 -0.00    +0.000 OA
ATOM     33  O   UNL     1      91.554  20.695-105.766 -0.95 +0.00    +0.000 OA
ENDBRANCH  29  30
ENDBRANCH   9  29
TORSDOF 6
TER
ENDMDL