ATOM      1  C   UNL     1      38.180   2.284 -61.989 -0.29 +0.00    +0.000 C 
ATOM      2  O   UNL     1      38.646   1.102 -62.626 -0.37 +0.00    +0.000 OA
ATOM      3  C   UNL     1      38.642   1.272 -64.032 -0.41 +0.00    +0.000 C 
ATOM      4  C   UNL     1      39.006  -0.045 -64.742 -0.56 +0.00    +0.000 C 
ATOM      5  O   UNL     1      40.138   0.109 -65.579 -0.64 +0.00    +0.000 OA
ATOM      6  C   UNL     1      39.930   1.188 -66.485 -0.38 +0.00    +0.000 C 
ATOM      7  O   UNL     1      39.721   2.451 -65.845 -0.43 +0.00    +0.000 OA
ATOM      8  C   UNL     1      39.677   2.334 -64.437 -0.43 +0.00    +0.000 C 
ATOM      9  C   UNL     1      39.323   3.680 -63.786 -0.13 +0.00    +0.000 C 
ATOM     10  C   UNL     1      39.146   3.464 -62.265 -0.31 +0.00    +0.000 C 
ENDROOT
BRANCH   6  11
ATOM     11  C   UNL     1      41.115   1.262 -67.421 -0.45 +0.00    +0.000 A 
ATOM     12  C   UNL     1      42.194   0.351 -67.327 -0.42 +0.00    +0.000 A 
ATOM     13  C   UNL     1      43.273   0.450 -68.209 -0.58 +0.00    +0.000 A 
ATOM     14  C   UNL     1      43.279   1.437 -69.204 -0.53 +0.00    +0.000 A 
ATOM     15  C   UNL     1      42.203   2.324 -69.323 -0.50 +0.00    +0.000 A 
ATOM     16  C   UNL     1      41.125   2.235 -68.438 -0.42 +0.00    +0.000 A 
ENDBRANCH   6  11
BRANCH  10  17
ATOM     17  N   UNL     1      38.661   4.694 -61.630 -0.32 +0.00    +0.000 N 
ATOM     18  C   UNL     1      39.167   5.148 -60.363 -0.40 +0.00    +0.000 C 
ATOM     19  O   UNL     1      39.899   4.385 -59.674 -0.97 +0.00    +0.000 OA
ATOM     20  H   UNL     1      37.881   5.223 -62.083 +0.00 +0.00    +0.000 HD
BRANCH  18  21
ATOM     21  C   UNL     1      38.827   6.493 -59.844 -0.27 +0.00    +0.000 A 
ATOM     22  C   UNL     1      38.963   6.772 -58.471 -0.22 +0.00    +0.000 A 
ATOM     23  C   UNL     1      38.646   8.039 -57.970 -0.19 +0.00    +0.000 A 
ATOM     24  C   UNL     1      38.197   9.042 -58.833 -0.13 +0.00    +0.000 A 
ATOM     25  C   UNL     1      38.073   8.782 -60.200 -0.13 +0.00    +0.000 A 
ATOM     26  C   UNL     1      38.390   7.517 -60.706 -0.19 +0.00    +0.000 A 
ENDBRANCH  18  21
ENDBRANCH  10  17
BRANCH   1  28
ATOM     27  C   UNL     1      38.027   0.686 -60.316 -0.25 +0.00    +0.000 C 
ATOM     28  O   UNL     1      38.138   2.067 -60.591 -0.30 +0.00    +0.000 OA
ENDBRANCH   1  28
BRANCH   9  29
ATOM     29  O   UNL     1      38.115   4.178 -64.335 -0.32 +0.00    +0.000 OA
BRANCH  29  30
ATOM     30  S   UNL     1      38.436   5.207 -65.646 -0.46 +0.00    +0.000 S 
ATOM     31  C   UNL     1      37.499   6.703 -65.434 -0.27 +0.00    +0.000 C 
ATOM     32  O   UNL     1      38.025   4.552 -66.938 -0.43 -0.00    +0.000 OA
ATOM     33  O   UNL     1      39.900   5.554 -65.696 -0.99 +0.00    +0.000 OA
ENDBRANCH  29  30
ENDBRANCH   9  29
TORSDOF 6
TER
ENDMDL