ATOM      1  C   UNL     1      36.338   2.676 -64.019 -0.04 -0.00    +0.000 C 
ATOM      2  C   UNL     1      37.544   2.018 -64.731 -0.23 -0.00    +0.000 C 
ATOM      3  C   UNL     1      38.418   3.131 -65.340 -0.34 +0.00    +0.000 C 
ATOM      4  O   UNL     1      39.604   2.592 -65.891 -0.42 +0.00    +0.000 OA
ATOM      5  C   UNL     1      40.547   3.602 -66.256 -0.46 +0.00    +0.000 C 
ATOM      6  O   UNL     1      40.007   4.917 -66.241 -0.84 +0.00    +0.000 OA
ATOM      7  C   UNL     1      39.629   5.269 -64.922 -0.29 +0.00    +0.000 C 
ATOM      8  C   UNL     1      38.751   4.185 -64.270 -0.37 +0.00    +0.000 C 
ATOM      9  O   UNL     1      37.563   4.757 -63.754 -0.27 +0.00    +0.000 OA
ATOM     10  C   UNL     1      36.815   3.777 -63.047 -0.18 +0.00    +0.000 C 
ENDROOT
BRANCH   5  11
ATOM     11  C   UNL     1      41.078   3.323 -67.640 -0.40 +0.00    +0.000 A 
ATOM     12  C   UNL     1      40.952   4.296 -68.649 -0.40 +0.00    +0.000 A 
ATOM     13  C   UNL     1      41.398   4.029 -69.947 -0.47 +0.00    +0.000 A 
ATOM     14  C   UNL     1      41.969   2.788 -70.249 -0.36 +0.00    +0.000 A 
ATOM     15  C   UNL     1      42.072   1.805 -69.261 -0.53 +0.00    +0.000 A 
ATOM     16  C   UNL     1      41.619   2.065 -67.964 -0.44 +0.00    +0.000 A 
ENDBRANCH   5  11
BRANCH   1  18
ATOM     17  C   UNL     1      34.962   0.662 -63.827 -0.39 -0.00    +0.000 C 
ATOM     18  N   UNL     1      35.563   1.677 -63.281 -0.22 +0.00    +0.000 NA
BRANCH  17  19
ATOM     19  C   UNL     1      34.216  -0.290 -62.968 -0.28 -0.00    +0.000 A 
ATOM     20  C   UNL     1      32.894  -0.661 -63.279 -0.49 +0.00    +0.000 A 
ATOM     21  C   UNL     1      32.195  -1.551 -62.458 -0.48 +0.00    +0.000 A 
ATOM     22  C   UNL     1      32.802  -2.076 -61.316 -0.36 +0.00    +0.000 A 
ATOM     23  C   UNL     1      34.109  -1.709 -60.989 -0.19 +0.00    +0.000 A 
ATOM     24  C   UNL     1      34.813  -0.819 -61.806 -0.16 +0.00    +0.000 A 
ENDBRANCH  17  19
BRANCH  17  26
ATOM     25  H   UNL     1      35.166  -0.431 -65.635 -0.59 -0.00    +0.000 HD
ATOM     26  O   UNL     1      35.027   0.478 -65.212 -0.86 -0.00    +0.000 OA
ENDBRANCH  17  26
ENDBRANCH   1  18
BRANCH  10  27
ATOM     27  O   UNL     1      35.674   4.386 -62.471 -0.20 +0.00    +0.000 OA
ATOM     28  C   UNL     1      35.779   5.790 -62.553 -0.19 +0.00    +0.000 C 
ENDBRANCH  10  27
BRANCH   2  29
ATOM     29  O   UNL     1      38.296   1.271 -63.789 -0.37 +0.00    +0.000 OA
BRANCH  29  30
ATOM     30  S   UNL     1      38.332  -0.378 -64.205 -0.62 +0.00    +0.000 S 
ATOM     31  O   UNL     1      37.287  -0.623 -65.257 -0.66 -0.00    +0.000 OA
ATOM     32  O   UNL     1      38.023  -1.245 -63.015 -0.36 -0.00    +0.000 OA
ATOM     33  C   UNL     1      39.919  -0.831 -64.872 -0.47 +0.00    +0.000 C 
ENDBRANCH  29  30
ENDBRANCH   2  29
TORSDOF 7
TER
ENDMDL