ATOM      1  C   UNL     1      89.409  18.102-103.912 -0.25 +0.00    +0.000 A 
ATOM      2  C   UNL     1      90.109  17.566-104.975 -0.31 +0.00    +0.000 A 
ATOM      3  N   UNL     1      91.094  18.438-105.251 -0.38 +0.00    +0.000 N 
ATOM      4  N   UNL     1      91.018  19.442-104.392 -0.27 +0.00    +0.000 NA
ATOM      5  N   UNL     1      90.002  19.261-103.561 -0.30 +0.00    +0.000 NA
ENDROOT
BRANCH   1   8
ATOM      6  C   UNL     1      87.632  15.708-104.834 -0.38 -0.00    +0.000 C 
ATOM      7  N   UNL     1      87.540  16.442-103.570 -0.25 +0.00    +0.000 N 
ATOM      8  C   UNL     1      88.271  17.516-103.179 -0.15 +0.00    +0.000 A 
ATOM      9  N   UNL     1      87.844  18.036-102.009 -0.10 +0.00    +0.000 NA
ATOM     10  C   UNL     1      86.822  17.243-101.631 -0.07 +0.00    +0.000 A 
ATOM     11  C   UNL     1      86.632  16.255-102.587 -0.15 +0.00    +0.000 A 
BRANCH  10  12
ATOM     12  C   UNL     1      86.083  17.438-100.364 -0.09 +0.00    +0.000 A 
ATOM     13  C   UNL     1      85.608  16.321 -99.657 -0.14 +0.00    +0.000 A 
ATOM     14  C   UNL     1      84.899  16.488 -98.463 -0.23 +0.00    +0.000 A 
ATOM     15  C   UNL     1      84.646  17.771 -97.972 -0.17 +0.00    +0.000 A 
ATOM     16  F   UNL     1      83.957  17.932 -96.815 -0.17 +0.00    +0.000 F 
ATOM     17  C   UNL     1      85.096  18.890 -98.679 -0.14 +0.00    +0.000 A 
ATOM     18  C   UNL     1      85.805  18.727 -99.873 -0.13 +0.00    +0.000 A 
ENDBRANCH  10  12
BRANCH  11  19
ATOM     19  C   UNL     1      85.560  15.235-102.607 -0.26 +0.00    +0.000 A 
ATOM     20  C   UNL     1      85.684  14.058-101.855 -0.22 +0.00    +0.000 A 
ATOM     21  C   UNL     1      84.665  13.104-101.898 -0.34 +0.00    +0.000 A 
ATOM     22  N   UNL     1      83.561  13.318-102.664 -0.43 +0.00    +0.000 NA
ATOM     23  C   UNL     1      83.416  14.451-103.401 -0.48 +0.00    +0.000 A 
ATOM     24  C   UNL     1      84.411  15.430-103.388 -0.41 +0.00    +0.000 A 
ENDBRANCH  11  19
ENDBRANCH   1   8
BRANCH   3  25
ATOM     25  C   UNL     1      92.130  18.287-106.276 -0.46 +0.00    +0.000 C 
ATOM     26  C   UNL     1      92.061  16.884-106.915 -0.49 +0.00    +0.000 C 
ATOM     27  O   UNL     1      93.065  16.744-107.906 -0.51 +0.00    +0.000 OA
ATOM     28  C   UNL     1      92.829  17.630-108.989 -0.50 +0.00    +0.000 C 
ATOM     29  C   UNL     1      92.952  19.101-108.518 -0.44 +0.00    +0.000 C 
ATOM     30  C   UNL     1      91.967  19.364-107.360 -0.46 +0.00    +0.000 C 
BRANCH  26  31
ATOM     31  O   UNL     1      92.237  15.899-105.933 -0.61 +0.00    +0.000 OA
ATOM     32  H   UNL     1      92.966  16.209-105.332 -0.56 +0.00    +0.000 HD
ENDBRANCH  26  31
BRANCH  29  33
ATOM     33  O   UNL     1      92.660  19.969-109.584 -0.52 +0.00    +0.000 OA
ATOM     34  H   UNL     1      92.561  20.879-109.199 -0.41 +0.00    +0.000 HD
ENDBRANCH  29  33
BRANCH  30  35
ATOM     35  O   UNL     1      92.213  20.627-106.796 -1.06 +0.00    +0.000 OA
ATOM     36  H   UNL     1      92.602  21.193-107.512 -0.61 +0.00    +0.000 HD
ENDBRANCH  30  35
BRANCH  28  37
ATOM     37  C   UNL     1      93.853  17.308-110.091 -0.54 +0.00    +0.000 C 
BRANCH  37  38
ATOM     38  O   UNL     1      94.092  15.928-110.179 -1.10 +0.00    +0.000 OA
ATOM     39  H   UNL     1      93.842  15.539-109.300 -0.02 +0.00    +0.000 HD
ENDBRANCH  37  38
ENDBRANCH  28  37
ENDBRANCH   3  25
TORSDOF 9
TER
ENDMDL