ATOM      1  C   UNL     1      38.333   1.468 -63.521 -0.30 +0.00    +0.000 A 
ATOM      2  C   UNL     1      38.966   1.103 -64.693 -0.41 +0.00    +0.000 A 
ATOM      3  N   UNL     1      39.925   2.022 -64.901 -0.45 +0.00    +0.000 N 
ATOM      4  N   UNL     1      39.898   2.890 -63.902 -0.19 +0.00    +0.000 NA
ATOM      5  N   UNL     1      38.940   2.574 -63.043 -0.35 +0.00    +0.000 NA
ENDROOT
BRANCH   1   8
ATOM      6  C   UNL     1      35.480   0.841 -64.619 -0.43 -0.00    +0.000 C 
ATOM      7  N   UNL     1      36.032   0.453 -63.319 -0.27 -0.00    +0.000 N 
ATOM      8  C   UNL     1      37.251   0.762 -62.809 -0.22 +0.00    +0.000 A 
ATOM      9  N   UNL     1      37.394   0.360 -61.529 -0.20 +0.00    +0.000 NA
ATOM     10  C   UNL     1      36.233  -0.254 -61.227 -0.13 +0.00    +0.000 A 
ATOM     11  C   UNL     1      35.390  -0.204 -62.328 -0.16 +0.00    +0.000 A 
BRANCH  10  12
ATOM     12  C   UNL     1      35.980  -0.886 -59.914 -0.10 +0.00    +0.000 A 
ATOM     13  C   UNL     1      36.140  -2.274 -59.769 -0.10 +0.00    +0.000 A 
ATOM     14  C   UNL     1      35.894  -2.890 -58.537 -0.07 +0.00    +0.000 A 
ATOM     15  C   UNL     1      35.474  -2.127 -57.444 -0.10 +0.00    +0.000 A 
ATOM     16  F   UNL     1      35.235  -2.726 -56.251 -0.07 +0.00    +0.000 F 
ATOM     17  C   UNL     1      35.291  -0.749 -57.584 -0.12 +0.00    +0.000 A 
ATOM     18  C   UNL     1      35.535  -0.130 -58.814 -0.10 +0.00    +0.000 A 
ENDBRANCH  10  12
BRANCH  11  19
ATOM     19  C   UNL     1      33.989  -0.677 -62.394 -0.26 +0.00    +0.000 A 
ATOM     20  C   UNL     1      33.326  -1.099 -61.233 -0.28 +0.00    +0.000 A 
ATOM     21  C   UNL     1      32.009  -1.553 -61.321 -0.31 +0.00    +0.000 A 
ATOM     22  N   UNL     1      31.375  -1.583 -62.524 -0.49 +0.00    +0.000 NA
ATOM     23  C   UNL     1      31.995  -1.179 -63.665 -0.53 +0.00    +0.000 A 
ATOM     24  C   UNL     1      33.313  -0.719 -63.622 -0.46 +0.00    +0.000 A 
ENDBRANCH  11  19
ENDBRANCH   1   8
BRANCH   3  25
ATOM     25  C   UNL     1      40.892   2.039 -66.001 -0.53 +0.00    +0.000 C 
ATOM     26  C   UNL     1      40.781   0.749 -66.841 -0.50 +0.00    +0.000 C 
ATOM     27  O   UNL     1      41.720   0.771 -67.904 -0.58 +0.00    +0.000 OA
ATOM     28  C   UNL     1      41.415   1.809 -68.822 -0.53 +0.00    +0.000 C 
ATOM     29  C   UNL     1      41.568   3.192 -68.141 -0.45 +0.00    +0.000 C 
ATOM     30  C   UNL     1      40.660   3.267 -66.896 -0.46 +0.00    +0.000 C 
BRANCH  26  31
ATOM     31  O   UNL     1      41.021  -0.372 -66.033 -0.68 +0.00    +0.000 OA
ATOM     32  H   UNL     1      41.032  -1.167 -66.629 -0.59 +0.00    +0.000 HD
ENDBRANCH  26  31
BRANCH  29  33
ATOM     33  O   UNL     1      41.207   4.209 -69.041 -0.50 +0.00    +0.000 OA
ATOM     34  H   UNL     1      41.096   5.041 -68.511 -0.21 +0.00    +0.000 HD
ENDBRANCH  29  33
BRANCH  30  35
ATOM     35  O   UNL     1      40.942   4.431 -66.163 -0.88 +0.00    +0.000 OA
ATOM     36  H   UNL     1      41.013   4.163 -65.210 -0.56 +0.00    +0.000 HD
ENDBRANCH  30  35
BRANCH  28  37
ATOM     37  C   UNL     1      42.365   1.668 -70.023 -0.53 +0.00    +0.000 C 
BRANCH  37  38
ATOM     38  O   UNL     1      42.526   0.324 -70.392 -1.22 +0.00    +0.000 OA
ATOM     39  H   UNL     1      42.730  -0.178 -69.559 -0.04 +0.00    +0.000 HD
ENDBRANCH  37  38
ENDBRANCH  28  37
ENDBRANCH   3  25
TORSDOF 9
TER
ENDMDL