ATOM      1  C   UNL     1      90.888  20.017-105.381 -0.36 +0.00    +0.000 A 
ATOM      2  C   UNL     1      91.283  18.696-105.409 -0.29 +0.00    +0.000 A 
ATOM      3  N   UNL     1      92.280  18.619-106.311 -0.43 +0.00    +0.000 N 
ATOM      4  N   UNL     1      92.485  19.831-106.804 -0.81 +0.00    +0.000 NA
ATOM      5  N   UNL     1      91.659  20.705-106.246 -0.97 +0.00    +0.000 NA
ENDROOT
BRANCH   1   8
ATOM      6  C   UNL     1      89.725  22.893-105.672 -0.29 +0.00    +0.000 C 
ATOM      7  N   UNL     1      89.400  21.913-104.634 -0.25 +0.00    +0.000 N 
ATOM      8  C   UNL     1      89.877  20.648-104.512 -0.30 +0.00    +0.000 A 
ATOM      9  N   UNL     1      89.314  19.975-103.486 -0.24 +0.00    +0.000 NA
ATOM     10  C   UNL     1      88.431  20.841-102.950 -0.16 +0.00    +0.000 A 
ATOM     11  C   UNL     1      88.475  22.034-103.657 -0.17 +0.00    +0.000 A 
BRANCH  10  12
ATOM     12  C   UNL     1      87.565  20.499-101.800 -0.12 +0.00    +0.000 A 
ATOM     13  C   UNL     1      87.993  20.709-100.477 -0.08 +0.00    +0.000 A 
ATOM     14  C   UNL     1      87.160  20.376 -99.404 -0.08 +0.00    +0.000 A 
ATOM     15  C   UNL     1      85.898  19.824 -99.642 -0.15 +0.00    +0.000 A 
ATOM     16  F   UNL     1      85.092  19.502 -98.601 -0.12 +0.00    +0.000 F 
ATOM     17  C   UNL     1      85.470  19.596-100.953 -0.18 +0.00    +0.000 A 
ATOM     18  C   UNL     1      86.302  19.926-102.028 -0.18 +0.00    +0.000 A 
ENDBRANCH  10  12
BRANCH  11  19
ATOM     19  C   UNL     1      87.578  23.193-103.475 -0.18 +0.00    +0.000 A 
ATOM     20  C   UNL     1      87.463  23.813-102.223 -0.15 +0.00    +0.000 A 
ATOM     21  C   UNL     1      86.582  24.887-102.067 -0.21 +0.00    +0.000 A 
ATOM     22  N   UNL     1      85.842  25.320-103.124 -0.82 +0.00    +0.000 NA
ATOM     23  C   UNL     1      85.929  24.731-104.347 -0.21 +0.00    +0.000 A 
ATOM     24  C   UNL     1      86.795  23.653-104.544 -0.25 +0.00    +0.000 A 
ENDBRANCH  11  19
ENDBRANCH   1   8
BRANCH   3  25
ATOM     25  C   UNL     1      93.032  17.431-106.740 -0.53 +0.00    +0.000 C 
ATOM     26  C   UNL     1      92.098  16.347-107.357 -0.38 +0.00    +0.000 C 
ATOM     27  O   UNL     1      92.598  15.874-108.596 -0.44 +0.00    +0.000 OA
ATOM     28  C   UNL     1      92.642  16.932-109.537 -0.52 +0.00    +0.000 C 
ATOM     29  C   UNL     1      93.754  17.955-109.165 -0.55 +0.00    +0.000 C 
ATOM     30  C   UNL     1      94.197  17.817-107.684 -0.42 +0.00    +0.000 C 
BRANCH  26  31
ATOM     31  O   UNL     1      92.006  15.264-106.469 -0.63 +0.00    +0.000 OA
ATOM     32  H   UNL     1      92.490  14.506-106.892 -0.44 +0.00    +0.000 HD
ENDBRANCH  26  31
BRANCH  29  33
ATOM     33  O   UNL     1      93.291  19.257-109.416 -0.54 +0.00    +0.000 OA
ATOM     34  H   UNL     1      92.978  19.628-108.549 -0.04 +0.00    +0.000 HD
ENDBRANCH  29  33
BRANCH  30  35
ATOM     35  O   UNL     1      95.189  16.824-107.589 -0.69 +0.00    +0.000 OA
ATOM     36  H   UNL     1      94.966  16.265-106.797 -0.53 +0.00    +0.000 HD
ENDBRANCH  30  35
BRANCH  28  37
ATOM     37  C   UNL     1      92.871  16.332-110.932 -0.57 +0.00    +0.000 C 
BRANCH  37  38
ATOM     38  O   UNL     1      93.712  15.211-110.866 -1.15 +0.00    +0.000 OA
ATOM     39  H   UNL     1      94.119  15.214-109.960 -0.04 +0.00    +0.000 HD
ENDBRANCH  37  38
ENDBRANCH  28  37
ENDBRANCH   3  25
TORSDOF 9
TER
ENDMDL