ATOM      1  C   UNL     1      38.142   1.788 -64.306 -0.31 +0.00    +0.000 A 
ATOM      2  C   UNL     1      39.394   1.559 -64.832 -0.42 +0.00    +0.000 A 
ATOM      3  N   UNL     1      39.698   2.647 -65.563 -0.39 +0.00    +0.000 N 
ATOM      4  N   UNL     1      38.685   3.495 -65.491 -0.33 +0.00    +0.000 NA
ATOM      5  N   UNL     1      37.723   2.999 -64.726 -0.26 -0.00    +0.000 NA
ENDROOT
BRANCH   1   8
ATOM      6  C   UNL     1      35.085   1.284 -64.364 -0.40 -0.00    +0.000 C 
ATOM      7  N   UNL     1      36.049   0.700 -63.428 -0.28 -0.00    +0.000 N 
ATOM      8  C   UNL     1      37.392   0.880 -63.416 -0.27 +0.00    +0.000 A 
ATOM      9  N   UNL     1      38.009   0.133 -62.476 -0.25 +0.00    +0.000 NA
ATOM     10  C   UNL     1      37.015  -0.535 -61.859 -0.20 +0.00    +0.000 A 
ATOM     11  C   UNL     1      35.802  -0.188 -62.439 -0.17 -0.00    +0.000 A 
BRANCH  10  12
ATOM     12  C   UNL     1      37.252  -1.461 -60.730 -0.18 +0.00    +0.000 A 
ATOM     13  C   UNL     1      37.553  -2.809 -60.990 -0.09 +0.00    +0.000 A 
ATOM     14  C   UNL     1      37.790  -3.696 -59.935 -0.15 +0.00    +0.000 A 
ATOM     15  C   UNL     1      37.741  -3.245 -58.614 -0.10 +0.00    +0.000 A 
ATOM     16  F   UNL     1      37.972  -4.105 -57.592 -0.04 +0.00    +0.000 F 
ATOM     17  C   UNL     1      37.463  -1.901 -58.345 -0.13 +0.00    +0.000 A 
ATOM     18  C   UNL     1      37.226  -1.011 -59.397 -0.15 +0.00    +0.000 A 
ENDBRANCH  10  12
BRANCH  11  19
ATOM     19  C   UNL     1      34.473  -0.751 -62.114 -0.20 +0.00    +0.000 A 
ATOM     20  C   UNL     1      33.599  -1.144 -63.137 -0.37 -0.00    +0.000 A 
ATOM     21  C   UNL     1      32.358  -1.691 -62.807 -0.44 +0.00    +0.000 A 
ATOM     22  N   UNL     1      32.004  -1.844 -61.503 -0.45 +0.00    +0.000 NA
ATOM     23  C   UNL     1      32.833  -1.473 -60.492 -0.31 +0.00    +0.000 A 
ATOM     24  C   UNL     1      34.085  -0.923 -60.778 -0.18 +0.00    +0.000 A 
ENDBRANCH  11  19
ENDBRANCH   1   8
BRANCH   3  25
ATOM     25  C   UNL     1      40.910   2.877 -66.355 -0.49 +0.00    +0.000 C 
ATOM     26  C   UNL     1      41.459   1.540 -66.923 -0.55 +0.00    +0.000 C 
ATOM     27  O   UNL     1      40.944   1.265 -68.220 -0.51 +0.00    +0.000 OA
ATOM     28  C   UNL     1      41.321   2.221 -69.212 -0.53 +0.00    +0.000 C 
ATOM     29  C   UNL     1      41.548   3.664 -68.668 -0.47 +0.00    +0.000 C 
ATOM     30  C   UNL     1      40.625   3.914 -67.469 -0.46 +0.00    +0.000 C 
BRANCH  26  31
ATOM     31  O   UNL     1      42.865   1.550 -66.932 -0.59 +0.00    +0.000 OA
ATOM     32  H   UNL     1      43.156   0.751 -66.420 -0.59 +0.00    +0.000 HD
ENDBRANCH  26  31
BRANCH  29  33
ATOM     33  O   UNL     1      41.338   4.625 -69.674 -0.55 +0.00    +0.000 OA
ATOM     34  H   UNL     1      41.164   5.498 -69.232 -0.32 +0.00    +0.000 HD
ENDBRANCH  29  33
BRANCH  30  35
ATOM     35  O   UNL     1      40.828   5.216 -66.982 -0.97 +0.00    +0.000 OA
ATOM     36  H   UNL     1      41.072   5.776 -67.765 -0.59 +0.00    +0.000 HD
ENDBRANCH  30  35
BRANCH  28  37
ATOM     37  C   UNL     1      42.524   1.703 -70.018 -0.50 +0.00    +0.000 C 
BRANCH  37  38
ATOM     38  O   UNL     1      42.812   0.372 -69.680 -1.07 +0.00    +0.000 OA
ATOM     39  H   UNL     1      42.808   0.320 -68.688 -0.02 +0.00    +0.000 HD
ENDBRANCH  37  38
ENDBRANCH  28  37
ENDBRANCH   3  25
TORSDOF 9
TER
ENDMDL