ATOM      1  C   UNL     1      38.187   0.744 -64.333 -0.38 +0.00    +0.000 A 
ATOM      2  C   UNL     1      39.066   1.776 -64.585 -0.38 +0.00    +0.000 A 
ATOM      3  N   UNL     1      39.928   1.316 -65.511 -0.47 +0.00    +0.000 N 
ATOM      4  N   UNL     1      39.593   0.072 -65.812 -0.52 +0.00    +0.000 NA
ATOM      5  N   UNL     1      38.535  -0.304 -65.109 -0.58 +0.00    +0.000 NA
ENDROOT
BRANCH   1   8
ATOM      6  C   UNL     1      37.432   3.095 -62.470 -0.20 +0.00    +0.000 C 
ATOM      7  N   UNL     1      36.760   1.796 -62.549 -0.15 +0.00    +0.000 N 
ATOM      8  C   UNL     1      37.054   0.774 -63.389 -0.26 +0.00    +0.000 A 
ATOM      9  N   UNL     1      36.179  -0.249 -63.290 -0.26 -0.00    +0.000 NA
ATOM     10  C   UNL     1      35.302   0.138 -62.344 -0.16 +0.00    +0.000 A 
ATOM     11  C   UNL     1      35.655   1.397 -61.879 -0.08 +0.00    +0.000 A 
BRANCH  10  12
ATOM     12  C   UNL     1      34.162  -0.699 -61.914 -0.21 +0.00    +0.000 A 
ATOM     13  C   UNL     1      32.980  -0.765 -62.674 -0.43 +0.00    +0.000 A 
ATOM     14  C   UNL     1      31.910  -1.558 -62.247 -0.43 +0.00    +0.000 A 
ATOM     15  C   UNL     1      32.009  -2.287 -61.059 -0.38 +0.00    +0.000 A 
ATOM     16  F   UNL     1      30.970  -3.056 -60.646 -0.34 +0.00    +0.000 F 
ATOM     17  C   UNL     1      33.173  -2.214 -60.288 -0.29 +0.00    +0.000 A 
ATOM     18  C   UNL     1      34.242  -1.416 -60.709 -0.17 +0.00    +0.000 A 
ENDBRANCH  10  12
BRANCH  11  19
ATOM     19  C   UNL     1      34.909   2.216 -60.902 -0.07 +0.00    +0.000 A 
ATOM     20  C   UNL     1      34.830   1.821 -59.560 -0.07 +0.00    +0.000 A 
ATOM     21  C   UNL     1      34.104   2.600 -58.657 -0.12 +0.00    +0.000 A 
ATOM     22  N   UNL     1      33.478   3.731 -59.082 -0.19 +0.00    +0.000 NA
ATOM     23  C   UNL     1      33.536   4.135 -60.379 -0.18 +0.00    +0.000 A 
ATOM     24  C   UNL     1      34.249   3.382 -61.315 -0.16 +0.00    +0.000 A 
ENDBRANCH  11  19
ENDBRANCH   1   8
BRANCH   3  25
ATOM     25  C   UNL     1      41.043   2.039 -66.133 -0.54 +0.00    +0.000 C 
ATOM     26  C   UNL     1      41.841   1.132 -67.107 -0.55 +0.00    +0.000 C 
ATOM     27  O   UNL     1      41.292   1.203 -68.411 -0.53 +0.00    +0.000 OA
ATOM     28  C   UNL     1      41.513   2.473 -69.021 -0.51 +0.00    +0.000 C 
ATOM     29  C   UNL     1      41.445   3.674 -68.023 -0.40 +0.00    +0.000 C 
ATOM     30  C   UNL     1      40.529   3.320 -66.838 -0.46 +0.00    +0.000 C 
BRANCH  26  31
ATOM     31  O   UNL     1      41.816  -0.199 -66.663 -0.54 +0.00    +0.000 OA
ATOM     32  H   UNL     1      41.091  -0.650 -67.169 -0.45 +0.00    +0.000 HD
ENDBRANCH  26  31
BRANCH  29  33
ATOM     33  O   UNL     1      41.010   4.847 -68.670 -0.49 +0.00    +0.000 OA
ATOM     34  H   UNL     1      40.988   5.576 -67.998 -0.55 +0.00    +0.000 HD
ENDBRANCH  29  33
BRANCH  30  35
ATOM     35  O   UNL     1      40.496   4.378 -65.914 -0.77 +0.00    +0.000 OA
ATOM     36  H   UNL     1      41.406   4.447 -65.520 -0.62 +0.00    +0.000 HD
ENDBRANCH  30  35
BRANCH  28  37
ATOM     37  C   UNL     1      42.828   2.457 -69.822 -0.42 +0.00    +0.000 C 
BRANCH  37  38
ATOM     38  O   UNL     1      43.273   1.141 -70.022 -0.79 +0.00    +0.000 OA
ATOM     39  H   UNL     1      42.992   0.624 -69.222 -0.02 +0.00    +0.000 HD
ENDBRANCH  37  38
ENDBRANCH  28  37
ENDBRANCH   3  25
TORSDOF 9
TER
ENDMDL