ATOM      1  C   UNL     1      90.696  21.971-105.856 -0.36 +0.00    +0.000 A 
ATOM      2  C   UNL     1      89.457  22.532-106.080 -0.27 +0.00    +0.000 A 
ATOM      3  N   UNL     1      89.584  23.843-105.800 -0.19 +0.00    +0.000 N 
ATOM      4  N   UNL     1      90.832  24.072-105.428 -0.27 +0.00    +0.000 NA
ATOM      5  N   UNL     1      91.534  22.948-105.453 -0.31 +0.00    +0.000 NA
ENDROOT
BRANCH   1   8
ATOM      6  C   UNL     1      89.542  19.587-104.258 -0.30 +0.00    +0.000 C 
ATOM      7  N   UNL     1      90.572  19.522-105.297 -0.35 +0.00    +0.000 N 
ATOM      8  C   UNL     1      91.056  20.551-106.034 -0.40 +0.00    +0.000 A 
ATOM      9  N   UNL     1      91.920  20.147-106.989 -0.81 +0.00    +0.000 NA
ATOM     10  C   UNL     1      91.992  18.810-106.844 -0.41 +0.00    +0.000 A 
ATOM     11  C   UNL     1      91.166  18.416-105.801 -0.37 +0.00    +0.000 A 
BRANCH  10  12
ATOM     12  C   UNL     1      92.842  17.954-107.699 -0.40 +0.00    +0.000 A 
ATOM     13  C   UNL     1      94.086  17.480-107.245 -0.46 +0.00    +0.000 A 
ATOM     14  C   UNL     1      94.879  16.675-108.070 -0.59 +0.00    +0.000 A 
ATOM     15  C   UNL     1      94.438  16.340-109.353 -0.60 +0.00    +0.000 A 
ATOM     16  F   UNL     1      95.207  15.559-110.153 -0.23 +0.00    +0.000 F 
ATOM     17  C   UNL     1      93.210  16.820-109.819 -0.52 +0.00    +0.000 A 
ATOM     18  C   UNL     1      92.419  17.630-108.999 -0.42 +0.00    +0.000 A 
ENDBRANCH  10  12
BRANCH  11  19
ATOM     19  C   UNL     1      90.891  17.030-105.371 -0.38 +0.00    +0.000 A 
ATOM     20  C   UNL     1      91.781  15.997-105.696 -0.50 +0.00    +0.000 A 
ATOM     21  C   UNL     1      91.492  14.692-105.296 -0.56 +0.00    +0.000 A 
ATOM     22  N   UNL     1      90.354  14.428-104.598 -0.54 +0.00    +0.000 NA
ATOM     23  C   UNL     1      89.473  15.411-104.272 -0.39 +0.00    +0.000 A 
ATOM     24  C   UNL     1      89.722  16.731-104.657 -0.30 +0.00    +0.000 A 
ENDBRANCH  11  19
ENDBRANCH   1   8
BRANCH   3  25
ATOM     25  C   UNL     1      88.554  24.883-105.902 -0.18 +0.00    +0.000 C 
ATOM     26  C   UNL     1      87.849  24.856-107.285 -0.31 +0.00    +0.000 C 
ATOM     27  O   UNL     1      86.727  23.990-107.251 -0.41 +0.00    +0.000 OA
ATOM     28  C   UNL     1      85.671  24.508-106.445 -0.45 +0.00    +0.000 C 
ATOM     29  C   UNL     1      86.161  25.284-105.180 -0.30 +0.00    +0.000 C 
ATOM     30  C   UNL     1      87.537  24.753-104.740 -0.18 +0.00    +0.000 C 
BRANCH  26  31
ATOM     31  O   UNL     1      88.741  24.423-108.278 -0.40 +0.00    +0.000 OA
ATOM     32  H   UNL     1      89.621  24.311-107.835 -0.01 +0.00    +0.000 HD
ENDBRANCH  26  31
BRANCH  29  33
ATOM     33  O   UNL     1      85.222  25.195-104.135 -0.54 +0.00    +0.000 OA
ATOM     34  H   UNL     1      85.717  25.240-103.276 -0.01 +0.00    +0.000 HD
ENDBRANCH  29  33
BRANCH  30  35
ATOM     35  O   UNL     1      88.006  25.474-103.629 -0.11 +0.00    +0.000 OA
ATOM     36  H   UNL     1      87.208  25.843-103.165 +0.00 +0.00    +0.000 HD
ENDBRANCH  30  35
BRANCH  28  37
ATOM     37  C   UNL     1      84.709  25.349-107.306 -0.39 +0.00    +0.000 C 
BRANCH  37  38
ATOM     38  O   UNL     1      84.104  24.558-108.294 -0.85 +0.00    +0.000 OA
ATOM     39  H   UNL     1      83.962  23.662-107.890 -0.57 +0.00    +0.000 HD
ENDBRANCH  37  38
ENDBRANCH  28  37
ENDBRANCH   3  25
TORSDOF 9
TER
ENDMDL