ATOM      1  C   UNL     1      39.356   5.728 -64.884 -0.32 +0.00    +0.000 A 
ATOM      2  C   UNL     1      39.522   4.401 -65.215 -0.34 +0.00    +0.000 A 
ATOM      3  N   UNL     1      40.088   4.386 -66.433 -0.43 +0.00    +0.000 N 
ATOM      4  N   UNL     1      40.249   5.638 -66.834 -0.97 +0.00    +0.000 NA
ATOM      5  N   UNL     1      39.811   6.479 -65.908 -0.75 +0.00    +0.000 NA
ENDROOT
BRANCH   1   8
ATOM      6  C   UNL     1      37.702   8.336 -64.595 -0.20 +0.00    +0.000 C 
ATOM      7  N   UNL     1      38.006   7.372 -63.536 -0.20 +0.00    +0.000 N 
ATOM      8  C   UNL     1      38.754   6.245 -63.639 -0.27 +0.00    +0.000 A 
ATOM      9  N   UNL     1      38.901   5.608 -62.459 -0.32 +0.00    +0.000 NA
ATOM     10  C   UNL     1      38.203   6.352 -61.576 -0.22 +0.00    +0.000 A 
ATOM     11  C   UNL     1      37.645   7.439 -62.235 -0.16 +0.00    +0.000 A 
BRANCH  10  12
ATOM     12  C   UNL     1      38.075   5.988 -60.148 -0.20 +0.00    +0.000 A 
ATOM     13  C   UNL     1      37.913   4.650 -59.746 -0.20 +0.00    +0.000 A 
ATOM     14  C   UNL     1      37.804   4.327 -58.390 -0.20 +0.00    +0.000 A 
ATOM     15  C   UNL     1      37.870   5.332 -57.422 -0.13 +0.00    +0.000 A 
ATOM     16  F   UNL     1      37.767   5.017 -56.108 -0.11 +0.00    +0.000 F 
ATOM     17  C   UNL     1      38.050   6.663 -57.810 -0.16 +0.00    +0.000 A 
ATOM     18  C   UNL     1      38.159   6.990 -59.166 -0.19 +0.00    +0.000 A 
ENDBRANCH  10  12
BRANCH  11  19
ATOM     19  C   UNL     1      36.870   8.540 -61.624 -0.10 +0.00    +0.000 A 
ATOM     20  C   UNL     1      35.529   8.346 -61.262 -0.16 +0.00    +0.000 A 
ATOM     21  C   UNL     1      34.823   9.390 -60.658 -0.24 +0.00    +0.000 A 
ATOM     22  N   UNL     1      35.436  10.580 -60.421 -0.23 +0.00    +0.000 NA
ATOM     23  C   UNL     1      36.735  10.793 -60.762 -0.14 +0.00    +0.000 A 
ATOM     24  C   UNL     1      37.477   9.777 -61.368 -0.10 +0.00    +0.000 A 
ENDBRANCH  11  19
ENDBRANCH   1   8
BRANCH   3  25
ATOM     25  C   UNL     1      40.432   3.198 -67.220 -0.45 +0.00    +0.000 C 
ATOM     26  C   UNL     1      40.647   3.568 -68.701 -0.46 +0.00    +0.000 C 
ATOM     27  O   UNL     1      40.989   2.421 -69.467 -0.47 +0.00    +0.000 OA
ATOM     28  C   UNL     1      42.209   1.840 -69.027 -0.60 +0.00    +0.000 C 
ATOM     29  C   UNL     1      42.084   1.335 -67.568 -0.57 +0.00    +0.000 C 
ATOM     30  C   UNL     1      41.681   2.498 -66.651 -0.53 +0.00    +0.000 C 
BRANCH  26  31
ATOM     31  O   UNL     1      41.617   4.577 -68.840 -0.52 +0.00    +0.000 OA
ATOM     32  H   UNL     1      41.401   5.269 -68.161 -0.42 +0.00    +0.000 HD
ENDBRANCH  26  31
BRANCH  29  33
ATOM     33  O   UNL     1      43.313   0.814 -67.125 -0.65 +0.00    +0.000 OA
ATOM     34  H   UNL     1      43.417   1.078 -66.173 -0.59 +0.00    +0.000 HD
ENDBRANCH  29  33
BRANCH  30  35
ATOM     35  O   UNL     1      41.411   1.998 -65.366 -0.58 +0.00    +0.000 OA
ATOM     36  H   UNL     1      41.781   1.078 -65.330 -0.58 +0.00    +0.000 HD
ENDBRANCH  30  35
BRANCH  28  37
ATOM     37  C   UNL     1      42.560   0.684 -69.977 -0.46 +0.00    +0.000 C 
BRANCH  37  38
ATOM     38  O   UNL     1      41.702   0.684 -71.087 -1.02 +0.00    +0.000 OA
ATOM     39  H   UNL     1      41.306   1.595 -71.142 -0.08 +0.00    +0.000 HD
ENDBRANCH  37  38
ENDBRANCH  28  37
ENDBRANCH   3  25
TORSDOF 9
TER
ENDMDL