ATOM      1  C   UNL     1      89.537  16.658-104.535 -0.31 +0.00    +0.000 A 
ATOM      2  C   UNL     1      90.844  16.465-104.931 -0.43 +0.00    +0.000 A 
ATOM      3  N   UNL     1      91.136  17.478-105.763 -0.39 +0.00    +0.000 N 
ATOM      4  N   UNL     1      90.070  18.258-105.866 -0.30 +0.00    +0.000 NA
ATOM      5  N   UNL     1      89.080  17.781-105.126 -0.20 -0.00    +0.000 NA
ENDROOT
BRANCH   1   8
ATOM      6  C   UNL     1      86.474  16.199-104.555 -0.43 -0.00    +0.000 C 
ATOM      7  N   UNL     1      87.432  15.654-103.590 -0.29 -0.00    +0.000 N 
ATOM      8  C   UNL     1      88.779  15.813-103.593 -0.28 +0.00    +0.000 A 
ATOM      9  N   UNL     1      89.387  15.115-102.612 -0.25 +0.00    +0.000 NA
ATOM     10  C   UNL     1      88.385  14.501-101.952 -0.19 +0.00    +0.000 A 
ATOM     11  C   UNL     1      87.175  14.834-102.548 -0.16 -0.00    +0.000 A 
BRANCH  10  12
ATOM     12  C   UNL     1      88.611  13.642-100.770 -0.17 +0.00    +0.000 A 
ATOM     13  C   UNL     1      88.552  14.203 -99.482 -0.14 +0.00    +0.000 A 
ATOM     14  C   UNL     1      88.757  13.404 -98.353 -0.12 +0.00    +0.000 A 
ATOM     15  C   UNL     1      89.009  12.036 -98.498 -0.08 +0.00    +0.000 A 
ATOM     16  F   UNL     1      89.209  11.264 -97.402 -0.03 +0.00    +0.000 F 
ATOM     17  C   UNL     1      89.047  11.466 -99.773 -0.11 +0.00    +0.000 A 
ATOM     18  C   UNL     1      88.843  12.261-100.905 -0.11 +0.00    +0.000 A 
ENDBRANCH  10  12
BRANCH  11  19
ATOM     19  C   UNL     1      85.839  14.319-102.179 -0.21 +0.00    +0.000 A 
ATOM     20  C   UNL     1      84.847  14.159-103.156 -0.42 +0.00    +0.000 A 
ATOM     21  C   UNL     1      83.586  13.688-102.784 -0.47 +0.00    +0.000 A 
ATOM     22  N   UNL     1      83.324  13.394-101.484 -0.42 +0.00    +0.000 NA
ATOM     23  C   UNL     1      84.266  13.544-100.516 -0.32 +0.00    +0.000 A 
ATOM     24  C   UNL     1      85.540  14.011-100.845 -0.19 +0.00    +0.000 A 
ENDBRANCH  11  19
ENDBRANCH   1   8
BRANCH   3  25
ATOM     25  C   UNL     1      92.421  17.724-106.426 -0.51 +0.00    +0.000 C 
ATOM     26  C   UNL     1      92.897  16.470-107.206 -0.55 +0.00    +0.000 C 
ATOM     27  O   UNL     1      92.317  16.452-108.496 -0.47 +0.00    +0.000 OA
ATOM     28  C   UNL     1      92.841  17.475-109.342 -0.52 +0.00    +0.000 C 
ATOM     29  C   UNL     1      93.207  18.796-108.600 -0.44 +0.00    +0.000 C 
ATOM     30  C   UNL     1      92.301  18.955-107.364 -0.47 +0.00    +0.000 C 
BRANCH  26  31
ATOM     31  O   UNL     1      92.534  15.295-106.531 -0.65 +0.00    +0.000 OA
ATOM     32  H   UNL     1      92.659  14.546-107.171 -0.48 +0.00    +0.000 HD
ENDBRANCH  26  31
BRANCH  29  33
ATOM     33  O   UNL     1      93.033  19.887-109.469 -0.55 +0.00    +0.000 OA
ATOM     34  H   UNL     1      92.852  20.683-108.903 -0.39 +0.00    +0.000 HD
ENDBRANCH  29  33
BRANCH  30  35
ATOM     35  O   UNL     1      92.587  20.142-106.666 -0.92 +0.00    +0.000 OA
ATOM     36  H   UNL     1      92.908  20.810-107.327 -0.49 +0.00    +0.000 HD
ENDBRANCH  30  35
BRANCH  28  37
ATOM     37  C   UNL     1      94.018  16.926-110.162 -0.52 +0.00    +0.000 C 
BRANCH  37  38
ATOM     38  O   UNL     1      93.763  15.602-110.544 -1.21 +0.00    +0.000 OA
ATOM     39  H   UNL     1      93.010  15.292-109.978 -0.02 +0.00    +0.000 HD
ENDBRANCH  37  38
ENDBRANCH  28  37
ENDBRANCH   3  25
TORSDOF 9
TER
ENDMDL