M0001
  Spartan 06282109203D

 34 34  0  0  0  0  0  0  0  0999 V2000
   -0.7507    1.4684   -0.2613 O   0  0  0  0  0  0  0  0  0  0  0  0
   -1.3867   -1.7327   -4.0465 O   0  0  0  0  0  0  0  0  0  0  0  0
    0.3915    3.8940   -0.2747 O   0  0  0  0  0  0  0  0  0  0  0  0
   -1.4301   -4.1173   -0.6127 O   0  0  0  0  0  0  0  0  0  0  0  0
    2.2224    4.6272    1.6039 O   0  0  0  0  0  0  0  0  0  0  0  0
    0.4195   -1.3969    0.7234 N   0  0  0  0  0  0  0  0  0  0  0  0
   -0.2773   -2.6089    0.6196 N   0  0  0  0  0  0  0  0  0  0  0  0
   -1.3516   -0.8135   -1.6208 N   0  3  0  0  0  0  0  0  0  0  0  0
   -0.1572   -0.5308    1.7674 C   0  0  0  0  0  0  0  0  0  0  0  0
    0.4767    0.8331    1.7235 C   0  0  0  0  0  0  0  0  0  0  0  0
   -0.6629   -2.1416   -1.7904 C   0  0  0  0  0  0  0  0  0  0  0  0
    0.1556    1.7604    0.7299 C   0  0  0  0  0  0  0  0  0  0  0  0
   -0.8243   -3.0494   -0.5685 C   0  0  0  0  0  0  0  0  0  0  0  0
    1.4288    1.2052    2.6935 C   0  0  0  0  0  0  0  0  0  0  0  0
   -1.2477   -2.7703   -3.0622 C   0  0  0  0  0  0  0  0  0  0  0  0
    0.7506    3.0185    0.7157 C   0  0  0  0  0  0  0  0  0  0  0  0
    2.0292    2.4732    2.6746 C   0  0  0  0  0  0  0  0  0  0  0  0
    1.6812    3.3771    1.6802 C   0  0  0  0  0  0  0  0  0  0  0  0
   -1.3597   -0.3496   -2.5411 H   0  0  0  0  0  0  0  0  0  0  0  0
   -2.3197   -0.9092   -1.3049 H   0  0  0  0  0  0  0  0  0  0  0  0
   -0.8501   -0.2084   -0.9439 H   0  0  0  0  0  0  0  0  0  0  0  0
   -0.8501    2.3446   -0.7079 H   0  0  0  0  0  0  0  0  0  0  0  0
   -1.6414   -2.1712   -4.8849 H   0  0  0  0  0  0  0  0  0  0  0  0
    0.9173    4.7016   -0.0830 H   0  0  0  0  0  0  0  0  0  0  0  0
    2.8366    4.7501    2.3502 H   0  0  0  0  0  0  0  0  0  0  0  0
    1.3943   -1.5899    0.9908 H   0  0  0  0  0  0  0  0  0  0  0  0
   -0.3699   -3.2355    1.4225 H   0  0  0  0  0  0  0  0  0  0  0  0
   -1.2400   -0.4217    1.6238 H   0  0  0  0  0  0  0  0  0  0  0  0
   -0.0172   -0.9895    2.7542 H   0  0  0  0  0  0  0  0  0  0  0  0
    0.3943   -1.9069   -1.9553 H   0  0  0  0  0  0  0  0  0  0  0  0
    1.7087    0.5101    3.4844 H   0  0  0  0  0  0  0  0  0  0  0  0
   -2.2400   -3.1998   -2.8893 H   0  0  0  0  0  0  0  0  0  0  0  0
   -0.5857   -3.5506   -3.4511 H   0  0  0  0  0  0  0  0  0  0  0  0
    2.7554    2.7302    3.4410 H   0  0  0  0  0  0  0  0  0  0  0  0
  1 12  1  0  0  0  0
  2 15  1  0  0  0  0
  3 16  1  0  0  0  0
  4 13  2  0  0  0  0
  5 18  1  0  0  0  0
  6  7  1  0  0  0  0
  6  9  1  0  0  0  0
  7 13  1  0  0  0  0
 11  8  1  0  0  0  0
  9 10  1  0  0  0  0
 10 12  4  0  0  0  0
 10 14  4  0  0  0  0
 11 13  1  0  0  0  0
 11 15  1  0  0  0  0
 12 16  4  0  0  0  0
 14 17  4  0  0  0  0
 16 18  4  0  0  0  0
 17 18  4  0  0  0  0
  8 19  1  0  0  0  0
  8 20  1  0  0  0  0
 21  8  1  0  0  0  0
  1 22  1  0  0  0  0
  2 23  1  0  0  0  0
  3 24  1  0  0  0  0
  5 25  1  0  0  0  0
  6 26  1  0  0  0  0
  7 27  1  0  0  0  0
  9 28  1  0  0  0  0
  9 29  1  0  0  0  0
 11 30  1  0  0  0  0
 14 31  1  0  0  0  0
 15 32  1  0  0  0  0
 15 33  1  0  0  0  0
 17 34  1  0  0  0  0
M  CHG  1   8   1
M  END
$$$$
