
  Mrv2109 06272123352D          

 26 28  0  0  0  0            999 V2000
   -2.9318    1.1921    0.0000 C   0  0  0  0  0  0  0  0  0  0  0  0
   -3.6463    0.7796    0.0000 C   0  0  0  0  0  0  0  0  0  0  0  0
   -3.6463   -0.0454    0.0000 C   0  0  1  0  0  0  0  0  0  0  0  0
   -2.9318   -0.4579    0.0000 C   0  0  0  0  0  0  0  0  0  0  0  0
   -2.2173   -0.0454    0.0000 C   0  0  0  0  0  0  0  0  0  0  0  0
   -2.2173    0.7796    0.0000 C   0  0  1  0  0  0  0  0  0  0  0  0
   -1.4327    1.0345    0.0000 C   0  0  2  0  0  0  0  0  0  0  0  0
   -1.4327   -0.3003    0.0000 C   0  0  0  0  0  0  0  0  0  0  0  0
   -0.9478    0.3671    0.0000 C   0  0  0  0  0  0  0  0  0  0  0  0
   -3.1033   -1.2649    0.0000 C   0  0  0  0  0  0  0  0  0  0  0  0
   -3.9238   -1.3511    0.0000 C   0  0  0  0  0  0  0  0  0  0  0  0
   -4.2593   -0.5974    0.0000 O   0  0  0  0  0  0  0  0  0  0  0  0
   -4.3363   -2.0656    0.0000 O   0  0  0  0  0  0  0  0  0  0  0  0
   -4.3999    0.2902    0.0000 O   0  0  0  0  0  0  0  0  0  0  0  0
   -2.1311    1.6001    0.0000 C   0  0  0  0  0  0  0  0  0  0  0  0
   -1.1778    1.8192    0.0000 C   0  0  2  0  0  0  0  0  0  0  0  0
   -1.7298    2.4323    0.0000 C   0  0  0  0  0  0  0  0  0  0  0  0
   -0.3708    1.9907    0.0000 C   0  0  0  0  0  0  0  0  0  0  0  0
    0.1314    1.3362    0.0000 C   0  0  0  0  0  0  0  0  0  0  0  0
    0.9494    1.4439    0.0000 C   0  0  0  0  0  0  0  0  0  0  0  0
    1.4516    0.7893    0.0000 C   0  0  1  0  0  0  0  0  0  0  0  0
    1.2651    2.2061    0.0000 C   0  0  0  0  0  0  0  0  0  0  0  0
    2.1061    1.2916    0.0000 C   0  0  0  0  0  0  0  0  0  0  0  0
    1.9538    0.1348    0.0000 O   0  0  0  0  0  0  0  0  0  0  0  0
    0.7971    0.2871    0.0000 C   0  0  0  0  0  0  0  0  0  0  0  0
    0.9048   -0.5308    0.0000 O   0  0  0  0  0  0  0  0  0  0  0  0
  1  2  1  0  0  0  0
  2  3  1  0  0  0  0
  3  4  1  0  0  0  0
  4  5  1  0  0  0  0
  5  6  1  0  0  0  0
  1  6  1  0  0  0  0
  8  9  1  0  0  0  0
  7  9  1  0  0  0  0
  7  6  1  0  0  0  0
  5  8  1  0  0  0  0
  4 10  2  0  0  0  0
 10 11  1  0  0  0  0
 13 11  2  0  0  0  0
 11 12  1  0  0  0  0
  3 12  1  1  0  0  0
  3 14  1  6  0  0  0
  6 15  1  1  0  0  0
  7 16  1  1  0  0  0
 16 17  1  6  0  0  0
 16 18  1  0  0  0  0
 18 19  2  0  0  0  0
 19 20  1  0  0  0  0
 20 21  1  0  0  0  0
 20 22  1  0  0  0  0
 21 23  1  6  0  0  0
 21 24  1  1  0  0  0
 21 25  1  0  0  0  0
 25 26  1  0  0  0  0
M  END
$$$$
