@<TRIPOS>MOLECULE
M0001
 58 60 0 0 0
SMALL
GASTEIGER

@<TRIPOS>ATOM
      1 C           1.8647    0.8340    2.5441 C.3     1  LIG1       -0.0405
      2 C           3.0428    1.8240    2.7303 C.3     1  LIG1        0.0178
      3 C           4.3096    1.3805    1.9842 C.3     1  LIG1        0.2369
      4 C           4.0049    0.9618    0.5954 C.2     1  LIG1        0.0113
      5 C           2.9068   -0.0232    0.4334 C.3     1  LIG1       -0.0076
      6 C           1.5870    0.5296    1.0475 C.3     1  LIG1       -0.0218
      7 C           0.6506   -0.6789    0.7450 C.3     1  LIG1       -0.0291
      8 C           2.4886   -0.5294   -0.9369 C.3     1  LIG1       -0.0455
      9 C           1.0888   -1.1130   -0.6896 C.3     1  LIG1       -0.0486
     10 C           4.7616    1.6142   -0.2795 C.2     1  LIG1        0.0282
     11 C           5.5660    2.5435    0.5152 C.2     1  LIG1        0.3347
     12 O           5.2457    2.4316    1.8351 O.3     1  LIG1       -0.4255
     13 O           6.3715    3.3285    0.0482 O.2     1  LIG1       -0.2455
     14 O           4.9179    0.2898    2.6513 O.3     1  LIG1       -0.3519
     15 C           1.0761    1.8147    0.3449 C.3     1  LIG1       -0.0587
     16 C          -0.8872   -0.4893    0.8527 C.3     1  LIG1       -0.0224
     17 C          -1.3424   -0.0855    2.2559 C.3     1  LIG1       -0.0587
     18 C          -1.6081   -1.7723    0.4793 C.2     1  LIG1       -0.0845
     19 C          -2.7316   -1.8971   -0.2488 C.2     1  LIG1       -0.0821
     20 C          -3.5834   -0.7870   -0.8375 C.3     1  LIG1        0.0050
     21 C          -3.6670   -0.8124   -2.3995 C.3     1  LIG1        0.0921
     22 C          -4.9691   -0.8402   -0.1721 C.3     1  LIG1       -0.0563
     23 C          -4.3276   -2.0753   -2.9615 C.3     1  LIG1       -0.0334
     24 O          -4.4764    0.3044   -2.8229 O.3     1  LIG1       -0.3860
     25 C          -2.2825   -0.6195   -3.0591 C.3     1  LIG1        0.0732
     26 O          -1.7533    0.6606   -2.6956 O.3     1  LIG1       -0.3922
     27 H           2.0973   -0.0979    3.0750 H       1  LIG1        0.0273
     28 H           0.9843    1.2593    3.0332 H       1  LIG1        0.0273
     29 H           2.7424    2.8266    2.4019 H       1  LIG1        0.0332
     30 H           3.2549    1.9153    3.8031 H       1  LIG1        0.0332
     31 H           3.2135   -0.9163    1.0024 H       1  LIG1        0.0353
     32 H           0.9339   -1.4954    1.4278 H       1  LIG1        0.0312
     33 H           3.1777   -1.2883   -1.3221 H       1  LIG1        0.0271
     34 H           2.4409    0.2762   -1.6784 H       1  LIG1        0.0271
     35 H           0.4032   -0.7423   -1.4578 H       1  LIG1        0.0268
     36 H           1.1067   -2.2062   -0.7649 H       1  LIG1        0.0268
     37 H           4.7852    1.5633   -1.3518 H       1  LIG1        0.0691
     38 H           5.0867    0.5959    3.5575 H       1  LIG1        0.2142
     39 H           1.8294    2.6075    0.3212 H       1  LIG1        0.0235
     40 H           0.7767    1.6339   -0.6924 H       1  LIG1        0.0235
     41 H           0.2019    2.2208    0.8649 H       1  LIG1        0.0235
     42 H          -1.1826    0.3042    0.1592 H       1  LIG1        0.0343
     43 H          -0.9030   -0.7315    3.0239 H       1  LIG1        0.0235
     44 H          -1.0697    0.9495    2.4753 H       1  LIG1        0.0235
     45 H          -2.4329   -0.1431    2.3542 H       1  LIG1        0.0235
     46 H          -1.1652   -2.6897    0.8691 H       1  LIG1        0.0572
     47 H          -3.1115   -2.9080   -0.3996 H       1  LIG1        0.0573
     48 H          -3.1771    0.1900   -0.5507 H       1  LIG1        0.0369
     49 H          -5.6215   -0.0448   -0.5465 H       1  LIG1        0.0236
     50 H          -5.4702   -1.7994   -0.3393 H       1  LIG1        0.0236
     51 H          -4.8803   -0.7035    0.9122 H       1  LIG1        0.0236
     52 H          -4.4051   -2.0144   -4.0538 H       1  LIG1        0.0258
     53 H          -3.7656   -2.9806   -2.7144 H       1  LIG1        0.0258
     54 H          -5.3547   -2.1867   -2.5994 H       1  LIG1        0.0258
     55 H          -3.9034    1.0888   -2.7024 H       1  LIG1        0.2103
     56 H          -1.5734   -1.3996   -2.7673 H       1  LIG1        0.0586
     57 H          -2.3769   -0.6208   -4.1507 H       1  LIG1        0.0586
     58 H          -0.8957    0.7431   -3.1487 H       1  LIG1        0.2095
@<TRIPOS>BOND
     1     1     2    1
     2     2     3    1
     3     3     4    1
     4     4     5    1
     5     5     6    1
     6     1     6    1
     7     8     9    1
     8     7     9    1
     9     7     6    1
    10     5     8    1
    11     4    10    2
    12    10    11    1
    13    13    11    2
    14    11    12    1
    15     3    12    1
    16     3    14    1
    17     6    15    1
    18     7    16    1
    19    16    17    1
    20    16    18    1
    21    18    19    2
    22    19    20    1
    23    20    21    1
    24    20    22    1
    25    21    23    1
    26    21    24    1
    27    21    25    1
    28    25    26    1
    29     1    27    1
    30     1    28    1
    31     2    29    1
    32     2    30    1
    33     5    31    1
    34     7    32    1
    35     8    33    1
    36     8    34    1
    37     9    35    1
    38     9    36    1
    39    10    37    1
    40    14    38    1
    41    15    39    1
    42    15    40    1
    43    15    41    1
    44    16    42    1
    45    17    43    1
    46    17    44    1
    47    17    45    1
    48    18    46    1
    49    19    47    1
    50    20    48    1
    51    22    49    1
    52    22    50    1
    53    22    51    1
    54    23    52    1
    55    23    53    1
    56    23    54    1
    57    24    55    1
    58    25    56    1
    59    25    57    1
    60    26    58    1
