M0001
  Spartan 06282109183D

 58 60  0  0  0  0  0  0  0  0999 V2000
    1.8647    0.8340    2.5441 C   0  0  0  0  0  0  0  0  0  0  0  0
    3.0428    1.8240    2.7303 C   0  0  0  0  0  0  0  0  0  0  0  0
    4.3096    1.3805    1.9842 C   0  0  0  0  0  0  0  0  0  0  0  0
    4.0049    0.9618    0.5954 C   0  0  0  0  0  0  0  0  0  0  0  0
    2.9068   -0.0232    0.4334 C   0  0  0  0  0  0  0  0  0  0  0  0
    1.5870    0.5296    1.0475 C   0  0  0  0  0  0  0  0  0  0  0  0
    0.6506   -0.6789    0.7450 C   0  0  0  0  0  0  0  0  0  0  0  0
    2.4886   -0.5294   -0.9369 C   0  0  0  0  0  0  0  0  0  0  0  0
    1.0888   -1.1130   -0.6896 C   0  0  0  0  0  0  0  0  0  0  0  0
    4.7616    1.6142   -0.2795 C   0  0  0  0  0  0  0  0  0  0  0  0
    5.5660    2.5435    0.5152 C   0  0  0  0  0  0  0  0  0  0  0  0
    5.2457    2.4316    1.8351 O   0  0  0  0  0  0  0  0  0  0  0  0
    6.3715    3.3285    0.0482 O   0  0  0  0  0  0  0  0  0  0  0  0
    4.9179    0.2898    2.6513 O   0  0  0  0  0  0  0  0  0  0  0  0
    1.0761    1.8147    0.3449 C   0  0  0  0  0  0  0  0  0  0  0  0
   -0.8872   -0.4893    0.8527 C   0  0  0  0  0  0  0  0  0  0  0  0
   -1.3424   -0.0855    2.2559 C   0  0  0  0  0  0  0  0  0  0  0  0
   -1.6081   -1.7723    0.4793 C   0  0  0  0  0  0  0  0  0  0  0  0
   -2.7316   -1.8971   -0.2488 C   0  0  0  0  0  0  0  0  0  0  0  0
   -3.5834   -0.7870   -0.8375 C   0  0  0  0  0  0  0  0  0  0  0  0
   -3.6670   -0.8124   -2.3995 C   0  0  0  0  0  0  0  0  0  0  0  0
   -4.9691   -0.8402   -0.1721 C   0  0  0  0  0  0  0  0  0  0  0  0
   -4.3276   -2.0753   -2.9615 C   0  0  0  0  0  0  0  0  0  0  0  0
   -4.4764    0.3044   -2.8229 O   0  0  0  0  0  0  0  0  0  0  0  0
   -2.2825   -0.6195   -3.0591 C   0  0  0  0  0  0  0  0  0  0  0  0
   -1.7533    0.6606   -2.6956 O   0  0  0  0  0  0  0  0  0  0  0  0
    2.0973   -0.0979    3.0750 H   0  0  0  0  0  0  0  0  0  0  0  0
    0.9843    1.2593    3.0332 H   0  0  0  0  0  0  0  0  0  0  0  0
    2.7424    2.8266    2.4019 H   0  0  0  0  0  0  0  0  0  0  0  0
    3.2549    1.9153    3.8031 H   0  0  0  0  0  0  0  0  0  0  0  0
    3.2135   -0.9163    1.0024 H   0  0  0  0  0  0  0  0  0  0  0  0
    0.9339   -1.4954    1.4278 H   0  0  0  0  0  0  0  0  0  0  0  0
    3.1777   -1.2883   -1.3221 H   0  0  0  0  0  0  0  0  0  0  0  0
    2.4409    0.2762   -1.6784 H   0  0  0  0  0  0  0  0  0  0  0  0
    0.4032   -0.7423   -1.4578 H   0  0  0  0  0  0  0  0  0  0  0  0
    1.1067   -2.2062   -0.7649 H   0  0  0  0  0  0  0  0  0  0  0  0
    4.7852    1.5633   -1.3518 H   0  0  0  0  0  0  0  0  0  0  0  0
    5.0867    0.5959    3.5575 H   0  0  0  0  0  0  0  0  0  0  0  0
    1.8294    2.6075    0.3212 H   0  0  0  0  0  0  0  0  0  0  0  0
    0.7767    1.6339   -0.6924 H   0  0  0  0  0  0  0  0  0  0  0  0
    0.2019    2.2208    0.8649 H   0  0  0  0  0  0  0  0  0  0  0  0
   -1.1826    0.3042    0.1592 H   0  0  0  0  0  0  0  0  0  0  0  0
   -0.9030   -0.7315    3.0239 H   0  0  0  0  0  0  0  0  0  0  0  0
   -1.0697    0.9495    2.4753 H   0  0  0  0  0  0  0  0  0  0  0  0
   -2.4329   -0.1431    2.3542 H   0  0  0  0  0  0  0  0  0  0  0  0
   -1.1652   -2.6897    0.8691 H   0  0  0  0  0  0  0  0  0  0  0  0
   -3.1115   -2.9080   -0.3996 H   0  0  0  0  0  0  0  0  0  0  0  0
   -3.1771    0.1900   -0.5507 H   0  0  0  0  0  0  0  0  0  0  0  0
   -5.6215   -0.0448   -0.5465 H   0  0  0  0  0  0  0  0  0  0  0  0
   -5.4702   -1.7994   -0.3393 H   0  0  0  0  0  0  0  0  0  0  0  0
   -4.8803   -0.7035    0.9122 H   0  0  0  0  0  0  0  0  0  0  0  0
   -4.4051   -2.0144   -4.0538 H   0  0  0  0  0  0  0  0  0  0  0  0
   -3.7656   -2.9806   -2.7144 H   0  0  0  0  0  0  0  0  0  0  0  0
   -5.3547   -2.1867   -2.5994 H   0  0  0  0  0  0  0  0  0  0  0  0
   -3.9034    1.0888   -2.7024 H   0  0  0  0  0  0  0  0  0  0  0  0
   -1.5734   -1.3996   -2.7673 H   0  0  0  0  0  0  0  0  0  0  0  0
   -2.3769   -0.6208   -4.1507 H   0  0  0  0  0  0  0  0  0  0  0  0
   -0.8957    0.7431   -3.1487 H   0  0  0  0  0  0  0  0  0  0  0  0
  1  2  1  0  0  0  0
  2  3  1  0  0  0  0
  3  4  1  0  0  0  0
  4  5  1  0  0  0  0
  5  6  1  0  0  0  0
  1  6  1  0  0  0  0
  8  9  1  0  0  0  0
  7  9  1  0  0  0  0
  7  6  1  0  0  0  0
  5  8  1  0  0  0  0
  4 10  2  0  0  0  0
 10 11  1  0  0  0  0
 13 11  2  0  0  0  0
 11 12  1  0  0  0  0
  3 12  1  0  0  0  0
  3 14  1  0  0  0  0
  6 15  1  0  0  0  0
  7 16  1  0  0  0  0
 16 17  1  0  0  0  0
 16 18  1  0  0  0  0
 18 19  2  0  0  0  0
 19 20  1  0  0  0  0
 20 21  1  0  0  0  0
 20 22  1  0  0  0  0
 21 23  1  0  0  0  0
 21 24  1  0  0  0  0
 21 25  1  0  0  0  0
 25 26  1  0  0  0  0
  1 27  1  0  0  0  0
  1 28  1  0  0  0  0
  2 29  1  0  0  0  0
  2 30  1  0  0  0  0
  5 31  1  0  0  0  0
  7 32  1  0  0  0  0
  8 33  1  0  0  0  0
  8 34  1  0  0  0  0
  9 35  1  0  0  0  0
  9 36  1  0  0  0  0
 10 37  1  0  0  0  0
 14 38  1  0  0  0  0
 15 39  1  0  0  0  0
 15 40  1  0  0  0  0
 15 41  1  0  0  0  0
 16 42  1  0  0  0  0
 17 43  1  0  0  0  0
 17 44  1  0  0  0  0
 17 45  1  0  0  0  0
 18 46  1  0  0  0  0
 19 47  1  0  0  0  0
 20 48  1  0  0  0  0
 22 49  1  0  0  0  0
 22 50  1  0  0  0  0
 22 51  1  0  0  0  0
 23 52  1  0  0  0  0
 23 53  1  0  0  0  0
 23 54  1  0  0  0  0
 24 55  1  0  0  0  0
 25 56  1  0  0  0  0
 25 57  1  0  0  0  0
 26 58  1  0  0  0  0
M  END
$$$$
