@<TRIPOS>MOLECULE
M0001
 34 34 0 0 0
SMALL
GASTEIGER

@<TRIPOS>ATOM
      1 O          -0.7507    1.4684   -0.2613 O.3     1  LIG1       -0.5030
      2 O          -1.3867   -1.7327   -4.0465 O.3     1  LIG1       -0.3889
      3 O           0.3915    3.8940   -0.2747 O.3     1  LIG1       -0.5009
      4 O          -1.4301   -4.1173   -0.6127 O.2     1  LIG1       -0.2682
      5 O           2.2224    4.6272    1.6039 O.3     1  LIG1       -0.5032
      6 N           0.4195   -1.3969    0.7234 N.3     1  LIG1       -0.2360
      7 N          -0.2773   -2.6089    0.6196 N.am    1  LIG1       -0.2459
      8 N          -1.3516   -0.8135   -1.6208 N.4     1  LIG1        0.2291
      9 C          -0.1572   -0.5308    1.7674 C.3     1  LIG1        0.0423
     10 C           0.4767    0.8331    1.7235 C.ar    1  LIG1        0.0133
     11 CA         -0.6629   -2.1416   -1.7904 C.3     1  LIG1        0.0778
     12 C           0.1556    1.7604    0.7299 C.ar    1  LIG1        0.1665
     13 C          -0.8243   -3.0494   -0.5685 C.2     1  LIG1        0.2768
     14 C           1.4288    1.2052    2.6935 C.ar    1  LIG1       -0.0501
     15 C          -1.2477   -2.7703   -3.0622 C.3     1  LIG1        0.0954
     16 C           0.7506    3.0185    0.7157 C.ar    1  LIG1        0.2009
     17 C           2.0292    2.4732    2.6746 C.ar    1  LIG1       -0.0160
     18 C           1.6812    3.3771    1.6802 C.ar    1  LIG1        0.1620
     19 H1         -1.3597   -0.3496   -2.5411 H       1  LIG1        0.2003
     20 H2         -2.3197   -0.9092   -1.3049 H       1  LIG1        0.2003
     21 H3         -0.8501   -0.2084   -0.9439 H       1  LIG1        0.2003
     22 H          -0.8501    2.3446   -0.7079 H       1  LIG1        0.2923
     23 H          -1.6414   -2.1712   -4.8849 H       1  LIG1        0.2097
     24 H           0.9173    4.7016   -0.0830 H       1  LIG1        0.2924
     25 H           2.8366    4.7501    2.3502 H       1  LIG1        0.2923
     26 H           1.3943   -1.5899    0.9908 H       1  LIG1        0.1446
     27 H          -0.3699   -3.2355    1.4225 H       1  LIG1        0.1691
     28 H          -1.2400   -0.4217    1.6238 H       1  LIG1        0.0491
     29 H          -0.0172   -0.9895    2.7542 H       1  LIG1        0.0491
     30 HA          0.3943   -1.9069   -1.9553 H       1  LIG1        0.0972
     31 H           1.7087    0.5101    3.4844 H       1  LIG1        0.0623
     32 H1         -2.2400   -3.1998   -2.8893 H       1  LIG1        0.0619
     33 H2         -0.5857   -3.5506   -3.4511 H       1  LIG1        0.0619
     34 H           2.7554    2.7302    3.4410 H       1  LIG1        0.0655
@<TRIPOS>BOND
     1     1    12    1
     2     2    15    1
     3     3    16    1
     4     4    13    2
     5     5    18    1
     6     6     7    1
     7     6     9    1
     8     7    13   am
     9    11     8    1
    10     9    10    1
    11    10    12   ar
    12    10    14   ar
    13    11    13    1
    14    11    15    1
    15    12    16   ar
    16    14    17   ar
    17    16    18   ar
    18    17    18   ar
    19     8    19    1
    20     8    20    1
    21    21     8    1
    22     1    22    1
    23     2    23    1
    24     3    24    1
    25     5    25    1
    26     6    26    1
    27     7    27    1
    28     9    28    1
    29     9    29    1
    30    11    30    1
    31    14    31    1
    32    15    32    1
    33    15    33    1
    34    17    34    1
