
  Mrv2109 06282101072D          

 21 21  0  0  1  0            999 V2000
    1.9596   -0.7093    0.0000 O   0  0  0  0  0  0  0  0  0  0  0  0
   -3.7562   -1.5343    0.0000 O   0  0  0  0  0  0  0  0  0  0  0  0
    3.3885   -1.5343    0.0000 O   0  0  0  0  0  0  0  0  0  0  0  0
   -1.6128   -2.7718    0.0000 O   0  0  0  0  0  0  0  0  0  0  0  0
    3.3885   -3.1843    0.0000 O   0  0  0  0  0  0  0  0  0  0  0  0
   -0.1839   -1.9468    0.0000 N   0  0  0  0  0  0  0  0  0  0  0  0
   -0.8983   -1.5343    0.0000 N   0  0  0  0  0  0  0  0  0  0  0  0
   -2.3273   -0.7093    0.0000 N   0  3  0  0  0  0  0  0  0  0  0  0
    0.5306   -1.5343    0.0000 C   0  0  0  0  0  0  0  0  0  0  0  0
    1.2451   -1.9468    0.0000 C   0  0  0  0  0  0  0  0  0  0  0  0
   -2.3273   -1.5343    0.0000 C   0  0  1  0  0  0  0  0  0  0  0  0
    1.9596   -1.5343    0.0000 C   0  0  0  0  0  0  0  0  0  0  0  0
   -1.6128   -1.9468    0.0000 C   0  0  0  0  0  0  0  0  0  0  0  0
    1.2451   -2.7718    0.0000 C   0  0  0  0  0  0  0  0  0  0  0  0
   -3.0417   -1.9468    0.0000 C   0  0  0  0  0  0  0  0  0  0  0  0
    2.6740   -1.9468    0.0000 C   0  0  0  0  0  0  0  0  0  0  0  0
    1.9596   -3.1843    0.0000 C   0  0  0  0  0  0  0  0  0  0  0  0
    2.6740   -2.7718    0.0000 C   0  0  0  0  0  0  0  0  0  0  0  0
   -1.5023   -0.7093    0.0000 H   0  0  0  0  0  0  0  0  0  0  0  0
   -3.1523   -0.7093    0.0000 H   0  0  0  0  0  0  0  0  0  0  0  0
   -2.3273    0.1157    0.0000 H   0  0  0  0  0  0  0  0  0  0  0  0
  1 12  1  0  0  0  0
  2 15  1  0  0  0  0
  3 16  1  0  0  0  0
  4 13  2  0  0  0  0
  5 18  1  0  0  0  0
  6  7  1  0  0  0  0
  6  9  1  0  0  0  0
  7 13  1  0  0  0  0
 11  8  1  1  0  0  0
  9 10  1  0  0  0  0
 10 12  2  0  0  0  0
 10 14  1  0  0  0  0
 11 13  1  0  0  0  0
 11 15  1  0  0  0  0
 12 16  1  0  0  0  0
 14 17  2  0  0  0  0
 16 18  2  0  0  0  0
 17 18  1  0  0  0  0
  8 19  1  0  0  0  0
  8 20  1  0  0  0  0
 21  8  1  0  0  0  0
M  CHG  1   8   1
M  END
>  <PUBCHEM_COMPOUND_CID>
2327

>  <PUBCHEM_CONFORMER_RMSD>
0.8

>  <PUBCHEM_CONFORMER_DIVERSEORDER>
1
43
26
17
19
82
56
58
46
48
86
89
6
7
54
85
61
95
4
69
15
27
59
13
64
36
45
91
31
55
83
60
22
57
50
11
20
10
80
42
5
2
63
3
75
96
18
14
76
53
92
12
29
8
30
37
72
68
73
52
51
93
25
62
78
32
34
87
66
49
98
38
39
81
65
67
99
90
74
33
97
9
70
84
24
28
79
88
94
21
71
16
47
77
35
23
41
44
40

>  <PUBCHEM_MMFF94_PARTIAL_CHARGES>
28
1 -0.53
10 -0.14
11 0.33
12 0.08
13 0.57
14 -0.15
15 0.28
16 0.08
17 -0.15
18 0.08
2 -0.68
22 0.36
23 0.15
24 0.37
27 0.15
28 0.36
29 0.36
3 -0.53
30 0.45
31 0.4
32 0.45
33 0.45
4 -0.57
5 -0.53
6 -0.64
7 -0.42
8 -0.99
9 0.41

>  <PUBCHEM_EFFECTIVE_ROTOR_COUNT>
6

>  <PUBCHEM_PHARMACOPHORE_FEATURES>
11
1 1 donor
1 2 acceptor
1 2 donor
1 3 donor
1 4 acceptor
1 5 donor
1 6 donor
1 7 donor
1 8 cation
1 8 donor
6 10 12 14 16 17 18 rings

>  <PUBCHEM_HEAVY_ATOM_COUNT>
18

>  <PUBCHEM_ATOM_DEF_STEREO_COUNT>
0

>  <PUBCHEM_ATOM_UDEF_STEREO_COUNT>
1

>  <PUBCHEM_BOND_DEF_STEREO_COUNT>
0

>  <PUBCHEM_BOND_UDEF_STEREO_COUNT>
0

>  <PUBCHEM_ISOTOPIC_ATOM_COUNT>
0

>  <PUBCHEM_COMPONENT_COUNT>
1

>  <PUBCHEM_CACTVS_TAUTO_COUNT>
38

>  <PUBCHEM_CONFORMER_ID>
0000091700000001

>  <PUBCHEM_MMFF94_ENERGY>
32.7592

>  <PUBCHEM_FEATURE_SELFOVERLAP>
57.327

>  <PUBCHEM_SHAPE_FINGERPRINT>
10912923 1 17489872652483647537
11287383 113 17385449850954774320
11471102 20 18409448089792848504
12107183 9 17624427372154716777
12236239 1 17703796911733107488
12507557 5 10303814280904902131
12596602 18 16200430281902424883
128620 24 16225765224740094785
13760787 5 18343304769048764409
13836976 161 18410578409574382462
14573314 32 18040710342990430301
14576447 43 18343866602468788348
15188451 53 14332829531531401421
15242433 33 18342176678291817471
15375358 24 17676202490138578025
15477762 27 18411703158567282256
17834072 33 18131066069593176901
19489759 90 15195571191431226761
200 152 18272369763397719273
20281475 54 18202278117529970099
20645477 70 18410288090806672639
22289505 5 18041270011198765692
23402539 116 15285356249397035203
23402655 69 18408603647530035332
23557571 272 17095234796312070349
23559900 14 18269268122394453096
23596394 208 17968086482899056791
2871803 45 18260544493991455856
29717793 49 17847063276637284517
3060560 45 18334294279964956910
42 15 12031790275064456777
42630746 31 18343297102869939688
465052 167 17846781836083265159
522135 26 18413106165057625864
5281201 14 18113618958653794940
542803 24 12829489238234117277
573450 72 16988846068889181369
77779 3 18411139134423800057

>  <PUBCHEM_SHAPE_MULTIPOLES>
326.14
12.91
1.52
1.03
10.16
0.31
0.04
0.99
-2.97
-1.9
0.05
1.36
0.01
-0.16

>  <PUBCHEM_SHAPE_SELFOVERLAP>
671.204

>  <PUBCHEM_SHAPE_VOLUME>
186.9

>  <PUBCHEM_COORDINATE_TYPE>
2
5
10

$$$$
