134695375
  rDOCK(R)          3D
libRbt.so/2013.1/901 2013/11/27
 24 24  0  0  0  0  0  0  0  0999 V2000
   93.2474   18.1166 -104.7626 H   0  0  0  0  0  0
   92.6678   17.6154 -105.4236 O   0  0  0  0  0  0
   91.4873   17.0408 -105.0067 N   0  0  0  0  0  0
   91.1902   15.8284 -105.2755 N   0  3  0  0  0  0
   89.9108   15.3113 -104.8572 C   0  0  0  0  0  0
   89.5286   14.1791 -105.2631 O   0  0  0  0  0  0
   89.0580   16.0778 -103.9879 N   0  0  0  0  0  0
   89.3642   17.0316 -103.6901 H   0  0  0  0  0  0
   87.7622   15.5718 -103.5174 C   0  0  0  0  0  0
   87.5066   16.0162 -102.0596 C   0  0  0  0  0  0
   87.6548   17.4085 -101.9275 O   0  0  0  0  0  0
   88.6257   17.5957 -102.0141 H   0  0  0  0  0  0
   86.2305   15.5893 -101.6010 O   0  0  0  0  0  0
   85.1820   16.1493 -102.3779 C   0  0  0  0  0  0
   83.8341   15.7754 -101.7441 C   0  0  0  0  0  0
   83.7406   14.3858 -101.5799 O   0  0  0  0  0  0
   84.5047   14.1131 -101.0077 H   0  0  0  0  0  0
   85.2603   15.6542 -103.8378 C   0  0  0  0  0  0
   85.1073   14.2562 -103.8766 O   0  0  0  0  0  0
   85.5220   13.9435 -104.7226 H   0  0  0  0  0  0
   86.6223   16.0602 -104.4317 C   0  0  0  0  0  0
   86.7818   15.5129 -105.7152 O   0  0  0  0  0  0
   87.6288   15.8813 -106.0794 H   0  0  0  0  0  0
   92.0976   15.0003 -106.0807 C   0  0  0  0  0  0
  1  2  1  0  0  0
  2  3  1  0  0  0
  3  4  2  0  0  0
  4  5  1  0  0  0
  4 24  1  0  0  0
  5  6  2  0  0  0
  5  7  1  0  0  0
  7  8  1  0  0  0
  7  9  1  0  0  0
  9 10  1  0  0  0
 10 11  1  0  0  0
 10 13  1  0  0  0
 11 12  1  0  0  0
 13 14  1  0  0  0
 14 15  1  0  0  0
 14 18  1  0  0  0
 15 16  1  0  0  0
 16 17  1  0  0  0
 18 19  1  0  0  0
 18 21  1  0  0  0
 19 20  1  0  0  0
 21 22  1  0  0  0
 21  9  1  0  0  0
 22 23  1  0  0  0
M  END
>  <CHROM.0>
-178.85260215,152.57934137,-64.66815934

>  <CHROM.1>
-130.39048012,143.22204497,-71.12432656,-54.13569889,58.33683000,-157.17601123
-64.25167941,87.87584814,15.74275738,-103.80856462,-0.25784880,0.36126574
0.91819255

>  <Energy>
31.041433030190596

>  <Genealogy>
C[NH+](N=O)C(=O)N[C@H]1[C@@H](O)OC(CO)C(O)[C@@H]1O (protonated)
C[N+](=NO)C(=O)N[C@H]1[C@@H](O)OC(CO)C(O)[C@@H]1O (tautomer)
C[N+](=NO)C(=O)N[C@H]1[C@@H](O)O[C@H](CO)[C@H](O)[C@@H]1O (chirality)
C/[N+](=N/O)C(=O)N[C@H]1[C@@H](O)O[C@H](CO)[C@H](O)[C@@H]1O (cis-trans isomerization)
C/[N+](=N/O)C(=O)N[C@H]1[C@@H](O)O[C@H](CO)[C@H](O)[C@@H]1O (3D coordinates assigned)
C/[N+](=N/O)C(=O)N[C@H]1[C@@H](O)O[C@H](CO)[C@H](O)[C@@H]1O (nonaromatic ring conformer: 31.041433030190596 kcal/mol)

>  <Name>
134695375

>  <RI>
3.62712e+07

>  <Rbt.Current_Directory>
/home/edward/Documentos/Virtual_Screening/rDock/3

>  <Rbt.Executable>
rbdock ($Id: //depot/dev/client3/rdock/2013.1/src/exe/rbdock.cxx#4 $)

>  <Rbt.Library>
libRbt.so (2013.1, Build901 2013/11/27)

>  <Rbt.Parameter_File>
/home/edward/anaconda3/envs/MD/share/rdock-2013.1-1/data/scripts/dock.prm

>  <Rbt.Receptor>
parameters.prm

>  <SCORE>
-19.3558

>  <SCORE.INTER>
-19.4948

>  <SCORE.INTER.CONST>
1

>  <SCORE.INTER.POLAR>
-3.91429

>  <SCORE.INTER.REPUL>
0.192674

>  <SCORE.INTER.ROT>
2

>  <SCORE.INTER.VDW>
-14.5496

>  <SCORE.INTER.norm>
-1.08305

>  <SCORE.INTRA>
-1.64799

>  <SCORE.INTRA.DIHEDRAL>
-3.59387

>  <SCORE.INTRA.DIHEDRAL.0>
8.7807

>  <SCORE.INTRA.POLAR>
-0.204378

>  <SCORE.INTRA.POLAR.0>
0

>  <SCORE.INTRA.REPUL>
0

>  <SCORE.INTRA.REPUL.0>
0

>  <SCORE.INTRA.VDW>
0.843838

>  <SCORE.INTRA.VDW.0>
-1.58865

>  <SCORE.INTRA.norm>
-0.0915548

>  <SCORE.RESTR>
0.0350444

>  <SCORE.RESTR.CAVITY>
0.0350444

>  <SCORE.RESTR.norm>
0.00194691

>  <SCORE.SYSTEM>
1.75197

>  <SCORE.SYSTEM.CONST>
0

>  <SCORE.SYSTEM.DIHEDRAL>
3.45591

>  <SCORE.SYSTEM.VDW>
0.0240138

>  <SCORE.SYSTEM.norm>
0.0973316

>  <SCORE.heavy>
18

>  <SCORE.norm>
-1.07532

>  <SMILES>
C/[N+](=N/O)C(=O)N[C@H]1[C@@H](O)O[C@H](CO)[C@H](O)[C@@H]1O

>  <UniqueID>
1

$$$$
129878031
  rDOCK(R)          3D
libRbt.so/2013.1/901 2013/11/27
 23 23  0  0  0  0  0  0  0  0999 V2000
   90.6421   16.0618 -102.7879 H   0  0  0  0  0  0
   89.6561   16.2364 -102.9217 O   0  0  0  0  0  0
   89.1498   17.0399 -103.9477 C   0  0  0  0  0  0
   89.9963   17.5792 -104.8352 C   0  0  0  0  0  0
   91.4821   17.3564 -104.7832 C   0  0  0  0  0  0
   91.9860   16.6741 -106.0522 C   0  0  0  0  0  0
   87.7389   17.3112 -104.0625 N   0  0  0  0  0  0
   87.4339   18.0618 -104.7245 H   0  0  0  0  0  0
   86.7006   16.6224 -103.2827 C   0  0  0  0  0  0
   85.4821   16.2992 -104.1783 C   0  0  0  0  0  0
   85.8987   15.5677 -105.3010 O   0  0  0  0  0  0
   86.2527   14.7022 -104.9666 H   0  0  0  0  0  0
   84.8624   17.4917 -104.6265 O   0  0  0  0  0  0
   84.3061   18.2076 -103.5358 C   0  0  0  0  0  0
   83.4830   19.3808 -104.0892 C   0  0  0  0  0  0
   82.7534   18.9929 -105.2239 O   0  0  0  0  0  0
   82.0858   18.3227 -104.9232 H   0  0  0  0  0  0
   85.4188   18.6936 -102.5768 C   0  0  0  0  0  0
   84.8371   19.3445 -101.4756 O   0  0  0  0  0  0
   84.0219   18.8322 -101.2334 H   0  0  0  0  0  0
   86.2457   17.4868 -102.0899 C   0  0  0  0  0  0
   87.3650   17.9271 -101.3637 O   0  0  0  0  0  0
   87.0231   18.4180 -100.5716 H   0  0  0  0  0  0
  1  2  1  0  0  0
  2  3  1  0  0  0
  3  4  2  0  0  0
  3  7  1  0  0  0
  4  5  1  0  0  0
  5  6  1  0  0  0
  7  8  1  0  0  0
  7  9  1  0  0  0
  9 10  1  0  0  0
 10 11  1  0  0  0
 10 13  1  0  0  0
 11 12  1  0  0  0
 13 14  1  0  0  0
 14 15  1  0  0  0
 14 18  1  0  0  0
 15 16  1  0  0  0
 16 17  1  0  0  0
 18 19  1  0  0  0
 18 21  1  0  0  0
 19 20  1  0  0  0
 21 22  1  0  0  0
 21  9  1  0  0  0
 22 23  1  0  0  0
M  END
>  <CHROM.0>
-178.51494346,154.12429061,-65.46028493

>  <CHROM.1>
2.28655034,119.22751229,-138.71061316,64.18048603,40.63025303,65.60263012
39.18933548,-175.77447056,86.85529815,17.54289193,-103.77342926,-0.21468673
-0.19126173,1.24886671

>  <Energy>
28.604969248440888

>  <Genealogy>
[2H]CCC=C(O)N[C@@H]1C(O)O[C@H](CO)[C@@H](O)[C@@H]1O (tautomer)
[2H]CCC=C(O)N[C@@H]1[C@H](O)O[C@H](CO)[C@@H](O)[C@@H]1O (chirality)
[2H]CC/C=C(\O)N[C@@H]1[C@H](O)O[C@H](CO)[C@@H](O)[C@@H]1O (cis-trans isomerization)
[2H]CC/C=C(\O)N[C@@H]1[C@H](O)O[C@H](CO)[C@@H](O)[C@@H]1O (3D coordinates assigned)
[2H]CC/C=C(\O)N[C@@H]1[C@H](O)O[C@H](CO)[C@@H](O)[C@@H]1O (nonaromatic ring conformer: 28.604969248440888 kcal/mol)

>  <Name>
129878031

>  <RI>
3.62712e+07

>  <Rbt.Current_Directory>
/home/edward/Documentos/Virtual_Screening/rDock/3

>  <Rbt.Executable>
rbdock ($Id: //depot/dev/client3/rdock/2013.1/src/exe/rbdock.cxx#4 $)

>  <Rbt.Library>
libRbt.so (2013.1, Build901 2013/11/27)

>  <Rbt.Parameter_File>
/home/edward/anaconda3/envs/MD/share/rdock-2013.1-1/data/scripts/dock.prm

>  <Rbt.Receptor>
parameters.prm

>  <SCORE>
-22.8838

>  <SCORE.INTER>
-21.2328

>  <SCORE.INTER.CONST>
1

>  <SCORE.INTER.POLAR>
-4.48352

>  <SCORE.INTER.REPUL>
0

>  <SCORE.INTER.ROT>
3

>  <SCORE.INTER.VDW>
-14.3889

>  <SCORE.INTER.norm>
-1.24899

>  <SCORE.INTRA>
-3.39202

>  <SCORE.INTRA.DIHEDRAL>
-9.44494

>  <SCORE.INTRA.DIHEDRAL.0>
15.5194

>  <SCORE.INTRA.POLAR>
0

>  <SCORE.INTRA.POLAR.0>
0

>  <SCORE.INTRA.REPUL>
0

>  <SCORE.INTRA.REPUL.0>
0

>  <SCORE.INTRA.VDW>
1.33045

>  <SCORE.INTRA.VDW.0>
-2.33206

>  <SCORE.INTRA.norm>
-0.199531

>  <SCORE.RESTR>
0

>  <SCORE.RESTR.CAVITY>
0

>  <SCORE.RESTR.norm>
0

>  <SCORE.SYSTEM>
1.74107

>  <SCORE.SYSTEM.CONST>
0

>  <SCORE.SYSTEM.DIHEDRAL>
3.16114

>  <SCORE.SYSTEM.VDW>
0.160498

>  <SCORE.SYSTEM.norm>
0.102416

>  <SCORE.heavy>
17

>  <SCORE.norm>
-1.3461

>  <SMILES>
[2H]CC/C=C(\O)N[C@@H]1[C@H](O)O[C@H](CO)[C@@H](O)[C@@H]1O

>  <UniqueID>
5

$$$$
118707521
  rDOCK(R)          3D
libRbt.so/2013.1/901 2013/11/27
 39 43  0  0  0  0  0  0  0  0999 V2000
   90.5056   19.8525 -107.2962 C   0  0  0  0  0  0
   89.9485   19.7188 -105.9480 N   0  0  0  0  0  0
   89.2815   20.6627 -105.2394 C   0  0  0  0  0  0
   88.9085   22.0011 -105.7364 C   0  0  0  0  0  0
   88.0987   22.9104 -105.0916 C   0  0  0  0  0  0
   88.0111   23.9781 -105.9063 N   0  0  0  0  0  0
   87.2914   25.2314 -105.6583 C   0  0  0  0  0  0
   85.8054   24.9528 -105.3070 C   0  0  0  0  0  0
   84.9770   25.9510 -105.8483 O   0  0  0  0  0  0
   85.6068   24.8314 -103.9056 O   0  0  0  0  0  0
   85.8988   26.0205 -103.1706 C   0  0  0  0  0  0
   84.6026   26.7982 -102.8820 C   0  0  0  0  0  0
   83.6285   25.9515 -102.3320 O   0  0  0  0  0  0
   87.0015   26.9202 -103.8058 C   0  0  0  0  0  0
   87.6425   27.7047 -102.8286 O   0  0  0  0  0  0
   88.0118   26.0445 -104.5569 C   0  0  0  0  0  0
   89.0062   26.8566 -105.1255 O   0  0  0  0  0  0
   88.7324   23.7363 -106.9895 N   0  0  0  0  0  0
   89.2872   22.5349 -106.9156 N   0  0  0  0  0  0
   88.9703   20.2534 -103.9911 N   0  0  0  0  0  0
   89.4456   18.9944 -103.9128 C   0  0  0  0  0  0
   89.2912   18.1543 -102.7046 C   0  0  0  0  0  0
   90.3749   17.3822 -102.2529 C   0  0  0  0  0  0
   90.2503   16.5901 -101.1074 C   0  0  0  0  0  0
   89.0480   16.5713 -100.3957 C   0  0  0  0  0  0
   88.9292   15.8037  -99.2846 F   0  0  0  0  0  0
   87.9712   17.3517 -100.8247 C   0  0  0  0  0  0
   88.0918   18.1455 -101.9694 C   0  0  0  0  0  0
   90.0468   18.6566 -105.1178 C   0  0  0  0  0  0
   90.7606   17.3992 -105.4267 C   0  0  0  0  0  0
   90.2638   16.1710 -104.9682 C   0  0  0  0  0  0
   90.9421   14.9926 -105.2884 C   0  0  0  0  0  0
   92.0739   15.0400 -106.0403 N   0  0  0  0  0  0
   92.5755   16.2172 -106.4998 C   0  0  0  0  0  0
   91.9273   17.4186 -106.2036 C   0  0  0  0  0  0
   85.1049   25.9197 -106.8323 H   0  0  0  0  0  0
   82.8858   26.5314 -102.0199 H   0  0  0  0  0  0
   88.3620   28.2223 -103.2763 H   0  0  0  0  0  0
   89.6710   26.2453 -105.5382 H   0  0  0  0  0  0
  1  2  1  0  0  0
  2  3  1  0  0  0
  3  4  1  0  0  0
  3 20  2  0  0  0
  4  5  2  0  0  0
  5  6  1  0  0  0
  6  7  1  0  0  0
  6 18  1  0  0  0
  7  8  1  0  0  0
  8  9  1  0  0  0
  8 10  1  0  0  0
  9 36  1  0  0  0
 10 11  1  0  0  0
 11 12  1  0  0  0
 11 14  1  0  0  0
 12 13  1  0  0  0
 13 37  1  0  0  0
 14 15  1  0  0  0
 14 16  1  0  0  0
 15 38  1  0  0  0
 16 17  1  0  0  0
 16  7  1  0  0  0
 17 39  1  0  0  0
 18 19  2  0  0  0
 19  4  1  0  0  0
 20 21  1  0  0  0
 21 22  1  0  0  0
 21 29  2  0  0  0
 22 23  2  0  0  0
 23 24  1  0  0  0
 24 25  2  0  0  0
 25 26  1  0  0  0
 25 27  1  0  0  0
 27 28  2  0  0  0
 28 22  1  0  0  0
 29 30  1  0  0  0
 29  2  1  0  0  0
 30 31  2  0  0  0
 31 32  1  0  0  0
 32 33  2  0  0  0
 33 34  1  0  0  0
 34 35  2  0  0  0
 35 30  1  0  0  0
M  END
>  <CHROM.0>
178.28517408,152.52285231,51.66199052

>  <CHROM.1>
171.83812504,-54.36229598,60.60022099,49.97307202,170.09101445,177.23211793
-63.11333830,-137.20367040,-144.23709359,88.56813757,21.25771591,-104.26395219
-0.82955634,0.95042733,-0.69950653

>  <Energy>
150.2639548352728

>  <Genealogy>
Cn1c(-c2cn([C@H]3[C@H](O)O[C@H](CO)[C@@H](O)[C@@H]3O)nn2)nc(-c2ccc(F)cc2)c1-c1ccncc1 (3D coordinates assigned)
Cn1c(-c2cn([C@H]3[C@H](O)O[C@H](CO)[C@@H](O)[C@@H]3O)nn2)nc(-c2ccc(F)cc2)c1-c1ccncc1 (nonaromatic ring conformer: 150.2639548352728 kcal/mol)

>  <Name>
118707521

>  <RI>
3.62712e+07

>  <Rbt.Current_Directory>
/home/edward/Documentos/Virtual_Screening/rDock/3

>  <Rbt.Executable>
rbdock ($Id: //depot/dev/client3/rdock/2013.1/src/exe/rbdock.cxx#4 $)

>  <Rbt.Library>
libRbt.so (2013.1, Build901 2013/11/27)

>  <Rbt.Parameter_File>
/home/edward/anaconda3/envs/MD/share/rdock-2013.1-1/data/scripts/dock.prm

>  <Rbt.Receptor>
parameters.prm

>  <SCORE>
-23.6253

>  <SCORE.INTER>
-23.9495

>  <SCORE.INTER.CONST>
1

>  <SCORE.INTER.POLAR>
-2.80538

>  <SCORE.INTER.REPUL>
0

>  <SCORE.INTER.ROT>
5

>  <SCORE.INTER.VDW>
-24.8112

>  <SCORE.INTER.norm>
-0.684271

>  <SCORE.INTRA>
-2.0759

>  <SCORE.INTRA.DIHEDRAL>
-7.19303

>  <SCORE.INTRA.DIHEDRAL.0>
21.5958

>  <SCORE.INTRA.POLAR>
-0.0235664

>  <SCORE.INTRA.POLAR.0>
0

>  <SCORE.INTRA.REPUL>
0

>  <SCORE.INTRA.REPUL.0>
0

>  <SCORE.INTRA.VDW>
1.60074

>  <SCORE.INTRA.VDW.0>
-3.91732

>  <SCORE.INTRA.norm>
-0.0593115

>  <SCORE.RESTR>
0

>  <SCORE.RESTR.CAVITY>
0

>  <SCORE.RESTR.norm>
0

>  <SCORE.SYSTEM>
2.40007

>  <SCORE.SYSTEM.CONST>
0

>  <SCORE.SYSTEM.DIHEDRAL>
3.43448

>  <SCORE.SYSTEM.VDW>
0.682832

>  <SCORE.SYSTEM.norm>
0.0685735

>  <SCORE.heavy>
35

>  <SCORE.norm>
-0.675009

>  <SMILES>
Cn1c(-c2cn([C@H]3[C@H](O)O[C@H](CO)[C@@H](O)[C@@H]3O)nn2)nc(-c2ccc(F)cc2)c1-c1ccncc1

>  <UniqueID>
14

$$$$
91820057
  rDOCK(R)          3D
libRbt.so/2013.1/901 2013/11/27
 23 23  0  0  0  0  0  0  0  0999 V2000
   89.8921   18.1879 -107.3559 H   0  0  0  0  0  0
   90.0050   19.1554 -107.0782 O   0  0  0  0  0  0
   91.2672   19.6901 -106.8209 C   0  0  0  0  0  0
   91.4005   20.9328 -106.4651 N   0  0  0  0  0  0
   90.2852   21.8621 -106.2688 C   0  0  0  0  0  0
   89.6637   21.6746 -104.8653 C   0  0  0  0  0  0
   90.6550   21.7176 -103.8686 O   0  0  0  0  0  0
   91.2671   20.9574 -104.0500 H   0  0  0  0  0  0
   88.6420   22.6308 -104.6152 O   0  0  0  0  0  0
   89.1473   23.9570 -104.6524 C   0  0  0  0  0  0
   88.0328   24.9169 -104.2165 C   0  0  0  0  0  0
   87.7346   24.7145 -102.8548 O   0  0  0  0  0  0
   86.5387   25.8229 -102.3935 S   0  0  0  0  0  0
   86.9887   27.2272 -102.6866 O   0  0  0  0  0  0
   85.2530   25.5403 -103.1200 O   0  0  0  0  0  0
   86.2729   25.6717 -100.7423 O   0  5  0  0  0  0
   89.6717   24.2997 -106.0652 C   0  0  0  0  0  0
   88.6185   24.2271 -106.9953 O   0  0  0  0  0  0
   87.9858   24.9595 -106.7748 H   0  0  0  0  0  0
   90.7850   23.3081 -106.4417 C   0  0  0  0  0  0
   91.1837   23.5316 -107.7704 O   0  0  0  0  0  0
   91.9314   22.9058 -107.9578 H   0  0  0  0  0  0
   92.4842   18.8401 -106.9947 C   0  0  0  0  0  0
  1  2  1  0  0  0
  2  3  1  0  0  0
  3  4  2  0  0  0
  3 23  1  0  0  0
  4  5  1  0  0  0
  5  6  1  0  0  0
  6  7  1  0  0  0
  6  9  1  0  0  0
  7  8  1  0  0  0
  9 10  1  0  0  0
 10 11  1  0  0  0
 10 17  1  0  0  0
 11 12  1  0  0  0
 12 13  1  0  0  0
 13 14  2  0  0  0
 13 15  2  0  0  0
 13 16  1  0  0  0
 17 18  1  0  0  0
 17 20  1  0  0  0
 18 19  1  0  0  0
 20 21  1  0  0  0
 20  5  1  0  0  0
 21 22  1  0  0  0
M  END
>  <CHROM.0>
-178.33159757,153.80757213,55.96790538

>  <CHROM.1>
-179.99126962,82.04744293,-61.97282342,67.40369345,178.14889498,-56.05426145
66.77515314,-61.50745466,88.98272343,23.33664277,-104.80882683,0.23399212
-0.96230277,2.53604703

>  <Energy>
29.0514439079175

>  <Genealogy>
CC(O)=N[C@H]1C(O)O[C@H](COS(=O)(=O)[O-])[C@H](O)[C@@H]1O (tautomer)
CC(O)=N[C@H]1[C@@H](O)O[C@H](COS(=O)(=O)[O-])[C@H](O)[C@@H]1O (chirality)
C/C(O)=N\[C@H]1[C@@H](O)O[C@H](COS(=O)(=O)[O-])[C@H](O)[C@@H]1O (cis-trans isomerization)
C/C(O)=N\[C@H]1[C@@H](O)O[C@H](COS(=O)(=O)[O-])[C@H](O)[C@@H]1O (3D coordinates assigned)
C/C(O)=N\[C@H]1[C@@H](O)O[C@H](COS(=O)(=O)[O-])[C@H](O)[C@@H]1O (nonaromatic ring conformer: 29.0514439079175 kcal/mol)

>  <Name>
91820057

>  <RI>
3.62712e+07

>  <Rbt.Current_Directory>
/home/edward/Documentos/Virtual_Screening/rDock/3

>  <Rbt.Executable>
rbdock ($Id: //depot/dev/client3/rdock/2013.1/src/exe/rbdock.cxx#4 $)

>  <Rbt.Library>
libRbt.so (2013.1, Build901 2013/11/27)

>  <Rbt.Parameter_File>
/home/edward/anaconda3/envs/MD/share/rdock-2013.1-1/data/scripts/dock.prm

>  <Rbt.Receptor>
parameters.prm

>  <SCORE>
-16.6516

>  <SCORE.INTER>
-17.2929

>  <SCORE.INTER.CONST>
1

>  <SCORE.INTER.POLAR>
-4.20542

>  <SCORE.INTER.REPUL>
0.0349406

>  <SCORE.INTER.ROT>
4

>  <SCORE.INTER.VDW>
-12.5691

>  <SCORE.INTER.norm>
-0.91015

>  <SCORE.INTRA>
-1.7927

>  <SCORE.INTRA.DIHEDRAL>
-4.49718

>  <SCORE.INTRA.DIHEDRAL.0>
6.76161

>  <SCORE.INTRA.POLAR>
-0.0101177

>  <SCORE.INTRA.POLAR.0>
0

>  <SCORE.INTRA.REPUL>
0

>  <SCORE.INTRA.REPUL.0>
0

>  <SCORE.INTRA.VDW>
0.490292

>  <SCORE.INTRA.VDW.0>
-1.73522

>  <SCORE.INTRA.norm>
-0.0943525

>  <SCORE.RESTR>
0

>  <SCORE.RESTR.CAVITY>
0

>  <SCORE.RESTR.norm>
0

>  <SCORE.SYSTEM>
2.43392

>  <SCORE.SYSTEM.CONST>
0

>  <SCORE.SYSTEM.DIHEDRAL>
3.24802

>  <SCORE.SYSTEM.VDW>
0.809909

>  <SCORE.SYSTEM.norm>
0.128101

>  <SCORE.heavy>
19

>  <SCORE.norm>
-0.876402

>  <SMILES>
C/C(O)=N\[C@H]1[C@@H](O)O[C@H](COS(=O)(=O)[O-])[C@H](O)[C@@H]1O

>  <UniqueID>
17

$$$$
90659182
  rDOCK(R)          3D
libRbt.so/2013.1/901 2013/11/27
 22 22  0  0  0  0  0  0  0  0999 V2000
   91.6290   19.0513 -108.0951 C   0  0  0  0  0  0
   91.9973   18.1026 -107.0018 C   0  0  0  0  0  0
   93.1289   18.1946 -106.4532 O   0  0  0  0  0  0
   91.0518   17.1168 -106.5632 N   0  0  0  0  0  0
   91.3122   16.2108 -105.4365 C   0  0  0  0  0  0
   90.5851   14.8680 -105.6649 C   0  0  0  0  0  0
   91.0029   13.8950 -104.7380 O   0  0  0  0  0  0
   89.1762   15.0306 -105.6193 O   0  0  0  0  0  0
   88.7360   15.4902 -104.3494 C   0  0  0  0  0  0
   87.2007   15.5127 -104.3666 C   0  0  0  0  0  0
   86.7301   16.0777 -105.5595 O   0  0  0  0  0  0
   89.3136   16.8937 -104.0406 C   0  0  0  0  0  0
   88.9047   17.2993 -102.7318 O   0  0  0  0  0  0
   89.0515   18.6005 -102.2379 C   0  0  0  0  0  0
   88.7489   18.8775 -100.8051 C   0  0  0  0  0  0
   89.4667   19.5324 -102.9789 O   0  0  0  0  0  0
   90.8522   16.8433 -104.1111 C   0  0  0  0  0  0
   91.3937   18.1345 -103.9919 O   0  0  0  0  0  0
   90.1023   17.1189 -107.0011 H   0  0  0  0  0  0
   90.5265   13.0546 -104.9677 H   0  0  0  0  0  0
   87.0023   17.0318 -105.5388 H   0  0  0  0  0  0
   92.3818   18.0384 -103.9880 H   0  0  0  0  0  0
  1  2  1  0  0  0
  2  3  2  0  0  0
  2  4  1  0  0  0
  4  5  1  0  0  0
  4 19  1  0  0  0
  5  6  1  0  0  0
  6  7  1  0  0  0
  6  8  1  0  0  0
  7 20  1  0  0  0
  8  9  1  0  0  0
  9 10  1  0  0  0
  9 12  1  0  0  0
 10 11  1  0  0  0
 11 21  1  0  0  0
 12 13  1  0  0  0
 12 17  1  0  0  0
 13 14  1  0  0  0
 14 15  1  0  0  0
 14 16  2  0  0  0
 17 18  1  0  0  0
 17  5  1  0  0  0
 18 22  1  0  0  0
M  END
>  <CHROM.0>
-74.10074189,152.93363830,-67.73317199

>  <CHROM.1>
-149.15560929,-177.64705733,-44.74160205,-66.55106117,-168.17470463,-172.44476346
-61.25798836,90.00385110,16.98118096,-104.71061525,-0.48639439,0.71490411
0.68537477

>  <Energy>
28.22515867784672

>  <Genealogy>
CC(=O)N[C@@H]1[C@@H](O)O[C@H](CO)[C@@H](OC(C)=O)[C@@H]1O (3D coordinates assigned)
CC(=O)N[C@@H]1[C@@H](O)O[C@H](CO)[C@@H](OC(C)=O)[C@@H]1O (nonaromatic ring conformer: 28.22515867784672 kcal/mol)

>  <Name>
90659182

>  <RI>
3.62712e+07

>  <Rbt.Current_Directory>
/home/edward/Documentos/Virtual_Screening/rDock/3

>  <Rbt.Executable>
rbdock ($Id: //depot/dev/client3/rdock/2013.1/src/exe/rbdock.cxx#4 $)

>  <Rbt.Library>
libRbt.so (2013.1, Build901 2013/11/27)

>  <Rbt.Parameter_File>
/home/edward/anaconda3/envs/MD/share/rdock-2013.1-1/data/scripts/dock.prm

>  <Rbt.Receptor>
parameters.prm

>  <SCORE>
-14.8095

>  <SCORE.INTER>
-15.6564

>  <SCORE.INTER.CONST>
1

>  <SCORE.INTER.POLAR>
-3.81105

>  <SCORE.INTER.REPUL>
0.166421

>  <SCORE.INTER.ROT>
4

>  <SCORE.INTER.VDW>
-12.931

>  <SCORE.INTER.norm>
-0.869802

>  <SCORE.INTRA>
-2.42844

>  <SCORE.INTRA.DIHEDRAL>
-6.13859

>  <SCORE.INTRA.DIHEDRAL.0>
9.23562

>  <SCORE.INTRA.POLAR>
0

>  <SCORE.INTRA.POLAR.0>
0

>  <SCORE.INTRA.REPUL>
0

>  <SCORE.INTRA.REPUL.0>
0

>  <SCORE.INTRA.VDW>
0.640851

>  <SCORE.INTRA.VDW.0>
-2.84723

>  <SCORE.INTRA.norm>
-0.134913

>  <SCORE.RESTR>
0.0241582

>  <SCORE.RESTR.CAVITY>
0.0241582

>  <SCORE.RESTR.norm>
0.00134212

>  <SCORE.SYSTEM>
3.2512

>  <SCORE.SYSTEM.CONST>
0

>  <SCORE.SYSTEM.DIHEDRAL>
4.28375

>  <SCORE.SYSTEM.VDW>
1.10932

>  <SCORE.SYSTEM.norm>
0.180622

>  <SCORE.heavy>
18

>  <SCORE.norm>
-0.822751

>  <SMILES>
CC(=O)N[C@@H]1[C@@H](O)O[C@H](CO)[C@@H](OC(C)=O)[C@@H]1O

>  <UniqueID>
19

$$$$
76325328
  rDOCK(R)          3D
libRbt.so/2013.1/901 2013/11/27
 39 43  0  0  0  0  0  0  0  0999 V2000
   88.9625   12.9502 -100.5499 C   0  0  0  0  0  0
   87.7274   13.6226 -100.9604 N   0  0  0  0  0  0
   86.4929   13.0730 -101.0708 C   0  0  0  0  0  0
   86.1380   11.6872 -100.7086 C   0  0  0  0  0  0
   84.9289   11.0692 -100.9442 C   0  0  0  0  0  0
   85.0366    9.8282 -100.4394 N   0  0  0  0  0  0
   84.0252    8.7671 -100.5213 C   0  0  0  0  0  0
   84.3737    7.7593 -101.6417 C   0  0  0  0  0  0
   85.7656    7.6074 -101.7926 O   0  0  0  0  0  0
   83.7418    6.5140 -101.3993 O   0  0  0  0  0  0
   84.3353    5.8222 -100.3067 C   0  0  0  0  0  0
   83.4530    4.6122  -99.9626 C   0  0  0  0  0  0
   82.1249    5.0135  -99.7572 O   0  0  0  0  0  0
   84.5601    6.7216  -99.0449 C   0  0  0  0  0  0
   85.9324    6.9741  -98.8799 O   0  0  0  0  0  0
   83.8122    8.0683  -99.1475 C   0  0  0  0  0  0
   82.4414    7.8857  -98.8822 O   0  0  0  0  0  0
   86.2534    9.6882  -99.9350 N   0  0  0  0  0  0
   86.9442   10.8100 -100.0774 N   0  0  0  0  0  0
   85.5793   13.9397 -101.5573 N   0  0  0  0  0  0
   86.2598   15.0876 -101.7474 C   0  0  0  0  0  0
   85.6216   16.3224 -102.2547 C   0  0  0  0  0  0
   86.3135   17.5471 -102.2750 C   0  0  0  0  0  0
   85.6877   18.7038 -102.7494 C   0  0  0  0  0  0
   84.3643   18.6526 -103.1948 C   0  0  0  0  0  0
   83.7590   19.7757 -103.6532 F   0  0  0  0  0  0
   83.6623   17.4452 -103.1589 C   0  0  0  0  0  0
   84.2844   16.2861 -102.6851 C   0  0  0  0  0  0
   87.5848   14.9005 -101.3777 C   0  0  0  0  0  0
   88.6843   15.8805 -101.5059 C   0  0  0  0  0  0
   89.0050   16.4272 -102.7561 C   0  0  0  0  0  0
   90.0581   17.3396 -102.8575 C   0  0  0  0  0  0
   90.7667   17.6892 -101.7511 N   0  0  0  0  0  0
   90.4792   17.1708 -100.5275 C   0  0  0  0  0  0
   89.4336   16.2561 -100.3819 C   0  0  0  0  0  0
   85.9021    7.0832 -102.6245 H   0  0  0  0  0  0
   81.6413    4.8422 -100.6071 H   0  0  0  0  0  0
   86.2282    7.4886  -99.6762 H   0  0  0  0  0  0
   82.1218    7.1200  -99.4259 H   0  0  0  0  0  0
  1  2  1  0  0  0
  2  3  1  0  0  0
  3  4  1  0  0  0
  3 20  2  0  0  0
  4  5  2  0  0  0
  5  6  1  0  0  0
  6  7  1  0  0  0
  6 18  1  0  0  0
  7  8  1  0  0  0
  8  9  1  0  0  0
  8 10  1  0  0  0
  9 36  1  0  0  0
 10 11  1  0  0  0
 11 12  1  0  0  0
 11 14  1  0  0  0
 12 13  1  0  0  0
 13 37  1  0  0  0
 14 15  1  0  0  0
 14 16  1  0  0  0
 15 38  1  0  0  0
 16 17  1  0  0  0
 16  7  1  0  0  0
 17 39  1  0  0  0
 18 19  2  0  0  0
 19  4  1  0  0  0
 20 21  1  0  0  0
 21 22  1  0  0  0
 21 29  2  0  0  0
 22 23  2  0  0  0
 23 24  1  0  0  0
 24 25  2  0  0  0
 25 26  1  0  0  0
 25 27  1  0  0  0
 27 28  2  0  0  0
 28 22  1  0  0  0
 29 30  1  0  0  0
 29  2  1  0  0  0
 30 31  2  0  0  0
 31 32  1  0  0  0
 32 33  2  0  0  0
 33 34  1  0  0  0
 34 35  2  0  0  0
 35 30  1  0  0  0
M  END
>  <CHROM.0>
178.15371050,153.94291915,45.62333845

>  <CHROM.1>
-172.64754482,100.47973147,-169.97814753,-53.18796896,97.89222814,63.36226456
76.69364444,171.46932812,117.77937163,85.86898041,12.32452110,-101.13327155
-1.28697400,0.20854766,2.87287001

>  <Energy>
151.8028975527201

>  <Genealogy>
Cn1c(-c2cn([C@H]3[C@@H](O)O[C@H](CO)[C@@H](O)[C@@H]3O)nn2)nc(-c2ccc(F)cc2)c1-c1ccncc1 (chirality)
Cn1c(-c2cn([C@H]3[C@@H](O)O[C@H](CO)[C@@H](O)[C@@H]3O)nn2)nc(-c2ccc(F)cc2)c1-c1ccncc1 (3D coordinates assigned)
Cn1c(-c2cn([C@H]3[C@@H](O)O[C@H](CO)[C@@H](O)[C@@H]3O)nn2)nc(-c2ccc(F)cc2)c1-c1ccncc1 (nonaromatic ring conformer: 151.8028975527201 kcal/mol)

>  <Name>
76325328

>  <RI>
3.62712e+07

>  <Rbt.Current_Directory>
/home/edward/Documentos/Virtual_Screening/rDock/3

>  <Rbt.Executable>
rbdock ($Id: //depot/dev/client3/rdock/2013.1/src/exe/rbdock.cxx#4 $)

>  <Rbt.Library>
libRbt.so (2013.1, Build901 2013/11/27)

>  <Rbt.Parameter_File>
/home/edward/anaconda3/envs/MD/share/rdock-2013.1-1/data/scripts/dock.prm

>  <Rbt.Receptor>
parameters.prm

>  <SCORE>
-25.3804

>  <SCORE.INTER>
-17.628

>  <SCORE.INTER.CONST>
1

>  <SCORE.INTER.POLAR>
-2.52946

>  <SCORE.INTER.REPUL>
0.0149297

>  <SCORE.INTER.ROT>
5

>  <SCORE.INTER.VDW>
-19.5025

>  <SCORE.INTER.norm>
-0.503658

>  <SCORE.INTRA>
-10.2092

>  <SCORE.INTRA.DIHEDRAL>
0.973533

>  <SCORE.INTRA.DIHEDRAL.0>
18.7278

>  <SCORE.INTRA.POLAR>
-2.2089

>  <SCORE.INTRA.POLAR.0>
0

>  <SCORE.INTRA.REPUL>
-0.773332

>  <SCORE.INTRA.REPUL.0>
0.773332

>  <SCORE.INTRA.VDW>
0.680938

>  <SCORE.INTRA.VDW.0>
-4.33652

>  <SCORE.INTRA.norm>
-0.291692

>  <SCORE.RESTR>
0

>  <SCORE.RESTR.CAVITY>
0

>  <SCORE.RESTR.norm>
0

>  <SCORE.SYSTEM>
2.45681

>  <SCORE.SYSTEM.CONST>
0

>  <SCORE.SYSTEM.DIHEDRAL>
3.22855

>  <SCORE.SYSTEM.VDW>
0.842541

>  <SCORE.SYSTEM.norm>
0.0701947

>  <SCORE.heavy>
35

>  <SCORE.norm>
-0.725155

>  <SMILES>
Cn1c(-c2cn([C@H]3[C@@H](O)O[C@H](CO)[C@@H](O)[C@@H]3O)nn2)nc(-c2ccc(F)cc2)c1-c1ccncc1

>  <UniqueID>
27

$$$$
57376616
  rDOCK(R)          3D
libRbt.so/2013.1/901 2013/11/27
 20 20  0  0  0  0  0  0  0  0999 V2000
   90.5839   17.3155 -105.3014 C   0  0  0  0  0  0
   89.6388   16.5133 -104.4681 C   0  0  0  0  0  0
   90.0706   15.5284 -103.8098 O   0  0  0  0  0  0
   88.2456   16.8538 -104.4410 N   0  0  0  0  0  0
   87.2700   16.1392 -103.6058 C   0  0  0  0  0  0
   85.9539   15.9108 -104.3857 C   0  0  0  0  0  0
   86.2282   15.2784 -105.6079 O   0  0  0  0  0  0
   85.3122   17.1460 -104.6541 O   0  0  0  0  0  0
   84.8872   17.7596 -103.4478 C   0  0  0  0  0  0
   84.0004   18.9636 -103.7974 C   0  0  0  0  0  0
   83.0693   18.6250 -104.7910 O   0  0  0  0  0  0
   86.1101   18.1657 -102.5885 C   0  0  0  0  0  0
   86.8835   19.1343 -103.2542 O   0  0  0  0  0  0
   86.9710   16.9181 -102.3067 C   0  0  0  0  0  0
   88.1686   17.2780 -101.6671 O   0  0  0  0  0  0
   87.9260   17.6626 -105.0216 H   0  0  0  0  0  0
   86.6484   14.4047 -105.3930 H   0  0  0  0  0  0
   82.5582   19.4494 -105.0015 H   0  0  0  0  0  0
   86.2817   19.8929 -103.4721 H   0  0  0  0  0  0
   88.6486   16.4337 -101.4608 H   0  0  0  0  0  0
  1  2  1  0  0  0
  2  3  2  0  0  0
  2  4  1  0  0  0
  4  5  1  0  0  0
  4 16  1  0  0  0
  5  6  1  0  0  0
  6  7  1  0  0  0
  6  8  1  0  0  0
  7 17  1  0  0  0
  8  9  1  0  0  0
  9 10  1  0  0  0
  9 12  1  0  0  0
 10 11  1  0  0  0
 11 18  1  0  0  0
 12 13  1  0  0  0
 12 14  1  0  0  0
 13 19  1  0  0  0
 14 15  1  0  0  0
 14  5  1  0  0  0
 15 20  1  0  0  0
M  END
>  <CHROM.0>
-76.38061845,153.22718548,-65.79512308

>  <CHROM.1>
-138.75105296,60.88435588,45.52254835,-177.44474917,55.62446418,-60.04986370
86.87403169,17.18856449,-103.89919378,0.21768322,0.25636485,-2.27175590

>  <Energy>
25.630087028035952

>  <Genealogy>
CC(=O)N[C@@H]1[C@H](O)O[C@H](CO)[C@H](O)[C@@H]1O (chirality)
CC(=O)N[C@@H]1[C@H](O)O[C@H](CO)[C@H](O)[C@@H]1O (3D coordinates assigned)
CC(=O)N[C@@H]1[C@H](O)O[C@H](CO)[C@H](O)[C@@H]1O (nonaromatic ring conformer: 25.630087028035952 kcal/mol)

>  <Name>
57376616

>  <RI>
3.62712e+07

>  <Rbt.Current_Directory>
/home/edward/Documentos/Virtual_Screening/rDock/3

>  <Rbt.Executable>
rbdock ($Id: //depot/dev/client3/rdock/2013.1/src/exe/rbdock.cxx#4 $)

>  <Rbt.Library>
libRbt.so (2013.1, Build901 2013/11/27)

>  <Rbt.Parameter_File>
/home/edward/anaconda3/envs/MD/share/rdock-2013.1-1/data/scripts/dock.prm

>  <Rbt.Receptor>
parameters.prm

>  <SCORE>
-17.3122

>  <SCORE.INTER>
-16.6566

>  <SCORE.INTER.CONST>
1

>  <SCORE.INTER.POLAR>
-3.92586

>  <SCORE.INTER.REPUL>
0

>  <SCORE.INTER.ROT>
2

>  <SCORE.INTER.VDW>
-10.7087

>  <SCORE.INTER.norm>
-1.11044

>  <SCORE.INTRA>
-3.88897

>  <SCORE.INTRA.DIHEDRAL>
-9.56197

>  <SCORE.INTRA.DIHEDRAL.0>
11.633

>  <SCORE.INTRA.POLAR>
0

>  <SCORE.INTRA.POLAR.0>
0

>  <SCORE.INTRA.REPUL>
0

>  <SCORE.INTRA.REPUL.0>
0

>  <SCORE.INTRA.VDW>
0.892019

>  <SCORE.INTRA.VDW.0>
-2.12311

>  <SCORE.INTRA.norm>
-0.259264

>  <SCORE.RESTR>
0

>  <SCORE.RESTR.CAVITY>
0

>  <SCORE.RESTR.norm>
0

>  <SCORE.SYSTEM>
3.23338

>  <SCORE.SYSTEM.CONST>
0

>  <SCORE.SYSTEM.DIHEDRAL>
4.55584

>  <SCORE.SYSTEM.VDW>
0.955456

>  <SCORE.SYSTEM.norm>
0.215559

>  <SCORE.heavy>
15

>  <SCORE.norm>
-1.15415

>  <SMILES>
CC(=O)N[C@@H]1[C@H](O)O[C@H](CO)[C@H](O)[C@@H]1O

>  <UniqueID>
31

$$$$
57339292
  rDOCK(R)          3D
libRbt.so/2013.1/901 2013/11/27
 26 26  0  0  0  0  0  0  0  0999 V2000
   90.9691   17.0724 -103.8025 N   0  3  0  0  0  0
   90.5512   18.0723 -104.7951 C   0  0  0  0  0  0
   89.8437   19.2657 -104.1119 C   0  0  0  0  0  0
   90.6748   19.8356 -103.1110 O   0  0  0  0  0  0
   89.9120   20.3687 -102.0372 C   0  0  0  0  0  0
   90.8032   20.5068 -100.7953 C   0  0  0  0  0  0
   91.2610   19.1671 -100.3081 C   0  0  0  0  0  0
   90.9305   18.1207 -100.9252 O   0  0  0  0  0  0
   92.0265   19.0719  -99.1529 O   0  5  0  0  0  0
   89.3960   21.7210 -102.4329 C   0  0  0  0  0  0
   90.1194   22.5101 -103.0972 O   0  0  0  0  0  0
   88.1272   22.1242 -102.0361 O   0  5  0  0  0  0
   89.4467   20.2347 -105.0726 O   0  0  0  0  0  0
   90.5627   20.7864 -105.7557 C   0  0  0  0  0  0
   90.0576   21.9057 -106.6781 C   0  0  0  0  0  0
   91.1117   22.7594 -107.0334 O   0  0  0  0  0  0
   91.2999   19.6994 -106.5677 C   0  0  0  0  0  0
   92.4220   20.2619 -107.1996 O   0  0  0  0  0  0
   91.7507   18.5680 -105.6296 C   0  0  0  0  0  0
   92.2690   17.5131 -106.4003 O   0  0  0  0  0  0
   92.0126   17.0353 -103.7513 H   0  0  0  0  0  0
   90.6299   16.1251 -104.0878 H   0  0  0  0  0  0
   90.5876   17.3039 -102.8565 H   0  0  0  0  0  0
   91.8023   22.1930 -107.4673 H   0  0  0  0  0  0
   92.8116   19.5556 -107.7784 H   0  0  0  0  0  0
   93.0608   17.8659 -106.8839 H   0  0  0  0  0  0
  1  2  1  0  0  0
  1 21  1  0  0  0
  1 22  1  0  0  0
  1 23  1  0  0  0
  2  3  1  0  0  0
  3  4  1  0  0  0
  3 13  1  0  0  0
  4  5  1  0  0  0
  5  6  1  0  0  0
  5 10  1  0  0  0
  6  7  1  0  0  0
  7  8  2  0  0  0
  7  9  1  0  0  0
 10 11  2  0  0  0
 10 12  1  0  0  0
 13 14  1  0  0  0
 14 15  1  0  0  0
 14 17  1  0  0  0
 15 16  1  0  0  0
 16 24  1  0  0  0
 17 18  1  0  0  0
 17 19  1  0  0  0
 18 25  1  0  0  0
 19 20  1  0  0  0
 19  2  1  0  0  0
 20 26  1  0  0  0
M  END
>  <CHROM.0>
178.20946456,154.39024118,-66.24583532

>  <CHROM.1>
-112.82706931,-148.15199675,159.93122746,-64.81839651,-38.87219402,1.54463572
160.69233207,57.55229989,-174.50626475,-177.33335113,90.71238099,19.96679076
-103.89053077,-1.79874717,1.12917359,-1.25280804

>  <Energy>
32.317035947317414

>  <Genealogy>
[NH3+][C@H]1[C@@H](O[C@@H](CC(=O)[O-])C(=O)[O-])O[C@H](CO)[C@@H](O)[C@@H]1O (3D coordinates assigned)
[NH3+][C@H]1[C@@H](O[C@@H](CC(=O)[O-])C(=O)[O-])O[C@H](CO)[C@@H](O)[C@@H]1O (nonaromatic ring conformer: 32.317035947317414 kcal/mol)

>  <Name>
57339292

>  <RI>
3.62712e+07

>  <Rbt.Current_Directory>
/home/edward/Documentos/Virtual_Screening/rDock/3

>  <Rbt.Executable>
rbdock ($Id: //depot/dev/client3/rdock/2013.1/src/exe/rbdock.cxx#4 $)

>  <Rbt.Library>
libRbt.so (2013.1, Build901 2013/11/27)

>  <Rbt.Parameter_File>
/home/edward/anaconda3/envs/MD/share/rdock-2013.1-1/data/scripts/dock.prm

>  <Rbt.Receptor>
parameters.prm

>  <SCORE>
-20.3962

>  <SCORE.INTER>
-15.0614

>  <SCORE.INTER.CONST>
1

>  <SCORE.INTER.POLAR>
-3.04322

>  <SCORE.INTER.REPUL>
0.0420963

>  <SCORE.INTER.ROT>
6

>  <SCORE.INTER.VDW>
-16.3249

>  <SCORE.INTER.norm>
-0.753071

>  <SCORE.INTRA>
-7.07429

>  <SCORE.INTRA.DIHEDRAL>
-4.46393

>  <SCORE.INTRA.DIHEDRAL.0>
17.5668

>  <SCORE.INTRA.POLAR>
-2.05195

>  <SCORE.INTRA.POLAR.0>
0

>  <SCORE.INTRA.REPUL>
0

>  <SCORE.INTRA.REPUL.0>
0

>  <SCORE.INTRA.VDW>
2.13431

>  <SCORE.INTRA.VDW.0>
-4.19116

>  <SCORE.INTRA.norm>
-0.353715

>  <SCORE.RESTR>
0

>  <SCORE.RESTR.CAVITY>
0

>  <SCORE.RESTR.norm>
0

>  <SCORE.SYSTEM>
1.73951

>  <SCORE.SYSTEM.CONST>
0

>  <SCORE.SYSTEM.DIHEDRAL>
3.10667

>  <SCORE.SYSTEM.VDW>
0.186177

>  <SCORE.SYSTEM.norm>
0.0869756

>  <SCORE.heavy>
20

>  <SCORE.norm>
-1.01981

>  <SMILES>
[NH3+][C@H]1[C@@H](O[C@@H](CC(=O)[O-])C(=O)[O-])O[C@H](CO)[C@@H](O)[C@@H]1O

>  <UniqueID>
35

$$$$
57339290
  rDOCK(R)          3D
libRbt.so/2013.1/901 2013/11/27
 27 27  0  0  0  0  0  0  0  0999 V2000
   89.5065   20.7866 -100.8907 C   0  0  0  0  0  0
   90.3643   19.7562 -101.5491 C   0  0  0  0  0  0
   91.2315   19.1423 -100.8700 O   0  0  0  0  0  0
   90.1854   19.4595 -102.9405 N   0  0  0  0  0  0
   90.9309   18.3928 -103.6204 C   0  0  0  0  0  0
   90.4036   17.0112 -103.1842 C   0  0  0  0  0  0
   89.0030   16.9305 -103.4103 O   0  0  0  0  0  0
   88.4867   15.6623 -103.0472 C   0  0  0  0  0  0
   88.6128   15.4756 -101.5223 C   0  0  0  0  0  0
   88.3117   14.0671 -101.1053 C   0  0  0  0  0  0
   87.1272   13.7231 -100.8462 O   0  0  0  0  0  0
   89.3338   13.1303 -101.0290 O   0  5  0  0  0  0
   87.0435   15.6226 -103.4622 C   0  0  0  0  0  0
   86.4034   14.5388 -103.4345 O   0  0  0  0  0  0
   86.4103   16.7804 -103.8900 O   0  5  0  0  0  0
   91.1007   15.9696 -103.8530 O   0  0  0  0  0  0
   90.9075   16.0195 -105.2581 C   0  0  0  0  0  0
   91.6022   14.7951 -105.8684 C   0  0  0  0  0  0
   91.0208   13.6127 -105.3915 O   0  0  0  0  0  0
   91.4781   17.3347 -105.8421 C   0  0  0  0  0  0
   91.2237   17.3901 -107.2229 O   0  0  0  0  0  0
   90.8183   18.5400 -105.1478 C   0  0  0  0  0  0
   91.4508   19.7296 -105.5430 O   0  0  0  0  0  0
   89.4945   20.0309 -103.4789 H   0  0  0  0  0  0
   91.1045   13.6410 -104.4017 H   0  0  0  0  0  0
   90.2445   17.3045 -107.3418 H   0  0  0  0  0  0
   92.3906   19.6728 -105.2288 H   0  0  0  0  0  0
  1  2  1  0  0  0
  2  3  2  0  0  0
  2  4  1  0  0  0
  4  5  1  0  0  0
  4 24  1  0  0  0
  5  6  1  0  0  0
  6  7  1  0  0  0
  6 16  1  0  0  0
  7  8  1  0  0  0
  8  9  1  0  0  0
  8 13  1  0  0  0
  9 10  1  0  0  0
 10 11  2  0  0  0
 10 12  1  0  0  0
 13 14  2  0  0  0
 13 15  1  0  0  0
 16 17  1  0  0  0
 17 18  1  0  0  0
 17 20  1  0  0  0
 18 19  1  0  0  0
 19 25  1  0  0  0
 20 21  1  0  0  0
 20 22  1  0  0  0
 21 26  1  0  0  0
 22 23  1  0  0  0
 22  5  1  0  0  0
 23 27  1  0  0  0
M  END
>  <CHROM.0>
-172.15910290,152.05890730,-61.69403103

>  <CHROM.1>
72.95160929,178.74598640,66.19575279,-169.85812626,169.43707867,-88.03588715
62.16805227,-57.82756263,56.87323643,57.68161851,89.69669315,16.67410866
-103.45976509,0.44781026,0.93208836,0.56133066

>  <Energy>
33.981450450683

>  <Genealogy>
CC(=O)N[C@H]1[C@@H](O[C@@H](CC(=O)[O-])C(=O)[O-])O[C@H](CO)[C@@H](O)[C@@H]1O (3D coordinates assigned)
CC(=O)N[C@H]1[C@@H](O[C@@H](CC(=O)[O-])C(=O)[O-])O[C@H](CO)[C@@H](O)[C@@H]1O (nonaromatic ring conformer: 33.981450450683 kcal/mol)

>  <Name>
57339290

>  <RI>
3.62712e+07

>  <Rbt.Current_Directory>
/home/edward/Documentos/Virtual_Screening/rDock/3

>  <Rbt.Executable>
rbdock ($Id: //depot/dev/client3/rdock/2013.1/src/exe/rbdock.cxx#4 $)

>  <Rbt.Library>
libRbt.so (2013.1, Build901 2013/11/27)

>  <Rbt.Parameter_File>
/home/edward/anaconda3/envs/MD/share/rdock-2013.1-1/data/scripts/dock.prm

>  <Rbt.Receptor>
parameters.prm

>  <SCORE>
-16.5413

>  <SCORE.INTER>
-14.8219

>  <SCORE.INTER.CONST>
1

>  <SCORE.INTER.POLAR>
-3.24062

>  <SCORE.INTER.REPUL>
0.0994077

>  <SCORE.INTER.ROT>
7

>  <SCORE.INTER.VDW>
-16.7008

>  <SCORE.INTER.norm>
-0.644429

>  <SCORE.INTRA>
-3.66441

>  <SCORE.INTRA.DIHEDRAL>
-11.4739

>  <SCORE.INTRA.DIHEDRAL.0>
15.7105

>  <SCORE.INTRA.POLAR>
-0.029722

>  <SCORE.INTRA.POLAR.0>
0

>  <SCORE.INTRA.REPUL>
0

>  <SCORE.INTRA.REPUL.0>
0

>  <SCORE.INTRA.VDW>
2.17358

>  <SCORE.INTRA.VDW.0>
-3.89789

>  <SCORE.INTRA.norm>
-0.159322

>  <SCORE.RESTR>
0

>  <SCORE.RESTR.CAVITY>
0

>  <SCORE.RESTR.norm>
0

>  <SCORE.SYSTEM>
1.94498

>  <SCORE.SYSTEM.CONST>
0

>  <SCORE.SYSTEM.DIHEDRAL>
3.91781

>  <SCORE.SYSTEM.VDW>
-0.0139216

>  <SCORE.SYSTEM.norm>
0.0845644

>  <SCORE.heavy>
23

>  <SCORE.norm>
-0.719187

>  <SMILES>
CC(=O)N[C@H]1[C@@H](O[C@@H](CC(=O)[O-])C(=O)[O-])O[C@H](CO)[C@@H](O)[C@@H]1O

>  <UniqueID>
37

$$$$
54758653
  rDOCK(R)          3D
libRbt.so/2013.1/901 2013/11/27
 23 23  0  0  0  0  0  0  0  0999 V2000
   91.8156   25.0677 -106.6878 C   0  0  0  0  0  0
   91.0493   23.7860 -106.7285 C   0  0  0  0  0  0
   90.2471   23.5697 -107.6774 O   0  0  0  0  0  0
   91.2113   22.8228 -105.6776 N   0  0  0  0  0  0
   90.5208   21.5262 -105.6900 C   0  0  0  0  0  0
   90.5245   20.8608 -104.2801 C   0  0  0  0  0  0
   89.3904   21.2672 -103.5596 O   0  0  0  0  0  0
   90.5917   19.4383 -104.3249 O   0  0  0  0  0  0
   89.7726   18.9097 -105.3528 C   0  0  0  0  0  0
   89.6378   17.3969 -105.1493 C   0  0  0  0  0  0
   88.4955   17.1374 -104.3673 O   0  0  0  0  0  0
   88.0578   15.5044 -104.5849 P   0  0  0  0  0  0
   87.8636   14.8623 -103.2307 O   0  0  0  0  0  0
   86.6119   15.3988 -105.4577 O   0  5  0  0  0  0
   89.2800   14.6809 -105.4161 O   0  5  0  0  0  0
   90.3779   19.2375 -106.7485 C   0  0  0  0  0  0
   89.3457   19.3316 -107.6983 O   0  0  0  0  0  0
   91.1593   20.5716 -106.7186 C   0  0  0  0  0  0
   92.5003   20.3183 -106.3756 O   0  0  0  0  0  0
   91.8234   23.0827 -104.8714 H   0  0  0  0  0  0
   88.6017   20.9606 -104.0788 H   0  0  0  0  0  0
   88.7708   18.5310 -107.5823 H   0  0  0  0  0  0
   92.4931   19.8617 -105.4940 H   0  0  0  0  0  0
  1  2  1  0  0  0
  2  3  2  0  0  0
  2  4  1  0  0  0
  4  5  1  0  0  0
  4 20  1  0  0  0
  5  6  1  0  0  0
  6  7  1  0  0  0
  6  8  1  0  0  0
  7 21  1  0  0  0
  8  9  1  0  0  0
  9 10  1  0  0  0
  9 16  1  0  0  0
 10 11  1  0  0  0
 11 12  1  0  0  0
 12 13  2  0  0  0
 12 14  1  0  0  0
 12 15  1  0  0  0
 16 17  1  0  0  0
 16 18  1  0  0  0
 17 22  1  0  0  0
 18 19  1  0  0  0
 18  5  1  0  0  0
 19 23  1  0  0  0
M  END
>  <CHROM.0>
178.93561760,153.83228653,53.54677424

>  <CHROM.1>
-163.19566540,60.86873064,91.87291536,161.07366342,130.06551338,-48.44431710
62.76484398,89.77676946,19.25921128,-105.48790278,0.15520042,1.19361254,1.17250430

>  <Energy>
33.71299713468176

>  <Genealogy>
CC(=O)N[C@@H]1[C@@H](O)O[C@H](COP(=O)([O-])[O-])[C@@H](O)[C@@H]1O (chirality)
CC(=O)N[C@@H]1[C@@H](O)O[C@H](COP(=O)([O-])[O-])[C@@H](O)[C@@H]1O (3D coordinates assigned)
CC(=O)N[C@@H]1[C@@H](O)O[C@H](COP(=O)([O-])[O-])[C@@H](O)[C@@H]1O (nonaromatic ring conformer: 33.71299713468176 kcal/mol)

>  <Name>
54758653

>  <RI>
3.62712e+07

>  <Rbt.Current_Directory>
/home/edward/Documentos/Virtual_Screening/rDock/3

>  <Rbt.Executable>
rbdock ($Id: //depot/dev/client3/rdock/2013.1/src/exe/rbdock.cxx#4 $)

>  <Rbt.Library>
libRbt.so (2013.1, Build901 2013/11/27)

>  <Rbt.Parameter_File>
/home/edward/anaconda3/envs/MD/share/rdock-2013.1-1/data/scripts/dock.prm

>  <Rbt.Receptor>
parameters.prm

>  <SCORE>
-15.2649

>  <SCORE.INTER>
-20.6139

>  <SCORE.INTER.CONST>
1

>  <SCORE.INTER.POLAR>
-4.47601

>  <SCORE.INTER.REPUL>
0.239947

>  <SCORE.INTER.ROT>
4

>  <SCORE.INTER.VDW>
-15.9952

>  <SCORE.INTER.norm>
-1.08494

>  <SCORE.INTRA>
2.95332

>  <SCORE.INTRA.DIHEDRAL>
3.51979

>  <SCORE.INTRA.DIHEDRAL.0>
5.26654

>  <SCORE.INTRA.POLAR>
-0.0947372

>  <SCORE.INTRA.POLAR.0>
0

>  <SCORE.INTRA.REPUL>
0

>  <SCORE.INTRA.REPUL.0>
0

>  <SCORE.INTRA.VDW>
1.51554

>  <SCORE.INTRA.VDW.0>
-2.15157

>  <SCORE.INTRA.norm>
0.155438

>  <SCORE.RESTR>
0

>  <SCORE.RESTR.CAVITY>
0

>  <SCORE.RESTR.norm>
0

>  <SCORE.SYSTEM>
2.39565

>  <SCORE.SYSTEM.CONST>
0

>  <SCORE.SYSTEM.DIHEDRAL>
3.19651

>  <SCORE.SYSTEM.VDW>
0.797396

>  <SCORE.SYSTEM.norm>
0.126087

>  <SCORE.heavy>
19

>  <SCORE.norm>
-0.803418

>  <SMILES>
CC(=O)N[C@@H]1[C@@H](O)O[C@H](COP(=O)([O-])[O-])[C@@H](O)[C@@H]1O

>  <UniqueID>
41

$$$$
54758613
  rDOCK(R)          3D
libRbt.so/2013.1/901 2013/11/27
 23 23  0  0  0  0  0  0  0  0999 V2000
   89.5309   19.2428 -108.4185 H   0  0  0  0  0  0
   89.7646   19.9659 -107.7487 O   0  0  0  0  0  0
   91.0916   20.3082 -107.4899 C   0  0  0  0  0  0
   91.3801   21.2842 -106.6815 N   0  0  0  0  0  0
   90.3916   22.1036 -105.9754 C   0  0  0  0  0  0
   90.5286   21.9210 -104.4436 C   0  0  0  0  0  0
   90.2250   20.5956 -104.0955 O   0  0  0  0  0  0
   90.2613   20.5346 -103.1049 H   0  0  0  0  0  0
   89.6211   22.7689 -103.7592 O   0  0  0  0  0  0
   89.9363   24.1320 -103.9914 C   0  0  0  0  0  0
   89.0928   25.0142 -103.0602 C   0  0  0  0  0  0
   87.7230   24.8529 -103.3446 O   0  0  0  0  0  0
   86.8395   25.8568 -102.3056 S   0  0  0  0  0  0
   87.2701   27.2871 -102.4761 O   0  0  0  0  0  0
   87.0998   25.4347 -100.8876 O   0  0  0  0  0  0
   85.1935   25.7197 -102.6185 O   0  5  0  0  0  0
   89.7210   24.4899 -105.4792 C   0  0  0  0  0  0
   88.3707   24.3104 -105.8293 O   0  0  0  0  0  0
   87.8327   24.8535 -105.1960 H   0  0  0  0  0  0
   90.6170   23.5806 -106.3428 C   0  0  0  0  0  0
   90.3434   23.7730 -107.7069 O   0  0  0  0  0  0
   89.3863   23.5455 -107.8410 H   0  0  0  0  0  0
   92.1968   19.5293 -108.1269 C   0  0  0  0  0  0
  1  2  1  0  0  0
  2  3  1  0  0  0
  3  4  2  0  0  0
  3 23  1  0  0  0
  4  5  1  0  0  0
  5  6  1  0  0  0
  6  7  1  0  0  0
  6  9  1  0  0  0
  7  8  1  0  0  0
  9 10  1  0  0  0
 10 11  1  0  0  0
 10 17  1  0  0  0
 11 12  1  0  0  0
 12 13  1  0  0  0
 13 14  2  0  0  0
 13 15  2  0  0  0
 13 16  1  0  0  0
 17 18  1  0  0  0
 17 20  1  0  0  0
 18 19  1  0  0  0
 20 21  1  0  0  0
 20  5  1  0  0  0
 21 22  1  0  0  0
M  END
>  <CHROM.0>
81.46622490,155.81267369,-64.87450349

>  <CHROM.1>
176.37607522,116.74074919,-176.09430293,-62.58122993,-179.37885112,57.88656516
55.22618111,61.88704726,89.11325086,23.48872816,-104.67690706,-0.12844396
-1.03929654,2.17954943

>  <Energy>
28.678367483200336

>  <Genealogy>
CC(O)=N[C@H]1[C@H](O)O[C@H](COS(=O)(=O)[O-])[C@H](O)[C@@H]1O (tautomer)
C/C(O)=N/[C@H]1[C@H](O)O[C@H](COS(=O)(=O)[O-])[C@H](O)[C@@H]1O (cis-trans isomerization)
C/C(O)=N/[C@H]1[C@H](O)O[C@H](COS(=O)(=O)[O-])[C@H](O)[C@@H]1O (3D coordinates assigned)
C/C(O)=N/[C@H]1[C@H](O)O[C@H](COS(=O)(=O)[O-])[C@H](O)[C@@H]1O (nonaromatic ring conformer: 28.678367483200336 kcal/mol)

>  <Name>
54758613

>  <RI>
3.62712e+07

>  <Rbt.Current_Directory>
/home/edward/Documentos/Virtual_Screening/rDock/3

>  <Rbt.Executable>
rbdock ($Id: //depot/dev/client3/rdock/2013.1/src/exe/rbdock.cxx#4 $)

>  <Rbt.Library>
libRbt.so (2013.1, Build901 2013/11/27)

>  <Rbt.Parameter_File>
/home/edward/anaconda3/envs/MD/share/rdock-2013.1-1/data/scripts/dock.prm

>  <Rbt.Receptor>
parameters.prm

>  <SCORE>
-16.0414

>  <SCORE.INTER>
-14.271

>  <SCORE.INTER.CONST>
1

>  <SCORE.INTER.POLAR>
-3.84487

>  <SCORE.INTER.REPUL>
0.0220479

>  <SCORE.INTER.ROT>
4

>  <SCORE.INTER.VDW>
-10.7087

>  <SCORE.INTER.norm>
-0.751106

>  <SCORE.INTRA>
-4.97828

>  <SCORE.INTRA.DIHEDRAL>
-8.03953

>  <SCORE.INTRA.DIHEDRAL.0>
8.4487

>  <SCORE.INTRA.POLAR>
-0.659042

>  <SCORE.INTRA.POLAR.0>
0

>  <SCORE.INTRA.REPUL>
0

>  <SCORE.INTRA.REPUL.0>
0

>  <SCORE.INTRA.VDW>
1.28223

>  <SCORE.INTRA.VDW.0>
-2.0557

>  <SCORE.INTRA.norm>
-0.262015

>  <SCORE.RESTR>
0

>  <SCORE.RESTR.CAVITY>
0

>  <SCORE.RESTR.norm>
0

>  <SCORE.SYSTEM>
3.20795

>  <SCORE.SYSTEM.CONST>
0

>  <SCORE.SYSTEM.DIHEDRAL>
4.89767

>  <SCORE.SYSTEM.VDW>
0.759116

>  <SCORE.SYSTEM.norm>
0.168839

>  <SCORE.heavy>
19

>  <SCORE.norm>
-0.844282

>  <SMILES>
C/C(O)=N/[C@H]1[C@H](O)O[C@H](COS(=O)(=O)[O-])[C@H](O)[C@@H]1O

>  <UniqueID>
44

$$$$
52948856
  rDOCK(R)          3D
libRbt.so/2013.1/901 2013/11/27
 40 43  0  0  0  0  0  0  0  0999 V2000
   87.8967   20.0503  -95.7347 C   0  0  0  0  0  0
   88.5427   19.2739  -96.7201 O   0  0  0  0  0  0
   89.0964   20.1015  -97.7294 C   0  0  0  0  0  0
   89.7300   19.2514  -98.8431 C   0  0  0  0  0  0
   88.7594   18.3347  -99.3186 O   0  0  0  0  0  0
   89.3361   17.4138 -100.2290 C   0  0  0  0  0  0
   88.3395   16.4910 -100.6238 O   0  0  0  0  0  0
   88.9197   15.2618 -101.0116 C   0  0  0  0  0  0
   87.8723   14.4135 -101.7328 C   0  0  0  0  0  0
   87.1069   15.2415 -102.7336 C   0  0  0  0  0  0
   85.8386   15.7506 -102.4110 C   0  0  0  0  0  0
   85.1593   16.5716 -103.3142 C   0  0  0  0  0  0
   85.7466   16.9047 -104.5372 C   0  0  0  0  0  0
   87.0115   16.4089 -104.8630 C   0  0  0  0  0  0
   87.6911   15.5799 -103.9651 C   0  0  0  0  0  0
   89.8176   18.1458 -101.4931 C   0  0  0  0  0  0
   90.3959   17.1538 -102.4283 N   0  0  0  0  0  0
   90.5069   17.6852 -103.7923 C   0  0  0  0  0  0
   90.9264   16.5697 -104.7585 C   0  0  0  0  0  0
   91.4912   17.1300 -106.0684 C   0  0  0  0  0  0
   92.8607   17.6025 -105.8808 N   0  0  0  0  0  0
   90.8419   19.2376 -101.1092 C   0  0  0  0  0  0
   91.1115   20.0283 -102.2566 O   0  0  0  0  0  0
   89.9419   20.6656 -102.7250 C   0  0  0  0  0  0
   90.2822   21.4497 -103.9577 C   0  0  0  0  0  0
   90.4018   20.8069 -105.2002 C   0  0  0  0  0  0
   90.7468   21.5341 -106.3436 C   0  0  0  0  0  0
   90.9903   22.9121 -106.2559 C   0  0  0  0  0  0
   91.3316   23.6532 -107.3987 C   0  0  0  0  0  0
   91.5753   25.0260 -107.2982 C   0  0  0  0  0  0
   91.4794   25.6680 -106.0598 C   0  0  0  0  0  0
   91.1396   24.9415 -104.9142 C   0  0  0  0  0  0
   90.8926   23.5628 -105.0017 C   0  0  0  0  0  0
   90.5467   22.8250 -103.8600 C   0  0  0  0  0  0
   90.2557   20.1318 -100.0026 C   0  0  0  0  0  0
   91.2534   20.9978  -99.5224 O   0  0  0  0  0  0
   91.3410   16.8362 -102.1104 H   0  0  0  0  0  0
   93.4528   16.7720 -105.6489 H   0  0  0  0  0  0
   92.8833   18.2244 -105.0389 H   0  0  0  0  0  0
   90.8239   21.5934  -98.8522 H   0  0  0  0  0  0
  1  2  1  0  0  0
  2  3  1  0  0  0
  3  4  1  0  0  0
  4  5  1  0  0  0
  5  6  1  0  0  0
  6  7  1  0  0  0
  6 16  1  0  0  0
  7  8  1  0  0  0
  8  9  1  0  0  0
  9 10  1  0  0  0
 10 11  2  0  0  0
 11 12  1  0  0  0
 12 13  2  0  0  0
 13 14  1  0  0  0
 14 15  2  0  0  0
 15 10  1  0  0  0
 16 17  1  0  0  0
 16 22  1  0  0  0
 17 18  1  0  0  0
 17 37  1  0  0  0
 18 19  1  0  0  0
 19 20  1  0  0  0
 20 21  1  0  0  0
 21 38  1  0  0  0
 21 39  1  0  0  0
 22 23  1  0  0  0
 22 35  1  0  0  0
 23 24  1  0  0  0
 24 25  1  0  0  0
 25 26  2  0  0  0
 26 27  1  0  0  0
 27 28  2  0  0  0
 28 29  1  0  0  0
 29 30  2  0  0  0
 30 31  1  0  0  0
 31 32  2  0  0  0
 32 33  1  0  0  0
 33 34  2  0  0  0
 33 28  1  0  0  0
 34 25  1  0  0  0
 35 36  1  0  0  0
 35  4  1  0  0  0
 36 40  1  0  0  0
M  END
>  <CHROM.0>
-74.12772289,158.22584850,-65.98349193

>  <CHROM.1>
-176.77538790,54.18419868,-153.80715437,-166.83845900,45.16098890,-99.22843748
162.87240800,-172.26115200,-161.48007202,77.23080097,64.90088872,61.02568392
-178.32011177,79.67277291,-62.97958410,89.62939999,19.23958650,-102.64781063
-2.74148429,-1.16891138,-1.87410814

>  <Energy>
74.59169927397244

>  <Genealogy>
COC[C@H]1O[C@@H](OCCc2ccccc2)[C@H](NCCCN)[C@@H](OCc2ccc3ccccc3c2)[C@@H]1O (chirality)
COC[C@H]1O[C@@H](OCCc2ccccc2)[C@H](NCCCN)[C@@H](OCc2ccc3ccccc3c2)[C@@H]1O (3D coordinates assigned)
COC[C@H]1O[C@@H](OCCc2ccccc2)[C@H](NCCCN)[C@@H](OCc2ccc3ccccc3c2)[C@@H]1O (nonaromatic ring conformer: 74.59169927397244 kcal/mol)

>  <Name>
52948856

>  <RI>
3.62712e+07

>  <Rbt.Current_Directory>
/home/edward/Documentos/Virtual_Screening/rDock/3

>  <Rbt.Executable>
rbdock ($Id: //depot/dev/client3/rdock/2013.1/src/exe/rbdock.cxx#4 $)

>  <Rbt.Library>
libRbt.so (2013.1, Build901 2013/11/27)

>  <Rbt.Parameter_File>
/home/edward/anaconda3/envs/MD/share/rdock-2013.1-1/data/scripts/dock.prm

>  <Rbt.Receptor>
parameters.prm

>  <SCORE>
-15.6566

>  <SCORE.INTER>
-16.9611

>  <SCORE.INTER.CONST>
1

>  <SCORE.INTER.POLAR>
-2.94927

>  <SCORE.INTER.REPUL>
0

>  <SCORE.INTER.ROT>
14

>  <SCORE.INTER.VDW>
-26.3335

>  <SCORE.INTER.norm>
-0.471141

>  <SCORE.INTRA>
-2.07532

>  <SCORE.INTRA.DIHEDRAL>
-15.912

>  <SCORE.INTRA.DIHEDRAL.0>
25.034

>  <SCORE.INTRA.POLAR>
0

>  <SCORE.INTRA.POLAR.0>
0

>  <SCORE.INTRA.REPUL>
0

>  <SCORE.INTRA.REPUL.0>
0

>  <SCORE.INTRA.VDW>
5.88066

>  <SCORE.INTRA.VDW.0>
-5.94428

>  <SCORE.INTRA.norm>
-0.0576478

>  <SCORE.RESTR>
0

>  <SCORE.RESTR.CAVITY>
0

>  <SCORE.RESTR.norm>
0

>  <SCORE.SYSTEM>
3.37982

>  <SCORE.SYSTEM.CONST>
0

>  <SCORE.SYSTEM.DIHEDRAL>
3.35411

>  <SCORE.SYSTEM.VDW>
1.70276

>  <SCORE.SYSTEM.norm>
0.0938839

>  <SCORE.heavy>
36

>  <SCORE.norm>
-0.434905

>  <SMILES>
COC[C@H]1O[C@@H](OCCc2ccccc2)[C@H](NCCCN)[C@@H](OCc2ccc3ccccc3c2)[C@@H]1O

>  <UniqueID>
46

$$$$
52944904
  rDOCK(R)          3D
libRbt.so/2013.1/901 2013/11/27
 41 44  0  0  0  0  0  0  0  0999 V2000
   85.8839   20.2340  -99.5402 C   0  0  0  0  0  0
   86.4338   19.3418 -100.4828 O   0  0  0  0  0  0
   85.7105   19.3909 -101.7023 C   0  0  0  0  0  0
   86.2542   18.3522 -102.6973 C   0  0  0  0  0  0
   87.6105   18.6572 -102.9675 O   0  0  0  0  0  0
   88.1155   17.8391 -104.0072 C   0  0  0  0  0  0
   89.4433   18.2524 -104.2789 O   0  0  0  0  0  0
   89.4749   19.5889 -104.7313 C   0  0  0  0  0  0
   90.8915   19.9197 -105.1936 C   0  0  0  0  0  0
   91.3149   19.0100 -106.3157 C   0  0  0  0  0  0
   90.8925   19.2603 -107.6323 C   0  0  0  0  0  0
   91.2665   18.3975 -108.6681 C   0  0  0  0  0  0
   92.0551   17.2761 -108.3952 C   0  0  0  0  0  0
   92.4666   17.0123 -107.0856 C   0  0  0  0  0  0
   92.0952   17.8730 -106.0470 C   0  0  0  0  0  0
   88.1480   16.3565 -103.5529 C   0  0  0  0  0  0
   88.7133   15.4807 -104.6187 N   0  3  0  0  0  0
   90.1742   15.3015 -104.4995 C   0  0  0  0  0  0
   90.7618   14.5594 -105.7152 C   0  0  0  0  0  0
   92.1650   14.2127 -105.4872 N   0  3  0  0  0  0
   86.7190   15.9086 -103.1546 C   0  0  0  0  0  0
   86.7942   14.6312 -102.5330 O   0  0  0  0  0  0
   85.5271   14.0080 -102.4198 C   0  0  0  0  0  0
   85.6318   12.7304 -101.6333 C   0  0  0  0  0  0
   86.2724   12.7110 -100.3844 C   0  0  0  0  0  0
   86.3833   11.5182  -99.6649 C   0  0  0  0  0  0
   85.8581   10.3266 -100.1865 C   0  0  0  0  0  0
   85.9597    9.1228  -99.4710 C   0  0  0  0  0  0
   85.4343    7.9426 -100.0054 C   0  0  0  0  0  0
   84.8059    7.9541 -101.2526 C   0  0  0  0  0  0
   84.6968    9.1462 -101.9743 C   0  0  0  0  0  0
   85.2185   10.3382 -101.4493 C   0  0  0  0  0  0
   85.1116   11.5402 -102.1643 C   0  0  0  0  0  0
   86.1243   16.9113 -102.1482 C   0  0  0  0  0  0
   84.7702   16.6022 -101.9344 O   0  0  0  0  0  0
   88.2664   14.5359 -104.6200 H   0  0  0  0  0  0
   88.5105   15.8837 -105.5640 H   0  0  0  0  0  0
   92.2261   13.5656 -104.6681 H   0  0  0  0  0  0
   92.5582   13.7331 -106.3305 H   0  0  0  0  0  0
   92.7181   15.0761 -105.2773 H   0  0  0  0  0  0
   84.3053   16.6919 -102.8071 H   0  0  0  0  0  0
  1  2  1  0  0  0
  2  3  1  0  0  0
  3  4  1  0  0  0
  4  5  1  0  0  0
  5  6  1  0  0  0
  6  7  1  0  0  0
  6 16  1  0  0  0
  7  8  1  0  0  0
  8  9  1  0  0  0
  9 10  1  0  0  0
 10 11  2  0  0  0
 11 12  1  0  0  0
 12 13  2  0  0  0
 13 14  1  0  0  0
 14 15  2  0  0  0
 15 10  1  0  0  0
 16 17  1  0  0  0
 16 21  1  0  0  0
 17 18  1  0  0  0
 17 36  1  0  0  0
 17 37  1  0  0  0
 18 19  1  0  0  0
 19 20  1  0  0  0
 20 38  1  0  0  0
 20 39  1  0  0  0
 20 40  1  0  0  0
 21 22  1  0  0  0
 21 34  1  0  0  0
 22 23  1  0  0  0
 23 24  1  0  0  0
 24 25  2  0  0  0
 25 26  1  0  0  0
 26 27  2  0  0  0
 27 28  1  0  0  0
 28 29  2  0  0  0
 29 30  1  0  0  0
 30 31  2  0  0  0
 31 32  1  0  0  0
 32 33  2  0  0  0
 32 27  1  0  0  0
 33 24  1  0  0  0
 34 35  1  0  0  0
 34  4  1  0  0  0
 35 41  1  0  0  0
M  END
>  <CHROM.0>
-175.42174222,153.79100438,-59.39786056

>  <CHROM.1>
-176.31702042,-61.13991942,-62.24672891,-172.13824614,60.01396402,80.22966164
91.35858322,-172.06538292,-171.36543727,62.08802521,-166.14625368,-174.14250353
50.63773127,59.35104690,87.88041861,15.48260281,-103.26092623,0.82967942
0.77390873,-0.00465030

>  <Energy>
84.5942877099844

>  <Genealogy>
COC[C@H]1OC(OCCc2ccccc2)[C@H]([NH2+]CC[NH3+])C(OCc2ccc3ccccc3c2)[C@@H]1O (protonated)
COC[C@H]1O[C@@H](OCCc2ccccc2)[C@H]([NH2+]CC[NH3+])[C@@H](OCc2ccc3ccccc3c2)[C@@H]1O (chirality)
COC[C@H]1O[C@@H](OCCc2ccccc2)[C@H]([NH2+]CC[NH3+])[C@@H](OCc2ccc3ccccc3c2)[C@@H]1O (3D coordinates assigned)
COC[C@H]1O[C@@H](OCCc2ccccc2)[C@H]([NH2+]CC[NH3+])[C@@H](OCc2ccc3ccccc3c2)[C@@H]1O (nonaromatic ring conformer: 84.5942877099844 kcal/mol)

>  <Name>
52944904

>  <RI>
3.62712e+07

>  <Rbt.Current_Directory>
/home/edward/Documentos/Virtual_Screening/rDock/3

>  <Rbt.Executable>
rbdock ($Id: //depot/dev/client3/rdock/2013.1/src/exe/rbdock.cxx#4 $)

>  <Rbt.Library>
libRbt.so (2013.1, Build901 2013/11/27)

>  <Rbt.Parameter_File>
/home/edward/anaconda3/envs/MD/share/rdock-2013.1-1/data/scripts/dock.prm

>  <Rbt.Receptor>
parameters.prm

>  <SCORE>
-26.3238

>  <SCORE.INTER>
-17.0041

>  <SCORE.INTER.CONST>
1

>  <SCORE.INTER.POLAR>
-3.04135

>  <SCORE.INTER.REPUL>
0

>  <SCORE.INTER.ROT>
12

>  <SCORE.INTER.VDW>
-24.0635

>  <SCORE.INTER.norm>
-0.485832

>  <SCORE.INTRA>
-11.6643

>  <SCORE.INTRA.DIHEDRAL>
-27.876

>  <SCORE.INTRA.DIHEDRAL.0>
33.2339

>  <SCORE.INTRA.POLAR>
0

>  <SCORE.INTRA.POLAR.0>
0

>  <SCORE.INTRA.REPUL>
0

>  <SCORE.INTRA.REPUL.0>
0

>  <SCORE.INTRA.VDW>
2.27371

>  <SCORE.INTRA.VDW.0>
-4.61458

>  <SCORE.INTRA.norm>
-0.333266

>  <SCORE.RESTR>
0.464978

>  <SCORE.RESTR.CAVITY>
0.464978

>  <SCORE.RESTR.norm>
0.0132851

>  <SCORE.SYSTEM>
1.87966

>  <SCORE.SYSTEM.CONST>
0

>  <SCORE.SYSTEM.DIHEDRAL>
3.47884

>  <SCORE.SYSTEM.VDW>
0.140244

>  <SCORE.SYSTEM.norm>
0.0537047

>  <SCORE.heavy>
35

>  <SCORE.norm>
-0.752108

>  <SMILES>
COC[C@H]1O[C@@H](OCCc2ccccc2)[C@H]([NH2+]CC[NH3+])[C@@H](OCc2ccc3ccccc3c2)[C@@H]1O

>  <UniqueID>
51

$$$$
52944903
  rDOCK(R)          3D
libRbt.so/2013.1/901 2013/11/27
 38 41  0  0  0  0  0  0  0  0999 V2000
   87.0978   21.2074  -98.1600 C   0  0  0  0  0  0
   87.0888   20.4151  -99.3281 O   0  0  0  0  0  0
   86.0124   20.7875 -100.1703 C   0  0  0  0  0  0
   85.9587   19.8977 -101.4249 C   0  0  0  0  0  0
   87.2202   19.9692 -102.0584 O   0  0  0  0  0  0
   87.1849   19.3353 -103.3252 C   0  0  0  0  0  0
   88.4300   19.5645 -103.9675 O   0  0  0  0  0  0
   88.5666   20.9191 -104.3662 C   0  0  0  0  0  0
   88.6697   21.8485 -103.1805 C   0  0  0  0  0  0
   89.7832   21.7803 -102.3300 C   0  0  0  0  0  0
   89.8300   22.5458 -101.1617 C   0  0  0  0  0  0
   88.7557   23.3807 -100.8222 C   0  0  0  0  0  0
   88.7770   24.1290  -99.6348 C   0  0  0  0  0  0
   87.6910   24.9428  -99.2991 C   0  0  0  0  0  0
   86.5811   25.0195 -100.1449 C   0  0  0  0  0  0
   86.5487   24.2824 -101.3314 C   0  0  0  0  0  0
   87.6304   23.4581 -101.6781 C   0  0  0  0  0  0
   87.5980   22.6948 -102.8533 C   0  0  0  0  0  0
   86.9876   17.8123 -103.1352 C   0  0  0  0  0  0
   86.9109   17.1142 -104.4394 N   0  0  0  0  0  0
   87.7118   15.8816 -104.4472 C   0  0  0  0  0  0
   89.1912   16.1877 -104.1668 C   0  0  0  0  0  0
   89.7370   17.1910 -105.0806 N   0  0  0  0  0  0
   85.6790   17.5633 -102.3494 C   0  0  0  0  0  0
   85.6039   16.1944 -101.9752 O   0  0  0  0  0  0
   84.2748   15.7949 -101.6945 C   0  0  0  0  0  0
   84.2657   14.4837 -100.9554 C   0  0  0  0  0  0
   83.4598   13.4207 -101.3954 C   0  0  0  0  0  0
   83.4259   12.2205 -100.6788 C   0  0  0  0  0  0
   84.1905   12.0754  -99.5179 C   0  0  0  0  0  0
   84.9910   13.1310  -99.0716 C   0  0  0  0  0  0
   85.0263   14.3328  -99.7848 C   0  0  0  0  0  0
   85.6432   18.4267 -101.0720 C   0  0  0  0  0  0
   84.3709   18.3438 -100.4821 O   0  0  0  0  0  0
   87.2706   17.7273 -105.2074 H   0  0  0  0  0  0
   89.3335   18.1271 -104.8407 H   0  0  0  0  0  0
   89.4528   16.9563 -106.0593 H   0  0  0  0  0  0
   83.7181   18.6699 -101.1560 H   0  0  0  0  0  0
  1  2  1  0  0  0
  2  3  1  0  0  0
  3  4  1  0  0  0
  4  5  1  0  0  0
  5  6  1  0  0  0
  6  7  1  0  0  0
  6 19  1  0  0  0
  7  8  1  0  0  0
  8  9  1  0  0  0
  9 10  2  0  0  0
 10 11  1  0  0  0
 11 12  2  0  0  0
 12 13  1  0  0  0
 13 14  2  0  0  0
 14 15  1  0  0  0
 15 16  2  0  0  0
 16 17  1  0  0  0
 17 18  2  0  0  0
 17 12  1  0  0  0
 18  9  1  0  0  0
 19 20  1  0  0  0
 19 24  1  0  0  0
 20 21  1  0  0  0
 20 35  1  0  0  0
 21 22  1  0  0  0
 22 23  1  0  0  0
 23 36  1  0  0  0
 23 37  1  0  0  0
 24 25  1  0  0  0
 24 33  1  0  0  0
 25 26  1  0  0  0
 26 27  1  0  0  0
 27 28  2  0  0  0
 28 29  1  0  0  0
 29 30  2  0  0  0
 30 31  1  0  0  0
 31 32  2  0  0  0
 32 27  1  0  0  0
 33 34  1  0  0  0
 33  4  1  0  0  0
 34 38  1  0  0  0
M  END
>  <CHROM.0>
176.28366512,151.09709809,-167.88708018

>  <CHROM.1>
-177.92744899,-55.14412563,-70.73845004,67.33513136,65.95627708,135.81595854
-59.75269013,-54.23003945,71.60281240,-158.88624543,-164.67616037,-129.43542760
61.38891290,86.79574465,18.97126422,-101.66527635,0.99065570,0.91560611,0.48649102

>  <Energy>
77.29569135841591

>  <Genealogy>
COC[C@H]1O[C@@H](OCc2ccc3ccccc3c2)[C@H](NCCN)[C@@H](OCc2ccccc2)[C@@H]1O (chirality)
COC[C@H]1O[C@@H](OCc2ccc3ccccc3c2)[C@H](NCCN)[C@@H](OCc2ccccc2)[C@@H]1O (3D coordinates assigned)
COC[C@H]1O[C@@H](OCc2ccc3ccccc3c2)[C@H](NCCN)[C@@H](OCc2ccccc2)[C@@H]1O (nonaromatic ring conformer: 77.29569135841591 kcal/mol)

>  <Name>
52944903

>  <RI>
3.62712e+07

>  <Rbt.Current_Directory>
/home/edward/Documentos/Virtual_Screening/rDock/3

>  <Rbt.Executable>
rbdock ($Id: //depot/dev/client3/rdock/2013.1/src/exe/rbdock.cxx#4 $)

>  <Rbt.Library>
libRbt.so (2013.1, Build901 2013/11/27)

>  <Rbt.Parameter_File>
/home/edward/anaconda3/envs/MD/share/rdock-2013.1-1/data/scripts/dock.prm

>  <Rbt.Receptor>
parameters.prm

>  <SCORE>
-15.981

>  <SCORE.INTER>
-10.228

>  <SCORE.INTER.CONST>
1

>  <SCORE.INTER.POLAR>
-2.32027

>  <SCORE.INTER.REPUL>
0

>  <SCORE.INTER.ROT>
12

>  <SCORE.INTER.VDW>
-19.7391

>  <SCORE.INTER.norm>
-0.300825

>  <SCORE.INTRA>
-9.45059

>  <SCORE.INTRA.DIHEDRAL>
-17.1253

>  <SCORE.INTRA.DIHEDRAL.0>
25.0439

>  <SCORE.INTRA.POLAR>
-1

>  <SCORE.INTRA.POLAR.0>
0

>  <SCORE.INTRA.REPUL>
0

>  <SCORE.INTRA.REPUL.0>
0

>  <SCORE.INTRA.VDW>
2.51206

>  <SCORE.INTRA.VDW.0>
-6.2794

>  <SCORE.INTRA.norm>
-0.277959

>  <SCORE.RESTR>
0

>  <SCORE.RESTR.CAVITY>
0

>  <SCORE.RESTR.norm>
0

>  <SCORE.SYSTEM>
3.6976

>  <SCORE.SYSTEM.CONST>
0

>  <SCORE.SYSTEM.DIHEDRAL>
4.59542

>  <SCORE.SYSTEM.VDW>
1.39989

>  <SCORE.SYSTEM.norm>
0.108753

>  <SCORE.heavy>
34

>  <SCORE.norm>
-0.47003

>  <SMILES>
COC[C@H]1O[C@@H](OCc2ccc3ccccc3c2)[C@H](NCCN)[C@@H](OCc2ccccc2)[C@@H]1O

>  <UniqueID>
53

$$$$
51351654
  rDOCK(R)          3D
libRbt.so/2013.1/901 2013/11/27
 21 21  0  0  0  0  0  0  0  0999 V2000
   84.0067   12.9279 -101.5851 O   0  0  0  0  0  0
   84.2194   14.0415 -102.5720 S   0  0  0  0  0  0
   83.3166   13.8315 -103.7541 O   0  0  0  0  0  0
   83.8391   15.5077 -101.8451 O   0  5  0  0  0  0
   85.8738   14.0381 -103.1110 N   0  0  0  0  0  0
   86.6121   15.1981 -102.5676 C   0  0  0  0  0  0
   88.1313   14.9144 -102.4722 C   0  0  0  0  0  0
   88.3660   13.8118 -101.6355 O   0  0  0  0  0  0
   88.6707   14.6286 -103.7510 O   0  0  0  0  0  0
   88.5895   15.7400 -104.6357 C   0  0  0  0  0  0
   89.6079   16.8463 -104.2791 C   0  0  0  0  0  0
   89.4262   17.9666 -105.1048 O   0  0  0  0  0  0
   87.1318   16.2503 -104.8226 C   0  0  0  0  0  0
   86.4158   15.3380 -105.6177 O   0  0  0  0  0  0
   86.3945   16.4236 -103.4799 C   0  0  0  0  0  0
   86.8411   17.5930 -102.8417 O   0  0  0  0  0  0
   86.2836   13.1385 -102.7712 H   0  0  0  0  0  0
   89.3490   13.6713 -101.6092 H   0  0  0  0  0  0
   89.4637   17.6452 -106.0431 H   0  0  0  0  0  0
   86.4704   14.4545 -105.1677 H   0  0  0  0  0  0
   86.6284   18.3514 -103.4466 H   0  0  0  0  0  0
  1  2  2  0  0  0
  2  3  2  0  0  0
  2  4  1  0  0  0
  2  5  1  0  0  0
  5  6  1  0  0  0
  5 17  1  0  0  0
  6  7  1  0  0  0
  7  8  1  0  0  0
  7  9  1  0  0  0
  8 18  1  0  0  0
  9 10  1  0  0  0
 10 11  1  0  0  0
 10 13  1  0  0  0
 11 12  1  0  0  0
 12 19  1  0  0  0
 13 14  1  0  0  0
 13 15  1  0  0  0
 14 20  1  0  0  0
 15 16  1  0  0  0
 15  6  1  0  0  0
 16 21  1  0  0  0
M  END
>  <CHROM.0>
179.16345915,153.69872817,-65.95884088

>  <CHROM.1>
-109.25179503,154.30167645,179.90578252,-175.32393774,-53.90610844,56.69688197
-176.67705455,86.52447244,15.21518878,-103.32056081,-2.52984268,-0.06491400
-0.71137026

>  <Energy>
30.90853081946046

>  <Genealogy>
O=S(=O)([O-])N[C@H]1[C@@H](O)O[C@H](CO)[C@@H](O)[C@@H]1O (chirality)
O=S(=O)([O-])N[C@H]1[C@@H](O)O[C@H](CO)[C@@H](O)[C@@H]1O (3D coordinates assigned)
O=S(=O)([O-])N[C@H]1[C@@H](O)O[C@H](CO)[C@@H](O)[C@@H]1O (nonaromatic ring conformer: 30.90853081946046 kcal/mol)

>  <Name>
51351654

>  <RI>
3.62712e+07

>  <Rbt.Current_Directory>
/home/edward/Documentos/Virtual_Screening/rDock/3

>  <Rbt.Executable>
rbdock ($Id: //depot/dev/client3/rdock/2013.1/src/exe/rbdock.cxx#4 $)

>  <Rbt.Library>
libRbt.so (2013.1, Build901 2013/11/27)

>  <Rbt.Parameter_File>
/home/edward/anaconda3/envs/MD/share/rdock-2013.1-1/data/scripts/dock.prm

>  <Rbt.Receptor>
parameters.prm

>  <SCORE>
-18.5178

>  <SCORE.INTER>
-15.2726

>  <SCORE.INTER.CONST>
1

>  <SCORE.INTER.POLAR>
-3.02027

>  <SCORE.INTER.REPUL>
0.00496125

>  <SCORE.INTER.ROT>
3

>  <SCORE.INTER.VDW>
-13.4285

>  <SCORE.INTER.norm>
-0.954539

>  <SCORE.INTRA>
-4.97985

>  <SCORE.INTRA.DIHEDRAL>
-6.55693

>  <SCORE.INTRA.DIHEDRAL.0>
10.2407

>  <SCORE.INTRA.POLAR>
-0.514311

>  <SCORE.INTRA.POLAR.0>
-0.0040101

>  <SCORE.INTRA.REPUL>
-0.0976929

>  <SCORE.INTRA.REPUL.0>
0.0976929

>  <SCORE.INTRA.VDW>
0.535734

>  <SCORE.INTRA.VDW.0>
-2.13364

>  <SCORE.INTRA.norm>
-0.311241

>  <SCORE.RESTR>
0

>  <SCORE.RESTR.CAVITY>
0

>  <SCORE.RESTR.norm>
0

>  <SCORE.SYSTEM>
1.73469

>  <SCORE.SYSTEM.CONST>
0

>  <SCORE.SYSTEM.DIHEDRAL>
3.22499

>  <SCORE.SYSTEM.VDW>
0.122194

>  <SCORE.SYSTEM.norm>
0.108418

>  <SCORE.heavy>
16

>  <SCORE.norm>
-1.15736

>  <SMILES>
O=S(=O)([O-])N[C@H]1[C@@H](O)O[C@H](CO)[C@@H](O)[C@@H]1O

>  <UniqueID>
56

$$$$
49859685
  rDOCK(R)          3D
libRbt.so/2013.1/901 2013/11/27
 23 23  0  0  0  0  0  0  0  0999 V2000
   88.4022   14.2057  -98.1560 C   0  0  0  0  0  0
   87.3915   14.9854  -98.9318 C   0  0  0  0  0  0
   86.6485   15.8102  -98.3339 O   0  0  0  0  0  0
   87.2959   14.8169 -100.3529 N   0  0  0  0  0  0
   86.3074   15.5392 -101.1657 C   0  0  0  0  0  0
   86.5329   15.2713 -102.6721 C   0  0  0  0  0  0
   87.8714   15.5998 -103.0001 O   0  0  0  0  0  0
   88.0857   15.6487 -104.6954 P   0  0  0  0  0  0
   88.6991   16.9667 -105.1117 O   0  0  0  0  0  0
   89.1168   14.3903 -105.1551 O   0  5  0  0  0  0
   86.5945   15.4497 -105.4696 O   0  5  0  0  0  0
   86.3458   13.8955 -102.9676 O   0  0  0  0  0  0
   85.0188   13.4495 -102.7146 C   0  0  0  0  0  0
   84.0221   13.9666 -103.7764 C   0  0  0  0  0  0
   84.4188   13.5504 -105.0545 O   0  0  0  0  0  0
   84.5956   13.6864 -101.2373 C   0  0  0  0  0  0
   83.2413   13.3730 -101.0351 O   0  0  0  0  0  0
   84.8803   15.1259 -100.7679 C   0  0  0  0  0  0
   83.9601   16.0313 -101.3242 O   0  0  0  0  0  0
   87.9733   14.1694 -100.8170 H   0  0  0  0  0  0
   85.3410   13.8940 -105.1836 H   0  0  0  0  0  0
   83.0513   13.5302 -100.0732 H   0  0  0  0  0  0
   84.1677   16.9267 -100.9491 H   0  0  0  0  0  0
  1  2  1  0  0  0
  2  3  2  0  0  0
  2  4  1  0  0  0
  4  5  1  0  0  0
  4 20  1  0  0  0
  5  6  1  0  0  0
  6  7  1  0  0  0
  6 12  1  0  0  0
  7  8  1  0  0  0
  8  9  2  0  0  0
  8 10  1  0  0  0
  8 11  1  0  0  0
 12 13  1  0  0  0
 13 14  1  0  0  0
 13 16  1  0  0  0
 14 15  1  0  0  0
 15 21  1  0  0  0
 16 17  1  0  0  0
 16 18  1  0  0  0
 17 22  1  0  0  0
 18 19  1  0  0  0
 18  5  1  0  0  0
 19 23  1  0  0  0
M  END
>  <CHROM.0>
-179.25386438,153.76468770,53.19803588

>  <CHROM.1>
174.16200823,-167.74308083,126.83995032,57.92714631,-57.06357468,178.87263221
-61.04924861,86.38769434,14.88434987,-102.40828746,-1.88354111,-0.33975548
-1.57359359

>  <Energy>
33.819782301335124

>  <Genealogy>
CC(=O)N[C@H]1[C@@H](OP(=O)([O-])[O-])O[C@H](CO)[C@H](O)[C@@H]1O (3D coordinates assigned)
CC(=O)N[C@H]1[C@@H](OP(=O)([O-])[O-])O[C@H](CO)[C@H](O)[C@@H]1O (nonaromatic ring conformer: 33.819782301335124 kcal/mol)

>  <Name>
49859685

>  <RI>
3.62712e+07

>  <Rbt.Current_Directory>
/home/edward/Documentos/Virtual_Screening/rDock/3

>  <Rbt.Executable>
rbdock ($Id: //depot/dev/client3/rdock/2013.1/src/exe/rbdock.cxx#4 $)

>  <Rbt.Library>
libRbt.so (2013.1, Build901 2013/11/27)

>  <Rbt.Parameter_File>
/home/edward/anaconda3/envs/MD/share/rdock-2013.1-1/data/scripts/dock.prm

>  <Rbt.Receptor>
parameters.prm

>  <SCORE>
-18.9103

>  <SCORE.INTER>
-13.8498

>  <SCORE.INTER.CONST>
1

>  <SCORE.INTER.POLAR>
-3.44286

>  <SCORE.INTER.REPUL>
0

>  <SCORE.INTER.ROT>
4

>  <SCORE.INTER.VDW>
-11.5441

>  <SCORE.INTER.norm>
-0.728939

>  <SCORE.INTRA>
-7.45308

>  <SCORE.INTRA.DIHEDRAL>
-6.87775

>  <SCORE.INTRA.DIHEDRAL.0>
11.5405

>  <SCORE.INTRA.POLAR>
-1.32768

>  <SCORE.INTRA.POLAR.0>
0

>  <SCORE.INTRA.REPUL>
0

>  <SCORE.INTRA.REPUL.0>
0

>  <SCORE.INTRA.VDW>
0.499908

>  <SCORE.INTRA.VDW.0>
-2.95611

>  <SCORE.INTRA.norm>
-0.392267

>  <SCORE.RESTR>
0

>  <SCORE.RESTR.CAVITY>
0

>  <SCORE.RESTR.norm>
0

>  <SCORE.SYSTEM>
2.39266

>  <SCORE.SYSTEM.CONST>
0

>  <SCORE.SYSTEM.DIHEDRAL>
3.2025

>  <SCORE.SYSTEM.VDW>
0.791404

>  <SCORE.SYSTEM.norm>
0.125929

>  <SCORE.heavy>
19

>  <SCORE.norm>
-0.995277

>  <SMILES>
CC(=O)N[C@H]1[C@@H](OP(=O)([O-])[O-])O[C@H](CO)[C@H](O)[C@@H]1O

>  <UniqueID>
59

$$$$
49802606
  rDOCK(R)          3D
libRbt.so/2013.1/901 2013/11/27
 23 23  0  0  0  0  0  0  0  0999 V2000
   90.7893   23.5897 -104.5924 H   0  0  0  0  0  0
   89.8041   23.7344 -104.4162 O   0  0  0  0  0  0
   88.8665   22.6977 -104.3696 C   0  0  0  0  0  0
   89.2121   21.4448 -104.4613 N   0  0  0  0  0  0
   90.5705   20.9268 -104.6511 C   0  0  0  0  0  0
   90.7856   19.7155 -103.7311 C   0  0  0  0  0  0
   90.6028   20.1218 -102.4015 O   0  0  0  0  0  0
   90.8090   19.3329 -101.8350 H   0  0  0  0  0  0
   89.8608   18.6816 -104.0247 O   0  0  0  0  0  0
   90.0159   18.1578 -105.3374 C   0  0  0  0  0  0
   91.1702   17.1329 -105.4356 C   0  0  0  0  0  0
   92.3978   17.6785 -105.0459 O   0  0  0  0  0  0
   92.3989   17.6770 -104.0534 H   0  0  0  0  0  0
   89.9617   19.2459 -106.4482 C   0  0  0  0  0  0
   90.3538   18.7038 -107.6840 O   0  0  0  0  0  0
   89.6555   18.0480 -107.9455 H   0  0  0  0  0  0
   90.7904   20.5049 -106.1171 C   0  0  0  0  0  0
   92.1542   20.2737 -106.3595 O   0  0  0  0  0  0
   92.4512   19.5882 -105.7053 H   0  0  0  0  0  0
   87.4206   23.0349 -104.1910 C   0  0  0  0  0  0
   87.3061   24.2293 -103.5044 F   0  0  0  0  0  0
   86.8012   23.1599 -105.4215 F   0  0  0  0  0  0
   86.7940   22.0333 -103.4721 F   0  0  0  0  0  0
  1  2  1  0  0  0
  2  3  1  0  0  0
  3  4  2  0  0  0
  3 20  1  0  0  0
  4  5  1  0  0  0
  5  6  1  0  0  0
  6  7  1  0  0  0
  6  9  1  0  0  0
  7  8  1  0  0  0
  9 10  1  0  0  0
 10 11  1  0  0  0
 10 14  1  0  0  0
 11 12  1  0  0  0
 12 13  1  0  0  0
 14 15  1  0  0  0
 14 17  1  0  0  0
 15 16  1  0  0  0
 17 18  1  0  0  0
 17  5  1  0  0  0
 18 19  1  0  0  0
 20 21  1  0  0  0
 20 22  1  0  0  0
 20 23  1  0  0  0
M  END
>  <CHROM.0>
178.19265466,153.59173708,-72.25868112

>  <CHROM.1>
4.79595898,-27.59681878,137.17489518,-176.25616285,-58.16372543,79.14079388
67.00934978,56.43352655,89.65300334,20.70620426,-104.80596738,2.85325563
-0.91945805,1.50602518

>  <Energy>
33.87946587463664

>  <Genealogy>
OC[C@H]1OC(O)[C@H](N=C(O)C(F)(F)F)[C@@H](O)[C@H]1O (tautomer)
OC[C@H]1O[C@H](O)[C@H](N=C(O)C(F)(F)F)[C@@H](O)[C@H]1O (chirality)
OC[C@H]1O[C@H](O)[C@H](/N=C(/O)C(F)(F)F)[C@@H](O)[C@H]1O (cis-trans isomerization)
OC[C@H]1O[C@H](O)[C@H](/N=C(/O)C(F)(F)F)[C@@H](O)[C@H]1O (3D coordinates assigned)
OC[C@H]1O[C@H](O)[C@H](/N=C(/O)C(F)(F)F)[C@@H](O)[C@H]1O (nonaromatic ring conformer: 33.87946587463664 kcal/mol)

>  <Name>
49802606

>  <RI>
3.62712e+07

>  <Rbt.Current_Directory>
/home/edward/Documentos/Virtual_Screening/rDock/3

>  <Rbt.Executable>
rbdock ($Id: //depot/dev/client3/rdock/2013.1/src/exe/rbdock.cxx#4 $)

>  <Rbt.Library>
libRbt.so (2013.1, Build901 2013/11/27)

>  <Rbt.Parameter_File>
/home/edward/anaconda3/envs/MD/share/rdock-2013.1-1/data/scripts/dock.prm

>  <Rbt.Receptor>
parameters.prm

>  <SCORE>
-19.7184

>  <SCORE.INTER>
-14.1946

>  <SCORE.INTER.CONST>
1

>  <SCORE.INTER.POLAR>
-3.24868

>  <SCORE.INTER.REPUL>
0

>  <SCORE.INTER.ROT>
3

>  <SCORE.INTER.VDW>
-11.5491

>  <SCORE.INTER.norm>
-0.788589

>  <SCORE.INTRA>
-7.31607

>  <SCORE.INTRA.DIHEDRAL>
-2.99905

>  <SCORE.INTRA.DIHEDRAL.0>
6.91047

>  <SCORE.INTRA.POLAR>
-0.984772

>  <SCORE.INTRA.POLAR.0>
0

>  <SCORE.INTRA.REPUL>
-0.54645

>  <SCORE.INTRA.REPUL.0>
0.54645

>  <SCORE.INTRA.VDW>
0.263932

>  <SCORE.INTRA.VDW.0>
-2.41077

>  <SCORE.INTRA.norm>
-0.406448

>  <SCORE.RESTR>
0

>  <SCORE.RESTR.CAVITY>
0

>  <SCORE.RESTR.norm>
0

>  <SCORE.SYSTEM>
1.79229

>  <SCORE.SYSTEM.CONST>
0

>  <SCORE.SYSTEM.DIHEDRAL>
3.25636

>  <SCORE.SYSTEM.VDW>
0.164108

>  <SCORE.SYSTEM.norm>
0.0995717

>  <SCORE.heavy>
18

>  <SCORE.norm>
-1.09547

>  <SMILES>
OC[C@H]1O[C@H](O)[C@H](/N=C(/O)C(F)(F)F)[C@@H](O)[C@H]1O

>  <UniqueID>
63

$$$$
46174147
  rDOCK(R)          3D
libRbt.so/2013.1/901 2013/11/27
 24 24  0  0  0  0  0  0  0  0999 V2000
   89.6992   12.5161  -99.2707 H   0  0  0  0  0  0
   89.6854   12.7736 -100.2825 N   0  0  0  0  0  0
   88.8661   13.6680 -100.7335 C   0  0  0  0  0  0
   87.9964   14.3041  -99.8544 O   0  0  0  0  0  0
   87.4011   15.0583 -100.1745 H   0  0  0  0  0  0
   88.8460   14.0239 -102.0912 O   0  0  0  0  0  0
   87.8812   14.8662 -102.7349 C   0  0  0  0  0  0
   87.6856   16.0619 -101.9961 O   0  0  0  0  0  0
   86.6323   16.8617 -102.5226 C   0  0  0  0  0  0
   85.2323   16.2819 -102.2229 C   0  0  0  0  0  0
   85.1299   14.9720 -102.7126 O   0  0  0  0  0  0
   85.1964   15.0309 -103.7012 H   0  0  0  0  0  0
   86.8389   17.2337 -104.0153 C   0  0  0  0  0  0
   87.8435   18.2125 -104.1037 O   0  0  0  0  0  0
   87.5127   19.0132 -103.6182 H   0  0  0  0  0  0
   87.2192   16.0087 -104.8822 C   0  0  0  0  0  0
   86.0842   15.2194 -105.1339 O   0  0  0  0  0  0
   86.4042   14.3789 -105.5549 H   0  0  0  0  0  0
   88.2921   15.1484 -104.1937 C   0  0  0  0  0  0
   89.5989   15.8131 -104.2606 N   0  0  0  0  0  0
   89.7472   16.6945 -103.7211 H   0  0  0  0  0  0
   90.6274   15.4126 -105.1765 C   0  0  0  0  0  0
   90.4470   14.4418 -105.9604 O   0  0  0  0  0  0
   91.9121   16.1729 -105.2287 C   0  0  0  0  0  0
  1  2  1  0  0  0
  2  3  2  0  0  0
  3  4  1  0  0  0
  3  6  1  0  0  0
  4  5  1  0  0  0
  6  7  1  0  0  0
  7  8  1  0  0  0
  8  9  1  0  0  0
  9 10  1  0  0  0
  9 13  1  0  0  0
 10 11  1  0  0  0
 11 12  1  0  0  0
 13 14  1  0  0  0
 13 16  1  0  0  0
 14 15  1  0  0  0
 16 17  1  0  0  0
 16 19  1  0  0  0
 17 18  1  0  0  0
 19 20  1  0  0  0
 19  7  1  0  0  0
 20 21  1  0  0  0
 20 22  1  0  0  0
 22 23  2  0  0  0
 22 24  1  0  0  0
M  END
>  <CHROM.0>
179.13524242,152.68071249,51.98444668

>  <CHROM.1>
175.04847924,171.52978780,48.60704314,-56.46261847,-65.20001125,-62.65568342
-170.61553085,-54.50614402,88.12714075,15.41590217,-103.21337437,-2.25448312
0.35304274,-1.04827838

>  <Energy>
33.787744041323506

>  <Genealogy>
CC(=O)N[C@H]1[C@@H](OC(=N)O)O[C@H](CO)[C@@H](O)[C@@H]1O (tautomer)
[H]/N=C(\O)O[C@H]1O[C@H](CO)[C@@H](O)[C@H](O)[C@H]1NC(C)=O (cis-trans isomerization)
[H]/N=C(\O)O[C@H]1O[C@H](CO)[C@@H](O)[C@H](O)[C@H]1NC(C)=O (3D coordinates assigned)
[H]/N=C(\O)O[C@H]1O[C@H](CO)[C@@H](O)[C@H](O)[C@H]1NC(C)=O (nonaromatic ring conformer: 33.787744041323506 kcal/mol)

>  <Name>
46174147

>  <RI>
3.62712e+07

>  <Rbt.Current_Directory>
/home/edward/Documentos/Virtual_Screening/rDock/3

>  <Rbt.Executable>
rbdock ($Id: //depot/dev/client3/rdock/2013.1/src/exe/rbdock.cxx#4 $)

>  <Rbt.Library>
libRbt.so (2013.1, Build901 2013/11/27)

>  <Rbt.Parameter_File>
/home/edward/anaconda3/envs/MD/share/rdock-2013.1-1/data/scripts/dock.prm

>  <Rbt.Receptor>
parameters.prm

>  <SCORE>
-16.1528

>  <SCORE.INTER>
-11.2722

>  <SCORE.INTER.CONST>
1

>  <SCORE.INTER.POLAR>
-2.46295

>  <SCORE.INTER.REPUL>
0

>  <SCORE.INTER.ROT>
4

>  <SCORE.INTER.VDW>
-12.2981

>  <SCORE.INTER.norm>
-0.626232

>  <SCORE.INTRA>
-7.27445

>  <SCORE.INTRA.DIHEDRAL>
-5.04052

>  <SCORE.INTRA.DIHEDRAL.0>
8.4235

>  <SCORE.INTRA.POLAR>
-1.48686

>  <SCORE.INTRA.POLAR.0>
0

>  <SCORE.INTRA.REPUL>
-0.197072

>  <SCORE.INTRA.REPUL.0>
0.197072

>  <SCORE.INTRA.VDW>
1.28649

>  <SCORE.INTRA.VDW.0>
-3.12486

>  <SCORE.INTRA.norm>
-0.404136

>  <SCORE.RESTR>
0

>  <SCORE.RESTR.CAVITY>
0

>  <SCORE.RESTR.norm>
0

>  <SCORE.SYSTEM>
2.39385

>  <SCORE.SYSTEM.CONST>
0

>  <SCORE.SYSTEM.DIHEDRAL>
3.39557

>  <SCORE.SYSTEM.VDW>
0.696066

>  <SCORE.SYSTEM.norm>
0.132992

>  <SCORE.heavy>
18

>  <SCORE.norm>
-0.897376

>  <SMILES>
[H]/N=C(\O)O[C@H]1O[C@H](CO)[C@@H](O)[C@H](O)[C@H]1NC(C)=O

>  <UniqueID>
66

$$$$
45934204
  rDOCK(R)          3D
libRbt.so/2013.1/901 2013/11/27
 24 24  0  0  0  0  0  0  0  0999 V2000
   86.9649   23.8522  -99.9454 C   0  0  0  0  0  0
   87.1762   23.2232 -101.2838 C   0  0  0  0  0  0
   86.3176   23.3920 -102.1913 O   0  0  0  0  0  0
   88.3676   22.4653 -101.5369 N   0  0  0  0  0  0
   88.6370   21.8024 -102.8170 C   0  0  0  0  0  0
   89.0906   22.8407 -103.8655 C   0  0  0  0  0  0
   88.0583   23.7664 -104.0842 O   0  0  0  0  0  0
   89.3707   22.1981 -105.0953 O   0  0  0  0  0  0
   90.4823   21.3274 -104.9648 C   0  0  0  0  0  0
   90.8444   20.7931 -106.3588 C   0  0  0  0  0  0
   92.1911   20.4043 -106.3999 O   0  0  0  0  0  0
   90.1423   20.1667 -103.9997 C   0  0  0  0  0  0
   91.2630   19.3344 -103.8340 O   0  0  0  0  0  0
   89.7268   20.7327 -102.6286 C   0  0  0  0  0  0
   89.2007   19.6862 -101.8243 O   0  0  0  0  0  0
   90.2116   19.0263 -101.0814 C   0  0  0  0  0  0
   89.5831   17.8513 -100.3350 C   0  0  0  0  0  0
   90.8395   19.9823 -100.1064 C   0  0  0  0  0  0
   91.9223   19.6901  -99.5330 O   0  0  0  0  0  0
   90.2165   21.1902  -99.8199 O   0  5  0  0  0  0
   89.0303   22.3035 -100.7443 H   0  0  0  0  0  0
   87.9618   24.2994 -103.2520 H   0  0  0  0  0  0
   92.3500   19.8443 -105.5957 H   0  0  0  0  0  0
   90.9658   18.5391 -103.3197 H   0  0  0  0  0  0
  1  2  1  0  0  0
  2  3  2  0  0  0
  2  4  1  0  0  0
  4  5  1  0  0  0
  4 21  1  0  0  0
  5  6  1  0  0  0
  6  7  1  0  0  0
  6  8  1  0  0  0
  7 22  1  0  0  0
  8  9  1  0  0  0
  9 10  1  0  0  0
  9 12  1  0  0  0
 10 11  1  0  0  0
 11 23  1  0  0  0
 12 13  1  0  0  0
 12 14  1  0  0  0
 13 24  1  0  0  0
 14 15  1  0  0  0
 14  5  1  0  0  0
 15 16  1  0  0  0
 16 17  1  0  0  0
 16 18  1  0  0  0
 18 19  2  0  0  0
 18 20  1  0  0  0
M  END
>  <CHROM.0>
-178.31809776,152.23489751,-64.59726668

>  <CHROM.1>
76.89784974,68.17432052,155.66945502,47.95384015,-171.92396217,-151.66295369
-175.52533244,-166.10251876,89.54816525,21.18433191,-102.60432908,2.52851291
-0.81708883,1.89136194

>  <Energy>
31.072361513510398

>  <Genealogy>
CC(=O)N[C@H]1[C@H](O)O[C@H](CO)[C@@H](O)[C@@H]1OC(C)C(=O)[O-] (protonated)
CC(=O)N[C@H]1[C@H](O)O[C@H](CO)[C@@H](O)[C@@H]1O[C@H](C)C(=O)[O-] (chirality)
CC(=O)N[C@H]1[C@H](O)O[C@H](CO)[C@@H](O)[C@@H]1O[C@H](C)C(=O)[O-] (3D coordinates assigned)
CC(=O)N[C@H]1[C@H](O)O[C@H](CO)[C@@H](O)[C@@H]1O[C@H](C)C(=O)[O-] (nonaromatic ring conformer: 31.072361513510398 kcal/mol)

>  <Name>
45934204

>  <RI>
3.62712e+07

>  <Rbt.Current_Directory>
/home/edward/Documentos/Virtual_Screening/rDock/3

>  <Rbt.Executable>
rbdock ($Id: //depot/dev/client3/rdock/2013.1/src/exe/rbdock.cxx#4 $)

>  <Rbt.Library>
libRbt.so (2013.1, Build901 2013/11/27)

>  <Rbt.Parameter_File>
/home/edward/anaconda3/envs/MD/share/rdock-2013.1-1/data/scripts/dock.prm

>  <Rbt.Receptor>
parameters.prm

>  <SCORE>
-18.3574

>  <SCORE.INTER>
-11.0375

>  <SCORE.INTER.CONST>
1

>  <SCORE.INTER.POLAR>
-2.94021

>  <SCORE.INTER.REPUL>
0.0407947

>  <SCORE.INTER.ROT>
5

>  <SCORE.INTER.VDW>
-11.6448

>  <SCORE.INTER.norm>
-0.551877

>  <SCORE.INTRA>
-9.08056

>  <SCORE.INTRA.DIHEDRAL>
-10.057

>  <SCORE.INTRA.DIHEDRAL.0>
19.01

>  <SCORE.INTRA.POLAR>
-1.9755

>  <SCORE.INTRA.POLAR.0>
0

>  <SCORE.INTRA.REPUL>
0

>  <SCORE.INTRA.REPUL.0>
0

>  <SCORE.INTRA.VDW>
2.66461

>  <SCORE.INTRA.VDW.0>
-3.90176

>  <SCORE.INTRA.norm>
-0.454028

>  <SCORE.RESTR>
0

>  <SCORE.RESTR.CAVITY>
0

>  <SCORE.RESTR.norm>
0

>  <SCORE.SYSTEM>
1.76068

>  <SCORE.SYSTEM.CONST>
0

>  <SCORE.SYSTEM.DIHEDRAL>
3.52891

>  <SCORE.SYSTEM.VDW>
-0.00377357

>  <SCORE.SYSTEM.norm>
0.088034

>  <SCORE.heavy>
20

>  <SCORE.norm>
-0.917871

>  <SMILES>
CC(=O)N[C@H]1[C@H](O)O[C@H](CO)[C@@H](O)[C@@H]1O[C@H](C)C(=O)[O-]

>  <UniqueID>
67

$$$$
45933887
  rDOCK(R)          3D
libRbt.so/2013.1/901 2013/11/27
 18 18  0  0  0  0  0  0  0  0999 V2000
   92.4495   16.9291 -104.9546 N   0  0  0  0  0  0
   91.1587   16.5437 -104.3762 C   0  0  0  0  0  0
   90.4449   15.4814 -105.2420 C   0  0  0  0  0  0
   91.2427   14.3306 -105.3070 O   0  0  0  0  0  0
   89.1985   15.1378 -104.6609 O   0  0  0  0  0  0
   88.3126   16.2449 -104.6809 C   0  0  0  0  0  0
   86.9341   15.7543 -104.2163 C   0  0  0  0  0  0
   86.2108   15.2311 -105.2962 O   0  0  0  0  0  0
   88.8532   17.3738 -103.7670 C   0  0  0  0  0  0
   88.0106   18.4976 -103.8285 O   0  0  0  0  0  0
   90.2626   17.7846 -104.2294 C   0  0  0  0  0  0
   90.8375   18.6622 -103.2953 O   0  0  0  0  0  0
   92.9240   17.6003 -104.3080 H   0  0  0  0  0  0
   93.0624   16.0851 -105.0370 H   0  0  0  0  0  0
   91.2949   13.9727 -104.3824 H   0  0  0  0  0  0
   86.7070   14.4257 -105.5960 H   0  0  0  0  0  0
   87.9210   18.7462 -104.7855 H   0  0  0  0  0  0
   91.6487   19.0453 -103.7203 H   0  0  0  0  0  0
  1  2  1  0  0  0
  1 13  1  0  0  0
  1 14  1  0  0  0
  2  3  1  0  0  0
  3  4  1  0  0  0
  3  5  1  0  0  0
  4 15  1  0  0  0
  5  6  1  0  0  0
  6  7  1  0  0  0
  6  9  1  0  0  0
  7  8  1  0  0  0
  8 16  1  0  0  0
  9 10  1  0  0  0
  9 11  1  0  0  0
 10 17  1  0  0  0
 11 12  1  0  0  0
 11  2  1  0  0  0
 12 18  1  0  0  0
M  END
>  <CHROM.0>
176.99784397,153.93156714,-177.34547853

>  <CHROM.1>
-176.38630879,64.45279524,-85.78494640,65.15646997,-54.46248315,70.51865300
89.49932284,16.49032325,-104.49313429,-0.22755216,-0.04021920,-2.75368577

>  <Energy>
21.353627453904878

>  <Genealogy>
N[C@@H]1[C@@H](O)O[C@@H](CO)[C@H](O)[C@H]1O (chirality)
N[C@@H]1[C@@H](O)O[C@@H](CO)[C@H](O)[C@H]1O (3D coordinates assigned)
N[C@@H]1[C@@H](O)O[C@@H](CO)[C@H](O)[C@H]1O (nonaromatic ring conformer: 21.353627453904878 kcal/mol)

>  <Name>
45933887

>  <RI>
3.62712e+07

>  <Rbt.Current_Directory>
/home/edward/Documentos/Virtual_Screening/rDock/3

>  <Rbt.Executable>
rbdock ($Id: //depot/dev/client3/rdock/2013.1/src/exe/rbdock.cxx#4 $)

>  <Rbt.Library>
libRbt.so (2013.1, Build901 2013/11/27)

>  <Rbt.Parameter_File>
/home/edward/anaconda3/envs/MD/share/rdock-2013.1-1/data/scripts/dock.prm

>  <Rbt.Receptor>
parameters.prm

>  <SCORE>
-21.8827

>  <SCORE.INTER>
-23.6844

>  <SCORE.INTER.CONST>
1

>  <SCORE.INTER.POLAR>
-5.54208

>  <SCORE.INTER.REPUL>
0

>  <SCORE.INTER.ROT>
2

>  <SCORE.INTER.VDW>
-12.2413

>  <SCORE.INTER.norm>
-1.9737

>  <SCORE.INTRA>
-1.86535

>  <SCORE.INTRA.DIHEDRAL>
-4.97357

>  <SCORE.INTRA.DIHEDRAL.0>
7.96045

>  <SCORE.INTRA.POLAR>
0

>  <SCORE.INTRA.POLAR.0>
0

>  <SCORE.INTRA.REPUL>
0

>  <SCORE.INTRA.REPUL.0>
0

>  <SCORE.INTRA.VDW>
0.621433

>  <SCORE.INTRA.VDW.0>
-0.911518

>  <SCORE.INTRA.norm>
-0.155446

>  <SCORE.RESTR>
0

>  <SCORE.RESTR.CAVITY>
0

>  <SCORE.RESTR.norm>
0

>  <SCORE.SYSTEM>
3.66707

>  <SCORE.SYSTEM.CONST>
0

>  <SCORE.SYSTEM.DIHEDRAL>
3.48105

>  <SCORE.SYSTEM.VDW>
1.92654

>  <SCORE.SYSTEM.norm>
0.305589

>  <SCORE.heavy>
12

>  <SCORE.norm>
-1.82356

>  <SMILES>
N[C@@H]1[C@@H](O)O[C@@H](CO)[C@H](O)[C@H]1O

>  <UniqueID>
70

$$$$
45357367
  rDOCK(R)          3D
libRbt.so/2013.1/901 2013/11/27
 23 23  0  0  0  0  0  0  0  0999 V2000
   89.1839   17.8822 -106.8672 H   0  0  0  0  0  0
   89.6065   18.6301 -106.3336 O   0  0  0  0  0  0
   89.6787   18.6187 -104.9372 C   0  0  0  0  0  0
   89.1934   17.6100 -104.2755 N   0  0  0  0  0  0
   88.5680   16.4355 -104.8900 C   0  0  0  0  0  0
   89.0449   15.1259 -104.1826 C   0  0  0  0  0  0
   89.5105   14.2177 -105.1457 O   0  0  0  0  0  0
   90.2587   14.6615 -105.6246 H   0  0  0  0  0  0
   88.0013   14.4930 -103.4586 O   0  0  0  0  0  0
   87.3946   15.4028 -102.5583 C   0  0  0  0  0  0
   86.5305   14.6001 -101.5757 C   0  0  0  0  0  0
   87.1541   13.3904 -101.2350 O   0  0  0  0  0  0
   87.3946   12.9390 -102.0857 H   0  0  0  0  0  0
   86.5549   16.4569 -103.3385 C   0  0  0  0  0  0
   86.6683   17.7121 -102.7154 O   0  0  0  0  0  0
   87.6097   18.0066 -102.8201 H   0  0  0  0  0  0
   87.0349   16.5779 -104.8017 C   0  0  0  0  0  0
   86.4193   15.5772 -105.5745 O   0  0  0  0  0  0
   86.7331   14.7044 -105.2202 H   0  0  0  0  0  0
   90.2751   19.7120 -104.2149 N   0  0  0  0  0  0
   90.0862   19.7762 -102.8212 N   0  0  0  0  0  0
   90.6429   20.6471 -102.1208 O   0  0  0  0  0  0
   91.0017   20.7708 -104.9217 C   0  0  0  0  0  0
  1  2  1  0  0  0
  2  3  1  0  0  0
  3  4  2  0  0  0
  3 20  1  0  0  0
  4  5  1  0  0  0
  5  6  1  0  0  0
  6  7  1  0  0  0
  6  9  1  0  0  0
  7  8  1  0  0  0
  9 10  1  0  0  0
 10 11  1  0  0  0
 10 14  1  0  0  0
 11 12  1  0  0  0
 12 13  1  0  0  0
 14 15  1  0  0  0
 14 17  1  0  0  0
 15 16  1  0  0  0
 17 18  1  0  0  0
 17  5  1  0  0  0
 18 19  1  0  0  0
 20 21  1  0  0  0
 20 23  1  0  0  0
 21 22  2  0  0  0
M  END
>  <CHROM.0>
-75.12183718,153.89241874,-65.73548762

>  <CHROM.1>
0.31980293,137.34824693,59.33923911,37.84833061,-51.93885997,66.54754029
58.29180984,175.41776014,88.51827716,16.94949274,-103.84338665,-0.25784233
-1.03911045,-2.07911656

>  <Energy>
37.95650000389406

>  <Genealogy>
CN(N=O)C(O)=NC1[C@H](O)O[C@H](CO)[C@@H](O)[C@@H]1O (tautomer)
CN(N=O)C(O)=N[C@H]1[C@H](O)O[C@H](CO)[C@@H](O)[C@@H]1O (chirality)
CN(N=O)/C(O)=N/[C@H]1[C@H](O)O[C@H](CO)[C@@H](O)[C@@H]1O (cis-trans isomerization)
CN(N=O)/C(O)=N/[C@H]1[C@H](O)O[C@H](CO)[C@@H](O)[C@@H]1O (3D coordinates assigned)
CN(N=O)/C(O)=N/[C@H]1[C@H](O)O[C@H](CO)[C@@H](O)[C@@H]1O (nonaromatic ring conformer: 37.95650000389406 kcal/mol)

>  <Name>
45357367

>  <RI>
3.62712e+07

>  <Rbt.Current_Directory>
/home/edward/Documentos/Virtual_Screening/rDock/3

>  <Rbt.Executable>
rbdock ($Id: //depot/dev/client3/rdock/2013.1/src/exe/rbdock.cxx#4 $)

>  <Rbt.Library>
libRbt.so (2013.1, Build901 2013/11/27)

>  <Rbt.Parameter_File>
/home/edward/anaconda3/envs/MD/share/rdock-2013.1-1/data/scripts/dock.prm

>  <Rbt.Receptor>
parameters.prm

>  <SCORE>
-22.2898

>  <SCORE.INTER>
-16.4357

>  <SCORE.INTER.CONST>
1

>  <SCORE.INTER.POLAR>
-3.97696

>  <SCORE.INTER.REPUL>
0

>  <SCORE.INTER.ROT>
3

>  <SCORE.INTER.VDW>
-11.314

>  <SCORE.INTER.norm>
-0.913092

>  <SCORE.INTRA>
-9.0885

>  <SCORE.INTRA.DIHEDRAL>
-8.59823

>  <SCORE.INTRA.DIHEDRAL.0>
11.3241

>  <SCORE.INTRA.POLAR>
-1.0266

>  <SCORE.INTRA.POLAR.0>
0

>  <SCORE.INTRA.REPUL>
-0.437523

>  <SCORE.INTRA.REPUL.0>
0.437523

>  <SCORE.INTRA.VDW>
0.888664

>  <SCORE.INTRA.VDW.0>
-0.835552

>  <SCORE.INTRA.norm>
-0.504917

>  <SCORE.RESTR>
0

>  <SCORE.RESTR.CAVITY>
0

>  <SCORE.RESTR.norm>
0

>  <SCORE.SYSTEM>
3.23433

>  <SCORE.SYSTEM.CONST>
0

>  <SCORE.SYSTEM.DIHEDRAL>
4.25958

>  <SCORE.SYSTEM.VDW>
1.10454

>  <SCORE.SYSTEM.norm>
0.179685

>  <SCORE.heavy>
18

>  <SCORE.norm>
-1.23832

>  <SMILES>
CN(N=O)/C(O)=N/[C@H]1[C@H](O)O[C@H](CO)[C@@H](O)[C@@H]1O

>  <UniqueID>
75

$$$$
45266822
  rDOCK(R)          3D
libRbt.so/2013.1/901 2013/11/27
 29 29  0  0  0  0  0  0  0  0999 V2000
   86.7764   23.9762 -105.9225 C   0  0  0  0  0  0
   88.1930   23.6005 -105.6313 C   0  0  0  0  0  0
   89.1264   24.3352 -106.0554 O   0  0  0  0  0  0
   88.4863   22.3876 -104.9213 N   0  0  0  0  0  0
   89.8626   21.9425 -104.6620 C   0  0  0  0  0  0
   89.9070   20.9281 -103.4715 C   0  0  0  0  0  0
   90.8424   21.3550 -102.5162 O   0  0  0  0  0  0
   90.2400   19.6078 -103.8826 O   0  0  0  0  0  0
   89.4030   19.1941 -104.9473 C   0  0  0  0  0  0
   89.5031   17.6706 -105.0964 C   0  0  0  0  0  0
   88.9304   17.0624 -103.9629 O   0  0  0  0  0  0
   89.1766   15.3769 -104.0667 P   0  0  0  0  0  0
   90.6482   15.0493 -103.9284 O   0  0  0  0  0  0
   88.6208   14.8098 -105.5604 O   0  5  0  0  0  0
   88.2958   14.6006 -102.8305 O   0  0  0  0  0  0
   86.9393   14.9627 -102.9522 C   0  0  0  0  0  0
   86.0854   14.1588 -101.9477 C   0  0  0  0  0  0
   84.6053   14.3670 -102.0365 N   0  3  0  0  0  0
   83.9604   13.4783 -101.0382 C   0  0  0  0  0  0
   84.2379   15.7676 -101.7117 C   0  0  0  0  0  0
   84.0825   14.0150 -103.3779 C   0  0  0  0  0  0
   89.7645   19.9621 -106.2552 C   0  0  0  0  0  0
   90.5871   19.1897 -107.0960 O   0  0  0  0  0  0
   90.4569   21.3103 -105.9387 C   0  0  0  0  0  0
   91.8373   21.1042 -105.7647 O   0  0  0  0  0  0
   87.6854   21.7760 -104.6416 H   0  0  0  0  0  0
   90.5009   22.2056 -102.1343 H   0  0  0  0  0  0
   90.7348   19.7224 -107.9210 H   0  0  0  0  0  0
   91.9397   20.4463 -105.0294 H   0  0  0  0  0  0
  1  2  1  0  0  0
  2  3  2  0  0  0
  2  4  1  0  0  0
  4  5  1  0  0  0
  4 26  1  0  0  0
  5  6  1  0  0  0
  6  7  1  0  0  0
  6  8  1  0  0  0
  7 27  1  0  0  0
  8  9  1  0  0  0
  9 10  1  0  0  0
  9 22  1  0  0  0
 10 11  1  0  0  0
 11 12  1  0  0  0
 12 13  2  0  0  0
 12 14  1  0  0  0
 12 15  1  0  0  0
 15 16  1  0  0  0
 16 17  1  0  0  0
 17 18  1  0  0  0
 18 19  1  0  0  0
 18 20  1  0  0  0
 18 21  1  0  0  0
 22 23  1  0  0  0
 22 24  1  0  0  0
 23 28  1  0  0  0
 24 25  1  0  0  0
 24  5  1  0  0  0
 25 29  1  0  0  0
M  END
>  <CHROM.0>
-77.55183665,152.92002310,-60.62828980

>  <CHROM.1>
159.37882197,65.55930268,67.39257844,-174.73014381,67.53512085,56.59779870
173.78895859,-175.57977804,177.81146540,177.17353541,63.72783194,88.48678049
18.23704492,-104.21109825,1.13364678,0.35499358,-0.17753303

>  <Energy>
59.860815608659586

>  <Genealogy>
CC(=O)N[C@H]1C(O)O[C@H](COP(=O)([O-])OCC[N+](C)(C)C)[C@H](O)[C@@H]1O (protonated)
CC(=O)N[C@H]1[C@H](O)O[C@H](CO[P@](=O)([O-])OCC[N+](C)(C)C)[C@H](O)[C@@H]1O (chirality)
CC(=O)N[C@H]1[C@H](O)O[C@H](CO[P@](=O)([O-])OCC[N+](C)(C)C)[C@H](O)[C@@H]1O (3D coordinates assigned)
CC(=O)N[C@H]1[C@H](O)O[C@H](CO[P@](=O)([O-])OCC[N+](C)(C)C)[C@H](O)[C@@H]1O (nonaromatic ring conformer: 59.860815608659586 kcal/mol)

>  <Name>
45266822

>  <RI>
3.62712e+07

>  <Rbt.Current_Directory>
/home/edward/Documentos/Virtual_Screening/rDock/3

>  <Rbt.Executable>
rbdock ($Id: //depot/dev/client3/rdock/2013.1/src/exe/rbdock.cxx#4 $)

>  <Rbt.Library>
libRbt.so (2013.1, Build901 2013/11/27)

>  <Rbt.Parameter_File>
/home/edward/anaconda3/envs/MD/share/rdock-2013.1-1/data/scripts/dock.prm

>  <Rbt.Receptor>
parameters.prm

>  <SCORE>
-13.6278

>  <SCORE.INTER>
-15.0777

>  <SCORE.INTER.CONST>
1

>  <SCORE.INTER.POLAR>
-3.20536

>  <SCORE.INTER.REPUL>
0.140844

>  <SCORE.INTER.ROT>
8

>  <SCORE.INTER.VDW>
-18.2836

>  <SCORE.INTER.norm>
-0.603106

>  <SCORE.INTRA>
-1.8586

>  <SCORE.INTRA.DIHEDRAL>
-3.12383

>  <SCORE.INTRA.DIHEDRAL.0>
5.30025

>  <SCORE.INTRA.POLAR>
-0.170748

>  <SCORE.INTRA.POLAR.0>
0

>  <SCORE.INTRA.REPUL>
0

>  <SCORE.INTRA.REPUL.0>
0

>  <SCORE.INTRA.VDW>
0.283855

>  <SCORE.INTRA.VDW.0>
-0.595229

>  <SCORE.INTRA.norm>
-0.0743441

>  <SCORE.RESTR>
0

>  <SCORE.RESTR.CAVITY>
0

>  <SCORE.RESTR.norm>
0

>  <SCORE.SYSTEM>
3.30851

>  <SCORE.SYSTEM.CONST>
0

>  <SCORE.SYSTEM.DIHEDRAL>
4.90858

>  <SCORE.SYSTEM.VDW>
0.85422

>  <SCORE.SYSTEM.norm>
0.13234

>  <SCORE.heavy>
25

>  <SCORE.norm>
-0.54511

>  <SMILES>
CC(=O)N[C@H]1[C@H](O)O[C@H](CO[P@](=O)([O-])OCC[N+](C)(C)C)[C@H](O)[C@@H]1O

>  <UniqueID>
78

$$$$
45266741
  rDOCK(R)          3D
libRbt.so/2013.1/901 2013/11/27
 19 19  0  0  0  0  0  0  0  0999 V2000
   92.8313   17.1701 -105.2089 N   0  3  0  0  0  0
   91.3855   16.9418 -105.3471 C   0  0  0  0  0  0
   90.9940   15.5367 -104.8271 C   0  0  0  0  0  0
   91.6430   14.5540 -105.5922 O   0  0  0  0  0  0
   89.5987   15.3392 -104.9617 O   0  0  0  0  0  0
   88.8807   16.2227 -104.1167 C   0  0  0  0  0  0
   87.3939   15.8394 -104.1630 C   0  0  0  0  0  0
   86.8838   16.0178 -105.4575 O   0  0  0  0  0  0
   89.0893   17.6833 -104.5787 C   0  0  0  0  0  0
   88.4253   18.5666 -103.7091 O   0  0  0  0  0  0
   90.5910   18.0189 -104.5778 C   0  0  0  0  0  0
   90.7961   19.2710 -105.1816 O   0  0  0  0  0  0
   93.1775   17.7705 -105.9918 H   0  0  0  0  0  0
   93.3446   16.2606 -105.2580 H   0  0  0  0  0  0
   93.0450   17.6386 -104.2982 H   0  0  0  0  0  0
   91.3736   14.6887 -106.5383 H   0  0  0  0  0  0
   87.0129   16.9748 -105.6877 H   0  0  0  0  0  0
   87.4519   18.3963 -103.8043 H   0  0  0  0  0  0
   91.7645   19.4748 -105.1028 H   0  0  0  0  0  0
  1  2  1  0  0  0
  1 13  1  0  0  0
  1 14  1  0  0  0
  1 15  1  0  0  0
  2  3  1  0  0  0
  3  4  1  0  0  0
  3  5  1  0  0  0
  4 16  1  0  0  0
  5  6  1  0  0  0
  6  7  1  0  0  0
  6  9  1  0  0  0
  7  8  1  0  0  0
  8 17  1  0  0  0
  9 10  1  0  0  0
  9 11  1  0  0  0
 10 18  1  0  0  0
 11 12  1  0  0  0
 11  2  1  0  0  0
 12 19  1  0  0  0
M  END
>  <CHROM.0>
-179.53004814,153.18812727,-65.60285807

>  <CHROM.1>
146.72591293,-58.13759800,-63.49570192,-59.15567875,-65.78358999,-62.53438813
89.88970277,16.78098270,-104.83960793,0.02512955,0.16560048,0.16591207

>  <Energy>
23.063500083854002

>  <Genealogy>
[NH3+][C@H]1[C@H](O)O[C@H](CO)[C@@H](O)[C@@H]1O (chirality)
[NH3+][C@H]1[C@H](O)O[C@H](CO)[C@@H](O)[C@@H]1O (3D coordinates assigned)
[NH3+][C@H]1[C@H](O)O[C@H](CO)[C@@H](O)[C@@H]1O (nonaromatic ring conformer: 23.063500083854002 kcal/mol)

>  <Name>
45266741

>  <RI>
3.62712e+07

>  <Rbt.Current_Directory>
/home/edward/Documentos/Virtual_Screening/rDock/3

>  <Rbt.Executable>
rbdock ($Id: //depot/dev/client3/rdock/2013.1/src/exe/rbdock.cxx#4 $)

>  <Rbt.Library>
libRbt.so (2013.1, Build901 2013/11/27)

>  <Rbt.Parameter_File>
/home/edward/anaconda3/envs/MD/share/rdock-2013.1-1/data/scripts/dock.prm

>  <Rbt.Receptor>
parameters.prm

>  <SCORE>
-23.1341

>  <SCORE.INTER>
-21.0149

>  <SCORE.INTER.CONST>
1

>  <SCORE.INTER.POLAR>
-4.60187

>  <SCORE.INTER.REPUL>
0.00383805

>  <SCORE.INTER.ROT>
1

>  <SCORE.INTER.VDW>
-11.7877

>  <SCORE.INTER.norm>
-1.75124

>  <SCORE.INTRA>
-4.09251

>  <SCORE.INTRA.DIHEDRAL>
-10.8171

>  <SCORE.INTRA.DIHEDRAL.0>
13.1236

>  <SCORE.INTRA.POLAR>
-0.00353924

>  <SCORE.INTRA.POLAR.0>
0

>  <SCORE.INTRA.REPUL>
0

>  <SCORE.INTRA.REPUL.0>
0

>  <SCORE.INTRA.VDW>
1.32805

>  <SCORE.INTRA.VDW.0>
-1.1193

>  <SCORE.INTRA.norm>
-0.341043

>  <SCORE.RESTR>
0.235412

>  <SCORE.RESTR.CAVITY>
0.235412

>  <SCORE.RESTR.norm>
0.0196177

>  <SCORE.SYSTEM>
1.73796

>  <SCORE.SYSTEM.CONST>
0

>  <SCORE.SYSTEM.DIHEDRAL>
3.32198

>  <SCORE.SYSTEM.VDW>
0.0769666

>  <SCORE.SYSTEM.norm>
0.14483

>  <SCORE.heavy>
12

>  <SCORE.norm>
-1.92784

>  <SMILES>
[NH3+][C@H]1[C@H](O)O[C@H](CO)[C@@H](O)[C@@H]1O

>  <UniqueID>
80

$$$$
44630437
  rDOCK(R)          3D
libRbt.so/2013.1/901 2013/11/27
 22 22  0  0  0  0  0  0  0  0999 V2000
   91.2943   17.2561 -102.1780 H   0  0  0  0  0  0
   90.4516   16.9254 -102.6343 O   0  0  0  0  0  0
   90.4120   16.6282 -103.9985 C   0  0  0  0  0  0
   91.5365   16.7362 -104.7260 C   0  0  0  0  0  0
   91.6073   16.4489 -106.1944 C   0  0  0  0  0  0
   89.1658   16.2127 -104.5885 N   0  0  0  0  0  0
   89.1267   15.9474 -105.5982 H   0  0  0  0  0  0
   87.9221   16.1737 -103.8101 C   0  0  0  0  0  0
   86.7018   16.3916 -104.7327 C   0  0  0  0  0  0
   86.6833   15.4668 -105.7947 O   0  0  0  0  0  0
   86.7232   14.5599 -105.3930 H   0  0  0  0  0  0
   85.4906   16.3302 -103.9968 O   0  0  0  0  0  0
   85.2964   15.0555 -103.4010 C   0  0  0  0  0  0
   83.9098   15.0531 -102.7414 C   0  0  0  0  0  0
   83.5949   13.7734 -102.2655 O   0  0  0  0  0  0
   84.3203   13.5279 -101.6343 H   0  0  0  0  0  0
   86.4146   14.7625 -102.3698 C   0  0  0  0  0  0
   86.2541   13.4766 -101.8240 O   0  0  0  0  0  0
   86.4658   12.8238 -102.5414 H   0  0  0  0  0  0
   87.7851   14.8366 -103.0563 C   0  0  0  0  0  0
   88.7910   14.7292 -102.0811 O   0  0  0  0  0  0
   89.6535   14.9317 -102.5289 H   0  0  0  0  0  0
  1  2  1  0  0  0
  2  3  1  0  0  0
  3  4  2  0  0  0
  3  6  1  0  0  0
  4  5  1  0  0  0
  6  7  1  0  0  0
  6  8  1  0  0  0
  8  9  1  0  0  0
  9 10  1  0  0  0
  9 12  1  0  0  0
 10 11  1  0  0  0
 12 13  1  0  0  0
 13 14  1  0  0  0
 13 17  1  0  0  0
 14 15  1  0  0  0
 15 16  1  0  0  0
 17 18  1  0  0  0
 17 20  1  0  0  0
 18 19  1  0  0  0
 20 21  1  0  0  0
 20  8  1  0  0  0
 21 22  1  0  0  0
M  END
>  <CHROM.0>
-177.94533998,-54.57370584,-66.70244482

>  <CHROM.1>
2.43927462,151.95503147,54.94640785,173.32616826,57.48405063,69.98984907
-50.18037575,87.58970399,15.51370082,-103.60958515,-0.39384391,0.17778539
2.00430120

>  <Energy>
27.978014739018878

>  <Genealogy>
CC=C(O)N[C@H]1C(O)O[C@H](CO)[C@@H](O)[C@@H]1O (tautomer)
CC=C(O)N[C@H]1[C@@H](O)O[C@H](CO)[C@@H](O)[C@@H]1O (chirality)
C/C=C(/O)N[C@H]1[C@@H](O)O[C@H](CO)[C@@H](O)[C@@H]1O (cis-trans isomerization)
C/C=C(/O)N[C@H]1[C@@H](O)O[C@H](CO)[C@@H](O)[C@@H]1O (3D coordinates assigned)
C/C=C(/O)N[C@H]1[C@@H](O)O[C@H](CO)[C@@H](O)[C@@H]1O (nonaromatic ring conformer: 27.978014739018878 kcal/mol)

>  <Name>
44630437

>  <RI>
3.62712e+07

>  <Rbt.Current_Directory>
/home/edward/Documentos/Virtual_Screening/rDock/3

>  <Rbt.Executable>
rbdock ($Id: //depot/dev/client3/rdock/2013.1/src/exe/rbdock.cxx#4 $)

>  <Rbt.Library>
libRbt.so (2013.1, Build901 2013/11/27)

>  <Rbt.Parameter_File>
/home/edward/anaconda3/envs/MD/share/rdock-2013.1-1/data/scripts/dock.prm

>  <Rbt.Receptor>
parameters.prm

>  <SCORE>
-18.9084

>  <SCORE.INTER>
-21.204

>  <SCORE.INTER.CONST>
1

>  <SCORE.INTER.POLAR>
-4.53667

>  <SCORE.INTER.REPUL>
0.00196446

>  <SCORE.INTER.ROT>
2

>  <SCORE.INTER.VDW>
-13.1891

>  <SCORE.INTER.norm>
-1.32525

>  <SCORE.INTRA>
-5.2436

>  <SCORE.INTRA.DIHEDRAL>
-8.76048

>  <SCORE.INTRA.DIHEDRAL.0>
12.4527

>  <SCORE.INTRA.POLAR>
-0.778396

>  <SCORE.INTRA.POLAR.0>
0

>  <SCORE.INTRA.REPUL>
0

>  <SCORE.INTRA.REPUL.0>
0

>  <SCORE.INTRA.VDW>
1.78319

>  <SCORE.INTRA.VDW.0>
-1.94967

>  <SCORE.INTRA.norm>
-0.327725

>  <SCORE.RESTR>
0

>  <SCORE.RESTR.CAVITY>
0

>  <SCORE.RESTR.norm>
0

>  <SCORE.SYSTEM>
7.53912

>  <SCORE.SYSTEM.CONST>
0

>  <SCORE.SYSTEM.DIHEDRAL>
0.478548

>  <SCORE.SYSTEM.VDW>
7.29985

>  <SCORE.SYSTEM.norm>
0.471195

>  <SCORE.heavy>
16

>  <SCORE.norm>
-1.18178

>  <SMILES>
C/C=C(/O)N[C@H]1[C@@H](O)O[C@H](CO)[C@@H](O)[C@@H]1O

>  <UniqueID>
84

$$$$
44341508
  rDOCK(R)          3D
libRbt.so/2013.1/901 2013/11/27
 31 33  0  0  0  0  0  0  0  0999 V2000
   89.6346   16.2596 -102.4847 H   0  0  0  0  0  0
   90.2065   15.6025 -103.0017 O   0  0  0  0  0  0
   89.7234   14.9704 -104.1471 C   0  0  0  0  0  0
   88.4621   15.0289 -104.4537 N   0  0  0  0  0  0
   87.4472   15.7090 -103.6462 C   0  0  0  0  0  0
   87.4230   17.2061 -104.0051 C   0  0  0  0  0  0
   88.7022   17.7698 -103.7176 O   0  0  0  0  0  0
   89.0111   19.1373 -103.7910 C   0  0  0  0  0  0
   90.3535   19.5034 -103.9390 C   0  0  0  0  0  0
   90.7227   20.8485 -104.0150 C   0  0  0  0  0  0
   89.7473   21.8531 -103.9439 C   0  0  0  0  0  0
   90.1086   23.2077 -104.0183 C   0  0  0  0  0  0
   89.1230   24.2116 -103.9465 C   0  0  0  0  0  0
   89.4347   25.5778 -104.0164 O   0  0  0  0  0  0
   88.6480   26.6138 -103.4373 C   0  0  0  0  0  0
   87.7802   23.8456 -103.8003 C   0  0  0  0  0  0
   87.4112   22.5002 -103.7253 C   0  0  0  0  0  0
   88.3869   21.4959 -103.7964 C   0  0  0  0  0  0
   88.0254   20.1417 -103.7222 C   0  0  0  0  0  0
   86.4413   17.8786 -103.2337 O   0  0  0  0  0  0
   85.1449   17.4243 -103.5817 C   0  0  0  0  0  0
   84.1014   18.3125 -102.8897 C   0  0  0  0  0  0
   84.3352   18.3538 -101.5075 O   0  0  0  0  0  0
   84.2727   17.4186 -101.1798 H   0  0  0  0  0  0
   84.9714   15.9414 -103.1796 C   0  0  0  0  0  0
   85.0864   15.8089 -101.7845 O   0  0  0  0  0  0
   84.9574   14.8469 -101.5759 H   0  0  0  0  0  0
   86.0488   15.0880 -103.8763 C   0  0  0  0  0  0
   85.7613   15.0163 -105.2516 O   0  0  0  0  0  0
   86.3596   14.3252 -105.6391 H   0  0  0  0  0  0
   90.6685   14.2507 -105.0541 C   0  0  0  0  0  0
  1  2  1  0  0  0
  2  3  1  0  0  0
  3  4  2  0  0  0
  3 31  1  0  0  0
  4  5  1  0  0  0
  5  6  1  0  0  0
  6  7  1  0  0  0
  6 20  1  0  0  0
  7  8  1  0  0  0
  8  9  2  0  0  0
  9 10  1  0  0  0
 10 11  2  0  0  0
 11 12  1  0  0  0
 12 13  2  0  0  0
 13 14  1  0  0  0
 13 16  1  0  0  0
 14 15  1  0  0  0
 16 17  2  0  0  0
 17 18  1  0  0  0
 18 19  2  0  0  0
 18 11  1  0  0  0
 19  8  1  0  0  0
 20 21  1  0  0  0
 21 22  1  0  0  0
 21 25  1  0  0  0
 22 23  1  0  0  0
 23 24  1  0  0  0
 25 26  1  0  0  0
 25 28  1  0  0  0
 26 27  1  0  0  0
 28 29  1  0  0  0
 28  5  1  0  0  0
 29 30  1  0  0  0
M  END
>  <CHROM.0>
-178.42398514,152.78715497,51.95346210

>  <CHROM.1>
-11.78334256,84.53762527,-173.26039575,-158.31979278,-153.42153523,-54.29683916
-59.67980496,179.31682009,69.72583303,87.83280284,18.90518480,-103.65098663
-1.81252802,0.26119171,0.04828660

>  <Energy>
49.73750387972561

>  <Genealogy>
COc1ccc2cc(OC3OC(CO)C(O)C(O)C3N=C(C)O)ccc2c1 (tautomer)
COc1ccc2cc(O[C@@H]3O[C@H](CO)[C@H](O)[C@@H](O)[C@H]3N=C(C)O)ccc2c1 (chirality)
COc1ccc2cc(O[C@@H]3O[C@H](CO)[C@H](O)[C@@H](O)[C@H]3/N=C(\C)O)ccc2c1 (cis-trans isomerization)
COc1ccc2cc(O[C@@H]3O[C@H](CO)[C@H](O)[C@@H](O)[C@H]3/N=C(\C)O)ccc2c1 (3D coordinates assigned)
COc1ccc2cc(O[C@@H]3O[C@H](CO)[C@H](O)[C@@H](O)[C@H]3/N=C(\C)O)ccc2c1 (nonaromatic ring conformer: 49.73750387972561 kcal/mol)

>  <Name>
44341508

>  <RI>
3.62712e+07

>  <Rbt.Current_Directory>
/home/edward/Documentos/Virtual_Screening/rDock/3

>  <Rbt.Executable>
rbdock ($Id: //depot/dev/client3/rdock/2013.1/src/exe/rbdock.cxx#4 $)

>  <Rbt.Library>
libRbt.so (2013.1, Build901 2013/11/27)

>  <Rbt.Parameter_File>
/home/edward/anaconda3/envs/MD/share/rdock-2013.1-1/data/scripts/dock.prm

>  <Rbt.Receptor>
parameters.prm

>  <SCORE>
-14.5369

>  <SCORE.INTER>
-13.2669

>  <SCORE.INTER.CONST>
1

>  <SCORE.INTER.POLAR>
-1.86959

>  <SCORE.INTER.REPUL>
0.204371

>  <SCORE.INTER.ROT>
5

>  <SCORE.INTER.VDW>
-18.3322

>  <SCORE.INTER.norm>
-0.491367

>  <SCORE.INTRA>
-3.66824

>  <SCORE.INTRA.DIHEDRAL>
-2.20306

>  <SCORE.INTRA.DIHEDRAL.0>
7.28276

>  <SCORE.INTRA.POLAR>
-0.903872

>  <SCORE.INTRA.POLAR.0>
0

>  <SCORE.INTRA.REPUL>
0

>  <SCORE.INTRA.REPUL.0>
0

>  <SCORE.INTRA.VDW>
0.506453

>  <SCORE.INTRA.VDW.0>
-1.13557

>  <SCORE.INTRA.norm>
-0.135861

>  <SCORE.RESTR>
0

>  <SCORE.RESTR.CAVITY>
0

>  <SCORE.RESTR.norm>
0

>  <SCORE.SYSTEM>
2.39825

>  <SCORE.SYSTEM.CONST>
0

>  <SCORE.SYSTEM.DIHEDRAL>
3.38418

>  <SCORE.SYSTEM.VDW>
0.706163

>  <SCORE.SYSTEM.norm>
0.0888242

>  <SCORE.heavy>
27

>  <SCORE.norm>
-0.538404

>  <SMILES>
COc1ccc2cc(O[C@@H]3O[C@H](CO)[C@H](O)[C@@H](O)[C@H]3/N=C(\C)O)ccc2c1

>  <UniqueID>
85

$$$$
44229083
  rDOCK(R)          3D
libRbt.so/2013.1/901 2013/11/27
 23 23  0  0  0  0  0  0  0  0999 V2000
   89.7473   18.2684 -107.3397 H   0  0  0  0  0  0
   89.9290   19.1700 -106.9153 O   0  0  0  0  0  0
   91.1660   19.7959 -107.0502 C   0  0  0  0  0  0
   91.4208   20.9310 -106.4653 N   0  0  0  0  0  0
   90.5297   21.7491 -105.6294 C   0  0  0  0  0  0
   89.7226   22.7793 -106.4516 C   0  0  0  0  0  0
   88.9265   22.1613 -107.4297 O   0  0  0  0  0  0
   88.4349   22.8892 -107.8919 H   0  0  0  0  0  0
   88.9327   23.5982 -105.5991 O   0  0  0  0  0  0
   87.9891   22.8302 -104.8639 C   0  0  0  0  0  0
   87.0605   23.7909 -104.1101 C   0  0  0  0  0  0
   87.8278   24.7397 -103.4054 O   0  0  0  0  0  0
   86.7931   25.6022 -102.3600 P   0  0  0  0  0  0
   86.8824   25.0409 -100.9585 O   0  0  0  0  0  0
   87.2685   27.2245 -102.3348 O   0  5  0  0  0  0
   85.1946   25.5070 -102.9071 O   0  5  0  0  0  0
   88.7047   21.8471 -103.9019 C   0  0  0  0  0  0
   89.4791   22.5529 -102.9624 O   0  0  0  0  0  0
   89.9593   21.8791 -102.4138 H   0  0  0  0  0  0
   89.6122   20.9099 -104.7192 C   0  0  0  0  0  0
   90.3948   20.1175 -103.8636 O   0  0  0  0  0  0
   90.9269   19.5109 -104.4422 H   0  0  0  0  0  0
   92.2393   19.1335 -107.8527 C   0  0  0  0  0  0
  1  2  1  0  0  0
  2  3  1  0  0  0
  3  4  2  0  0  0
  3 23  1  0  0  0
  4  5  1  0  0  0
  5  6  1  0  0  0
  6  7  1  0  0  0
  6  9  1  0  0  0
  7  8  1  0  0  0
  9 10  1  0  0  0
 10 11  1  0  0  0
 10 17  1  0  0  0
 11 12  1  0  0  0
 12 13  1  0  0  0
 13 14  2  0  0  0
 13 15  1  0  0  0
 13 16  1  0  0  0
 17 18  1  0  0  0
 17 20  1  0  0  0
 18 19  1  0  0  0
 20 21  1  0  0  0
 20  5  1  0  0  0
 21 22  1  0  0  0
M  END
>  <CHROM.0>
176.52652529,149.70375316,-64.25507918

>  <CHROM.1>
-177.39694619,-90.04443752,178.88540022,-49.97719434,-169.69266638,98.82006503
-176.34062594,-61.72665901,88.79214841,22.80872199,-104.54967504,-0.47849431
-0.96299161,1.67073845

>  <Energy>
31.61254440822009

>  <Genealogy>
CC(O)=N[C@H]1C(O)O[C@H](COP(=O)([O-])[O-])[C@H](O)[C@@H]1O (tautomer)
CC(O)=N[C@H]1[C@@H](O)O[C@H](COP(=O)([O-])[O-])[C@H](O)[C@@H]1O (chirality)
C/C(O)=N/[C@H]1[C@@H](O)O[C@H](COP(=O)([O-])[O-])[C@H](O)[C@@H]1O (cis-trans isomerization)
C/C(O)=N/[C@H]1[C@@H](O)O[C@H](COP(=O)([O-])[O-])[C@H](O)[C@@H]1O (3D coordinates assigned)
C/C(O)=N/[C@H]1[C@@H](O)O[C@H](COP(=O)([O-])[O-])[C@H](O)[C@@H]1O (nonaromatic ring conformer: 31.61254440822009 kcal/mol)

>  <Name>
44229083

>  <RI>
3.62712e+07

>  <Rbt.Current_Directory>
/home/edward/Documentos/Virtual_Screening/rDock/3

>  <Rbt.Executable>
rbdock ($Id: //depot/dev/client3/rdock/2013.1/src/exe/rbdock.cxx#4 $)

>  <Rbt.Library>
libRbt.so (2013.1, Build901 2013/11/27)

>  <Rbt.Parameter_File>
/home/edward/anaconda3/envs/MD/share/rdock-2013.1-1/data/scripts/dock.prm

>  <Rbt.Receptor>
parameters.prm

>  <SCORE>
-17.7126

>  <SCORE.INTER>
-17.5806

>  <SCORE.INTER.CONST>
1

>  <SCORE.INTER.POLAR>
-4.05834

>  <SCORE.INTER.REPUL>
0.00212451

>  <SCORE.INTER.ROT>
4

>  <SCORE.INTER.VDW>
-13.1929

>  <SCORE.INTER.norm>
-0.925296

>  <SCORE.INTRA>
-1.94769

>  <SCORE.INTRA.DIHEDRAL>
-3.66788

>  <SCORE.INTRA.DIHEDRAL.0>
7.61904

>  <SCORE.INTRA.POLAR>
-0.0501081

>  <SCORE.INTRA.POLAR.0>
0

>  <SCORE.INTRA.REPUL>
-0.119165

>  <SCORE.INTRA.REPUL.0>
0.126113

>  <SCORE.INTRA.VDW>
0.652443

>  <SCORE.INTRA.VDW.0>
-2.01966

>  <SCORE.INTRA.norm>
-0.10251

>  <SCORE.RESTR>
0

>  <SCORE.RESTR.CAVITY>
0

>  <SCORE.RESTR.norm>
0

>  <SCORE.SYSTEM>
1.81575

>  <SCORE.SYSTEM.CONST>
0

>  <SCORE.SYSTEM.DIHEDRAL>
4.05577

>  <SCORE.SYSTEM.VDW>
-0.212139

>  <SCORE.SYSTEM.norm>
0.0955656

>  <SCORE.heavy>
19

>  <SCORE.norm>
-0.93224

>  <SMILES>
C/C(O)=N/[C@H]1[C@@H](O)O[C@H](COP(=O)([O-])[O-])[C@H](O)[C@@H]1O

>  <UniqueID>
88

$$$$
44119773
  rDOCK(R)          3D
libRbt.so/2013.1/901 2013/11/27
 20 20  0  0  0  0  0  0  0  0999 V2000
   93.0830   16.4488 -104.8200 H   0  0  0  0  0  0
   92.5628   17.2339 -105.1941 O   0  0  0  0  0  0
   91.2173   17.4170 -104.8880 C   0  0  0  0  0  0
   90.6004   16.5129 -104.1801 N   0  0  0  0  0  0
   89.1890   16.5239 -103.7800 C   0  0  0  0  0  0
   89.0021   15.6287 -102.5417 C   0  0  0  0  0  0
   89.7800   16.1384 -101.4927 O   0  0  0  0  0  0
   90.6998   16.2440 -101.8512 H   0  0  0  0  0  0
   87.6423   15.6258 -102.1417 O   0  0  0  0  0  0
   86.8284   15.0071 -103.1249 C   0  0  0  0  0  0
   85.4074   14.8926 -102.5523 C   0  0  0  0  0  0
   84.5814   14.1493 -103.4104 O   0  0  0  0  0  0
   84.6057   14.5932 -104.2979 H   0  0  0  0  0  0
   86.8488   15.8379 -104.4325 C   0  0  0  0  0  0
   86.0766   15.2073 -105.4222 O   0  0  0  0  0  0
   86.5172   14.3394 -105.6184 H   0  0  0  0  0  0
   88.3000   16.0091 -104.9282 C   0  0  0  0  0  0
   88.8020   14.7825 -105.4020 O   0  0  0  0  0  0
   88.8159   14.1564 -104.6316 H   0  0  0  0  0  0
   90.5400   18.6660 -105.3717 C   0  0  0  0  0  0
  1  2  1  0  0  0
  2  3  1  0  0  0
  3  4  2  0  0  0
  3 20  1  0  0  0
  4  5  1  0  0  0
  5  6  1  0  0  0
  6  7  1  0  0  0
  6  9  1  0  0  0
  7  8  1  0  0  0
  9 10  1  0  0  0
 10 11  1  0  0  0
 10 14  1  0  0  0
 11 12  1  0  0  0
 12 13  1  0  0  0
 14 15  1  0  0  0
 14 17  1  0  0  0
 15 16  1  0  0  0
 17 18  1  0  0  0
 17  5  1  0  0  0
 18 19  1  0  0  0
M  END
>  <CHROM.0>
-178.28486397,151.08001291,-63.40493252

>  <CHROM.1>
-4.54627570,-157.65916013,-52.21926509,-173.14736564,-56.39331207,-63.85644960
58.20602434,88.47895610,15.93563425,-103.92863422,-0.24463103,0.39958591
1.68643548

>  <Energy>
26.982286914189284

>  <Genealogy>
CC(O)=N[C@@H]1[C@@H](O)OC(CO)[C@H](O)[C@@H]1O (tautomer)
CC(O)=N[C@@H]1[C@@H](O)O[C@@H](CO)[C@H](O)[C@@H]1O (chirality)
C/C(O)=N\[C@@H]1[C@@H](O)O[C@@H](CO)[C@H](O)[C@@H]1O (cis-trans isomerization)
C/C(O)=N\[C@@H]1[C@@H](O)O[C@@H](CO)[C@H](O)[C@@H]1O (3D coordinates assigned)
C/C(O)=N\[C@@H]1[C@@H](O)O[C@@H](CO)[C@H](O)[C@@H]1O (nonaromatic ring conformer: 26.982286914189284 kcal/mol)

>  <Name>
44119773

>  <RI>
3.62712e+07

>  <Rbt.Current_Directory>
/home/edward/Documentos/Virtual_Screening/rDock/3

>  <Rbt.Executable>
rbdock ($Id: //depot/dev/client3/rdock/2013.1/src/exe/rbdock.cxx#4 $)

>  <Rbt.Library>
libRbt.so (2013.1, Build901 2013/11/27)

>  <Rbt.Parameter_File>
/home/edward/anaconda3/envs/MD/share/rdock-2013.1-1/data/scripts/dock.prm

>  <Rbt.Receptor>
parameters.prm

>  <SCORE>
-20.3154

>  <SCORE.INTER>
-16.8548

>  <SCORE.INTER.CONST>
1

>  <SCORE.INTER.POLAR>
-3.67839

>  <SCORE.INTER.REPUL>
0.00398881

>  <SCORE.INTER.ROT>
2

>  <SCORE.INTER.VDW>
-11.7683

>  <SCORE.INTER.norm>
-1.12366

>  <SCORE.INTRA>
-5.23301

>  <SCORE.INTRA.DIHEDRAL>
-9.71677

>  <SCORE.INTRA.DIHEDRAL.0>
12.1969

>  <SCORE.INTRA.POLAR>
-0.490843

>  <SCORE.INTRA.POLAR.0>
0

>  <SCORE.INTRA.REPUL>
0

>  <SCORE.INTRA.REPUL.0>
0

>  <SCORE.INTRA.VDW>
1.29424

>  <SCORE.INTRA.VDW.0>
-1.65038

>  <SCORE.INTRA.norm>
-0.348867

>  <SCORE.RESTR>
0

>  <SCORE.RESTR.CAVITY>
0

>  <SCORE.RESTR.norm>
0

>  <SCORE.SYSTEM>
1.77244

>  <SCORE.SYSTEM.CONST>
0

>  <SCORE.SYSTEM.DIHEDRAL>
3.77077

>  <SCORE.SYSTEM.VDW>
-0.112945

>  <SCORE.SYSTEM.norm>
0.118163

>  <SCORE.heavy>
15

>  <SCORE.norm>
-1.35436

>  <SMILES>
C/C(O)=N\[C@@H]1[C@@H](O)O[C@@H](CO)[C@H](O)[C@@H]1O

>  <UniqueID>
93

$$$$
42612215
  rDOCK(R)          3D
libRbt.so/2013.1/901 2013/11/27
 24 24  0  0  0  0  0  0  0  0999 V2000
   86.4067   14.3729 -105.5436 H   0  0  0  0  0  0
   86.0777   15.1812 -105.0294 O   0  0  0  0  0  0
   86.9623   15.9937 -104.3239 C   0  0  0  0  0  0
   86.5725   16.6112 -103.1935 C   0  0  0  0  0  0
   85.2764   16.4546 -102.5925 N   0  0  0  0  0  0
   84.4069   15.7020 -103.0344 N   0  3  0  0  0  0
   83.5348   14.9517 -103.4704 N   0  5  0  0  0  0
   88.2833   16.1931 -104.8540 N   0  0  0  0  0  0
   88.3941   16.0950 -105.8883 H   0  0  0  0  0  0
   89.5001   16.1607 -104.0276 C   0  0  0  0  0  0
   89.9608   17.5925 -103.7010 C   0  0  0  0  0  0
   88.9047   18.2871 -103.0949 O   0  0  0  0  0  0
   89.2342   19.2087 -102.9285 H   0  0  0  0  0  0
   90.3458   18.2710 -104.8848 O   0  0  0  0  0  0
   91.5048   17.6747 -105.4451 C   0  0  0  0  0  0
   91.9780   18.5433 -106.6162 C   0  0  0  0  0  0
   92.3002   19.8253 -106.1519 O   0  0  0  0  0  0
   92.9970   19.6995 -105.4566 H   0  0  0  0  0  0
   91.1979   16.2350 -105.9217 C   0  0  0  0  0  0
   92.3767   15.6365 -106.3980 O   0  0  0  0  0  0
   93.0453   15.6936 -105.6663 H   0  0  0  0  0  0
   90.6343   15.4045 -104.7524 C   0  0  0  0  0  0
   90.1732   14.1672 -105.2315 O   0  0  0  0  0  0
   90.9507   13.7166 -105.6539 H   0  0  0  0  0  0
  1  2  1  0  0  0
  2  3  1  0  0  0
  3  4  2  0  0  0
  3  8  1  0  0  0
  4  5  1  0  0  0
  5  6  2  0  0  0
  6  7  2  0  0  0
  8  9  1  0  0  0
  8 10  1  0  0  0
 10 11  1  0  0  0
 11 12  1  0  0  0
 11 14  1  0  0  0
 12 13  1  0  0  0
 14 15  1  0  0  0
 15 16  1  0  0  0
 15 19  1  0  0  0
 16 17  1  0  0  0
 17 18  1  0  0  0
 19 20  1  0  0  0
 19 22  1  0  0  0
 20 21  1  0  0  0
 22 23  1  0  0  0
 22 10  1  0  0  0
 23 24  1  0  0  0
M  END
>  <CHROM.0>
-176.64442908,153.76853277,52.32076279

>  <CHROM.1>
-147.81052503,2.40500358,-99.95706516,-178.25701225,60.95835267,57.68003334
55.46472735,-177.89187579,88.96213436,16.61933292,-104.63810309,-2.97258013
0.39838838,0.27775059

>  <Energy>
31.188968641541038

>  <Genealogy>
[N-]=[N+]=NC=C(O)N[C@@H]1C(O)O[C@H](CO)[C@@H](O)[C@@H]1O (tautomer)
[N-]=[N+]=NC=C(O)N[C@@H]1[C@H](O)O[C@H](CO)[C@@H](O)[C@@H]1O (chirality)
[N-]=[N+]=N/C=C(\O)N[C@@H]1[C@H](O)O[C@H](CO)[C@@H](O)[C@@H]1O (cis-trans isomerization)
[N-]=[N+]=N/C=C(\O)N[C@@H]1[C@H](O)O[C@H](CO)[C@@H](O)[C@@H]1O (3D coordinates assigned)
[N-]=[N+]=N/C=C(\O)N[C@@H]1[C@H](O)O[C@H](CO)[C@@H](O)[C@@H]1O (nonaromatic ring conformer: 31.188968641541038 kcal/mol)

>  <Name>
42612215

>  <RI>
3.62712e+07

>  <Rbt.Current_Directory>
/home/edward/Documentos/Virtual_Screening/rDock/3

>  <Rbt.Executable>
rbdock ($Id: //depot/dev/client3/rdock/2013.1/src/exe/rbdock.cxx#4 $)

>  <Rbt.Library>
libRbt.so (2013.1, Build901 2013/11/27)

>  <Rbt.Parameter_File>
/home/edward/anaconda3/envs/MD/share/rdock-2013.1-1/data/scripts/dock.prm

>  <Rbt.Receptor>
parameters.prm

>  <SCORE>
-20.7736

>  <SCORE.INTER>
-23.8375

>  <SCORE.INTER.CONST>
1

>  <SCORE.INTER.POLAR>
-4.78063

>  <SCORE.INTER.REPUL>
0.143524

>  <SCORE.INTER.ROT>
3

>  <SCORE.INTER.VDW>
-16.701

>  <SCORE.INTER.norm>
-1.32431

>  <SCORE.INTRA>
0.648247

>  <SCORE.INTRA.DIHEDRAL>
2.50582

>  <SCORE.INTRA.DIHEDRAL.0>
6.11272

>  <SCORE.INTRA.POLAR>
0

>  <SCORE.INTRA.POLAR.0>
0

>  <SCORE.INTRA.REPUL>
-0.296772

>  <SCORE.INTRA.REPUL.0>
0.305949

>  <SCORE.INTRA.VDW>
0.879197

>  <SCORE.INTRA.VDW.0>
-2.23946

>  <SCORE.INTRA.norm>
0.0360137

>  <SCORE.RESTR>
0

>  <SCORE.RESTR.CAVITY>
0

>  <SCORE.RESTR.norm>
0

>  <SCORE.SYSTEM>
2.4157

>  <SCORE.SYSTEM.CONST>
0

>  <SCORE.SYSTEM.DIHEDRAL>
3.24756

>  <SCORE.SYSTEM.VDW>
0.791922

>  <SCORE.SYSTEM.norm>
0.134206

>  <SCORE.heavy>
18

>  <SCORE.norm>
-1.15409

>  <SMILES>
[N-]=[N+]=N/C=C(\O)N[C@@H]1[C@H](O)O[C@H](CO)[C@@H](O)[C@@H]1O

>  <UniqueID>
95

$$$$
25243963
  rDOCK(R)          3D
libRbt.so/2013.1/901 2013/11/27
 23 23  0  0  0  0  0  0  0  0999 V2000
   93.2767   19.0116 -105.6329 H   0  0  0  0  0  0
   92.6006   19.0130 -106.3878 O   0  0  0  0  0  0
   91.5499   19.9257 -106.4108 C   0  0  0  0  0  0
   91.4857   20.8402 -105.4839 N   0  0  0  0  0  0
   90.4715   21.8922 -105.3495 C   0  0  0  0  0  0
   89.6392   21.6344 -104.0788 C   0  0  0  0  0  0
   90.4683   21.4922 -102.9513 O   0  0  0  0  0  0
   91.1170   20.7736 -103.1707 H   0  0  0  0  0  0
   88.6708   22.6547 -103.8809 O   0  0  0  0  0  0
   89.2777   23.9235 -103.6822 C   0  0  0  0  0  0
   88.1740   24.9446 -103.3818 C   0  0  0  0  0  0
   87.5706   24.6221 -102.1503 O   0  0  0  0  0  0
   86.3721   25.7881 -101.8142 P   0  0  0  0  0  0
   85.9181   25.6676 -100.3767 O   0  0  0  0  0  0
   86.9733   27.3459 -102.0889 O   0  5  0  0  0  0
   85.0494   25.5231 -102.8334 O   0  5  0  0  0  0
   90.0876   24.3433 -104.9352 C   0  0  0  0  0  0
   90.6975   25.5984 -104.7557 O   0  0  0  0  0  0
   91.3233   25.5226 -103.9883 H   0  0  0  0  0  0
   91.1439   23.2755 -105.2661 C   0  0  0  0  0  0
   91.7543   23.5985 -106.4887 O   0  0  0  0  0  0
   91.0393   23.6008 -107.1774 H   0  0  0  0  0  0
   90.5193   19.7972 -107.4941 C   0  0  0  0  0  0
  1  2  1  0  0  0
  2  3  1  0  0  0
  3  4  2  0  0  0
  3 23  1  0  0  0
  4  5  1  0  0  0
  5  6  1  0  0  0
  6  7  1  0  0  0
  6  9  1  0  0  0
  7  8  1  0  0  0
  9 10  1  0  0  0
 10 11  1  0  0  0
 10 17  1  0  0  0
 11 12  1  0  0  0
 12 13  1  0  0  0
 13 14  2  0  0  0
 13 15  1  0  0  0
 13 16  1  0  0  0
 17 18  1  0  0  0
 17 20  1  0  0  0
 18 19  1  0  0  0
 20 21  1  0  0  0
 20  5  1  0  0  0
 21 22  1  0  0  0
M  END
>  <CHROM.0>
-75.45166718,153.88803704,-64.97716946

>  <CHROM.1>
4.01208765,113.23695010,-54.87434774,65.76939017,178.66167223,-167.28616988
61.22891553,59.74196419,89.19572953,23.44232273,-104.02552720,0.66262420
-0.69983908,3.13189173

>  <Energy>
30.196165373708315

>  <Genealogy>
CC(O)=N[C@H]1C(O)O[C@H](COP(=O)([O-])[O-])[C@@H](O)[C@@H]1O (tautomer)
CC(O)=N[C@H]1[C@@H](O)O[C@H](COP(=O)([O-])[O-])[C@@H](O)[C@@H]1O (chirality)
C/C(O)=N/[C@H]1[C@@H](O)O[C@H](COP(=O)([O-])[O-])[C@@H](O)[C@@H]1O (cis-trans isomerization)
C/C(O)=N/[C@H]1[C@@H](O)O[C@H](COP(=O)([O-])[O-])[C@@H](O)[C@@H]1O (3D coordinates assigned)
C/C(O)=N/[C@H]1[C@@H](O)O[C@H](COP(=O)([O-])[O-])[C@@H](O)[C@@H]1O (nonaromatic ring conformer: 30.196165373708315 kcal/mol)

>  <Name>
25243963

>  <RI>
3.62712e+07

>  <Rbt.Current_Directory>
/home/edward/Documentos/Virtual_Screening/rDock/3

>  <Rbt.Executable>
rbdock ($Id: //depot/dev/client3/rdock/2013.1/src/exe/rbdock.cxx#4 $)

>  <Rbt.Library>
libRbt.so (2013.1, Build901 2013/11/27)

>  <Rbt.Parameter_File>
/home/edward/anaconda3/envs/MD/share/rdock-2013.1-1/data/scripts/dock.prm

>  <Rbt.Receptor>
parameters.prm

>  <SCORE>
-16.6633

>  <SCORE.INTER>
-18.8696

>  <SCORE.INTER.CONST>
1

>  <SCORE.INTER.POLAR>
-4.00227

>  <SCORE.INTER.REPUL>
0

>  <SCORE.INTER.ROT>
4

>  <SCORE.INTER.VDW>
-14.6619

>  <SCORE.INTER.norm>
-0.993137

>  <SCORE.INTRA>
-1.02979

>  <SCORE.INTRA.DIHEDRAL>
-2.56994

>  <SCORE.INTRA.DIHEDRAL.0>
3.43166

>  <SCORE.INTRA.POLAR>
-0.0883255

>  <SCORE.INTRA.POLAR.0>
0

>  <SCORE.INTRA.REPUL>
0

>  <SCORE.INTRA.REPUL.0>
0

>  <SCORE.INTRA.VDW>
0.555486

>  <SCORE.INTRA.VDW.0>
-2.07255

>  <SCORE.INTRA.norm>
-0.0541994

>  <SCORE.RESTR>
0

>  <SCORE.RESTR.CAVITY>
0

>  <SCORE.RESTR.norm>
0

>  <SCORE.SYSTEM>
3.23612

>  <SCORE.SYSTEM.CONST>
0

>  <SCORE.SYSTEM.DIHEDRAL>
4.31682

>  <SCORE.SYSTEM.VDW>
1.07771

>  <SCORE.SYSTEM.norm>
0.170322

>  <SCORE.heavy>
19

>  <SCORE.norm>
-0.877015

>  <SMILES>
C/C(O)=N/[C@H]1[C@@H](O)O[C@H](COP(=O)([O-])[O-])[C@@H](O)[C@@H]1O

>  <UniqueID>
98

$$$$
25243937
  rDOCK(R)          3D
libRbt.so/2013.1/901 2013/11/27
 23 23  0  0  0  0  0  0  0  0999 V2000
   88.5829   13.0841 -100.8010 H   0  0  0  0  0  0
   89.2785   13.7328 -101.1507 O   0  0  0  0  0  0
   88.9146   14.8255 -101.9324 C   0  0  0  0  0  0
   89.8478   15.5990 -102.4121 N   0  0  0  0  0  0
   89.6589   16.8013 -103.2309 C   0  0  0  0  0  0
   89.7938   18.0698 -102.3625 C   0  0  0  0  0  0
   91.0163   18.0440 -101.6459 O   0  0  0  0  0  0
   90.9582   19.1859 -100.3772 P   0  0  0  0  0  0
   92.2084   19.0989  -99.5306 O   0  0  0  0  0  0
   89.6139   18.8547  -99.4069 O   0  5  0  0  0  0
   90.8077   20.7496 -101.0058 O   0  5  0  0  0  0
   89.6802   19.2377 -103.1649 O   0  0  0  0  0  0
   90.7274   19.3319 -104.1196 C   0  0  0  0  0  0
   90.5870   20.6863 -104.8349 C   0  0  0  0  0  0
   91.6866   20.9409 -105.6674 O   0  0  0  0  0  0
   91.7712   20.1597 -106.2742 H   0  0  0  0  0  0
   90.6569   18.1549 -105.1216 C   0  0  0  0  0  0
   91.7372   18.2234 -106.0169 O   0  0  0  0  0  0
   91.7113   17.3950 -106.5635 H   0  0  0  0  0  0
   90.7130   16.8212 -104.3517 C   0  0  0  0  0  0
   90.5372   15.7300 -105.2222 O   0  0  0  0  0  0
   89.6972   15.8801 -105.7301 H   0  0  0  0  0  0
   87.4564   15.0509 -102.2068 C   0  0  0  0  0  0
  1  2  1  0  0  0
  2  3  1  0  0  0
  3  4  2  0  0  0
  3 23  1  0  0  0
  4  5  1  0  0  0
  5  6  1  0  0  0
  6  7  1  0  0  0
  6 12  1  0  0  0
  7  8  1  0  0  0
  8  9  2  0  0  0
  8 10  1  0  0  0
  8 11  1  0  0  0
 12 13  1  0  0  0
 13 14  1  0  0  0
 13 17  1  0  0  0
 14 15  1  0  0  0
 15 16  1  0  0  0
 17 18  1  0  0  0
 17 20  1  0  0  0
 18 19  1  0  0  0
 20 21  1  0  0  0
 20  5  1  0  0  0
 21 22  1  0  0  0
M  END
>  <CHROM.0>
-163.69202204,154.88604441,-65.98880087

>  <CHROM.1>
-176.85991446,100.31647247,-163.76337029,175.46962389,171.94391984,54.27749155
173.27458672,69.40064795,90.37273606,17.94616326,-102.68723566,2.86339924
1.19618677,1.34211879

>  <Energy>
30.861591092392487

>  <Genealogy>
CC(O)=N[C@H]1[C@@H](OP(=O)([O-])[O-])O[C@H](CO)[C@@H](O)[C@@H]1O (tautomer)
C/C(O)=N/[C@H]1[C@@H](OP(=O)([O-])[O-])O[C@H](CO)[C@@H](O)[C@@H]1O (cis-trans isomerization)
C/C(O)=N/[C@H]1[C@@H](OP(=O)([O-])[O-])O[C@H](CO)[C@@H](O)[C@@H]1O (3D coordinates assigned)
C/C(O)=N/[C@H]1[C@@H](OP(=O)([O-])[O-])O[C@H](CO)[C@@H](O)[C@@H]1O (nonaromatic ring conformer: 30.861591092392487 kcal/mol)

>  <Name>
25243937

>  <RI>
3.62712e+07

>  <Rbt.Current_Directory>
/home/edward/Documentos/Virtual_Screening/rDock/3

>  <Rbt.Executable>
rbdock ($Id: //depot/dev/client3/rdock/2013.1/src/exe/rbdock.cxx#4 $)

>  <Rbt.Library>
libRbt.so (2013.1, Build901 2013/11/27)

>  <Rbt.Parameter_File>
/home/edward/anaconda3/envs/MD/share/rdock-2013.1-1/data/scripts/dock.prm

>  <Rbt.Receptor>
parameters.prm

>  <SCORE>
-19.3384

>  <SCORE.INTER>
-18.5768

>  <SCORE.INTER.CONST>
1

>  <SCORE.INTER.POLAR>
-3.4803

>  <SCORE.INTER.REPUL>
0.0513851

>  <SCORE.INTER.ROT>
4

>  <SCORE.INTER.VDW>
-16.4008

>  <SCORE.INTER.norm>
-0.977729

>  <SCORE.INTRA>
-3.15634

>  <SCORE.INTRA.DIHEDRAL>
-3.19512

>  <SCORE.INTRA.DIHEDRAL.0>
6.17968

>  <SCORE.INTRA.POLAR>
-0.685244

>  <SCORE.INTRA.POLAR.0>
0

>  <SCORE.INTRA.REPUL>
0

>  <SCORE.INTRA.REPUL.0>
0

>  <SCORE.INTRA.VDW>
0.771054

>  <SCORE.INTRA.VDW.0>
-2.81075

>  <SCORE.INTRA.norm>
-0.166123

>  <SCORE.RESTR>
0

>  <SCORE.RESTR.CAVITY>
0

>  <SCORE.RESTR.norm>
0

>  <SCORE.SYSTEM>
2.39483

>  <SCORE.SYSTEM.CONST>
0

>  <SCORE.SYSTEM.DIHEDRAL>
4.23819

>  <SCORE.SYSTEM.VDW>
0.275731

>  <SCORE.SYSTEM.norm>
0.126044

>  <SCORE.heavy>
19

>  <SCORE.norm>
-1.01781

>  <SMILES>
C/C(O)=N/[C@H]1[C@@H](OP(=O)([O-])[O-])O[C@H](CO)[C@@H](O)[C@@H]1O

>  <UniqueID>
101

$$$$
24847493
  rDOCK(R)          3D
libRbt.so/2013.1/901 2013/11/27
 25 25  0  0  0  0  0  0  0  0999 V2000
   91.5567   22.0523 -106.0574 O   0  0  0  0  0  0
   91.3800   20.8194 -105.9684 N   0  0  0  0  0  0
   90.2218   20.2795 -105.3787 N   0  0  0  0  0  0
   89.2955   21.1523 -104.6437 C   0  0  0  0  0  0
   89.9623   21.6915 -103.3798 C   0  0  0  0  0  0
   90.5339   20.3436 -102.3656 Cl  0  0  0  0  0  0
   90.0120   18.8575 -105.4852 C   0  0  0  0  0  0
   90.7322   18.1914 -106.2786 O   0  0  0  0  0  0
   89.0153   18.1822 -104.6957 N   0  0  0  0  0  0
   88.7972   16.7321 -104.7799 C   0  0  0  0  0  0
   87.3606   16.3726 -104.2759 C   0  0  0  0  0  0
   86.6902   15.6296 -105.2598 O   0  0  0  0  0  0
   87.3762   15.6012 -103.0856 O   0  0  0  0  0  0
   88.1629   16.2313 -102.0926 C   0  0  0  0  0  0
   87.8641   15.5770 -100.7365 C   0  0  0  0  0  0
   88.4899   16.2869  -99.7018 O   0  0  0  0  0  0
   89.6722   16.1159 -102.4443 C   0  0  0  0  0  0
   90.3554   17.2481 -101.9677 O   0  0  0  0  0  0
   89.8929   15.9968 -103.9740 C   0  0  0  0  0  0
   89.9822   14.6488 -104.3724 O   0  0  0  0  0  0
   88.5612   18.6916 -103.9075 H   0  0  0  0  0  0
   87.1159   14.7326 -105.2843 H   0  0  0  0  0  0
   89.4596   16.3040  -99.9146 H   0  0  0  0  0  0
   91.3017   17.1560 -102.2525 H   0  0  0  0  0  0
   89.0941   14.2265 -104.2469 H   0  0  0  0  0  0
  1  2  2  0  0  0
  2  3  1  0  0  0
  3  4  1  0  0  0
  3  7  1  0  0  0
  4  5  1  0  0  0
  5  6  1  0  0  0
  7  8  2  0  0  0
  7  9  1  0  0  0
  9 10  1  0  0  0
  9 21  1  0  0  0
 10 11  1  0  0  0
 11 12  1  0  0  0
 11 13  1  0  0  0
 12 22  1  0  0  0
 13 14  1  0  0  0
 14 15  1  0  0  0
 14 17  1  0  0  0
 15 16  1  0  0  0
 16 23  1  0  0  0
 17 18  1  0  0  0
 17 19  1  0  0  0
 18 24  1  0  0  0
 19 20  1  0  0  0
 19 10  1  0  0  0
 20 25  1  0  0  0
M  END
>  <CHROM.0>
-75.36672428,150.58708371,-65.57777015

>  <CHROM.1>
-10.58562452,-66.60129073,-56.41788263,-158.06950559,71.15700236,-172.25140006
-57.16004512,-177.18439592,-57.48202433,89.44585866,18.02427622,-103.72756943
0.31984772,-1.15036806,-1.64101248

>  <Energy>
39.33236186872171

>  <Genealogy>
O=NN(CCCl)C(=O)N[C@@H]1[C@@H](O)O[C@@H](CO)[C@H](O)[C@H]1O (chirality)
O=NN(CCCl)C(=O)N[C@@H]1[C@@H](O)O[C@@H](CO)[C@H](O)[C@H]1O (3D coordinates assigned)
O=NN(CCCl)C(=O)N[C@@H]1[C@@H](O)O[C@@H](CO)[C@H](O)[C@H]1O (nonaromatic ring conformer: 39.33236186872171 kcal/mol)

>  <Name>
24847493

>  <RI>
3.62712e+07

>  <Rbt.Current_Directory>
/home/edward/Documentos/Virtual_Screening/rDock/3

>  <Rbt.Executable>
rbdock ($Id: //depot/dev/client3/rdock/2013.1/src/exe/rbdock.cxx#4 $)

>  <Rbt.Library>
libRbt.so (2013.1, Build901 2013/11/27)

>  <Rbt.Parameter_File>
/home/edward/anaconda3/envs/MD/share/rdock-2013.1-1/data/scripts/dock.prm

>  <Rbt.Receptor>
parameters.prm

>  <SCORE>
-15.5846

>  <SCORE.INTER>
-17.0419

>  <SCORE.INTER.CONST>
1

>  <SCORE.INTER.POLAR>
-3.9272

>  <SCORE.INTER.REPUL>
0

>  <SCORE.INTER.ROT>
5

>  <SCORE.INTER.VDW>
-14.0894

>  <SCORE.INTER.norm>
-0.852096

>  <SCORE.INTRA>
-1.79862

>  <SCORE.INTRA.DIHEDRAL>
-2.45428

>  <SCORE.INTRA.DIHEDRAL.0>
5.75224

>  <SCORE.INTRA.POLAR>
-0.0446689

>  <SCORE.INTRA.POLAR.0>
-0.00637295

>  <SCORE.INTRA.REPUL>
0.0180056

>  <SCORE.INTRA.REPUL.0>
0

>  <SCORE.INTRA.VDW>
-0.509635

>  <SCORE.INTRA.VDW.0>
-2.16536

>  <SCORE.INTRA.norm>
-0.0899312

>  <SCORE.RESTR>
0

>  <SCORE.RESTR.CAVITY>
0

>  <SCORE.RESTR.norm>
0

>  <SCORE.SYSTEM>
3.25591

>  <SCORE.SYSTEM.CONST>
0

>  <SCORE.SYSTEM.DIHEDRAL>
4.91118

>  <SCORE.SYSTEM.VDW>
0.800318

>  <SCORE.SYSTEM.norm>
0.162795

>  <SCORE.heavy>
20

>  <SCORE.norm>
-0.779232

>  <SMILES>
O=NN(CCCl)C(=O)N[C@@H]1[C@@H](O)O[C@@H](CO)[C@H](O)[C@H]1O

>  <UniqueID>
105

$$$$
24779679
  rDOCK(R)          3D
libRbt.so/2013.1/901 2013/11/27
 26 26  0  0  0  0  0  0  0  0999 V2000
   84.2286   14.1027  -97.7072 H   0  0  0  0  0  0
   84.3027   14.3803  -98.6784 O   0  0  0  0  0  0
   84.5274   13.4408  -99.6836 C   0  0  0  0  0  0
   84.5660   13.7985 -100.9325 N   0  0  0  0  0  0
   84.4355   15.1756 -101.4199 C   0  0  0  0  0  0
   85.8237   15.8398 -101.5381 C   0  0  0  0  0  0
   86.4782   15.8446 -100.2696 O   0  0  0  0  0  0
   87.7734   16.3353 -100.0673 C   0  0  0  0  0  0
   88.2884   16.3309  -98.9153 O   0  0  0  0  0  0
   88.5137   16.8314 -101.1879 N   0  0  0  0  0  0
   88.0846   16.7602 -102.1378 H   0  0  0  0  0  0
   89.8783   17.3408 -101.0706 C   0  0  0  0  0  0
   89.9267   18.5245 -100.0999 C   0  0  0  0  0  0
   91.3638   18.9655  -99.8394 C   0  0  0  0  0  0
   86.6410   15.1297 -102.4529 O   0  0  0  0  0  0
   86.1302   15.1619 -103.7803 C   0  0  0  0  0  0
   86.3042   16.5481 -104.4411 C   0  0  0  0  0  0
   87.6005   17.0388 -104.2209 O   0  0  0  0  0  0
   87.7026   17.8515 -104.7813 H   0  0  0  0  0  0
   84.6897   14.5837 -103.8778 C   0  0  0  0  0  0
   84.7360   13.1861 -103.7315 O   0  0  0  0  0  0
   84.9939   13.0005 -102.7906 H   0  0  0  0  0  0
   83.7538   15.1656 -102.8003 C   0  0  0  0  0  0
   83.3676   16.4673 -103.1625 O   0  0  0  0  0  0
   82.7674   16.8015 -102.4456 H   0  0  0  0  0  0
   84.6818   11.9974  -99.3287 C   0  0  0  0  0  0
  1  2  1  0  0  0
  2  3  1  0  0  0
  3  4  2  0  0  0
  3 26  1  0  0  0
  4  5  1  0  0  0
  5  6  1  0  0  0
  6  7  1  0  0  0
  6 15  1  0  0  0
  7  8  1  0  0  0
  8  9  2  0  0  0
  8 10  1  0  0  0
 10 11  1  0  0  0
 10 12  1  0  0  0
 12 13  1  0  0  0
 13 14  1  0  0  0
 15 16  1  0  0  0
 16 17  1  0  0  0
 16 20  1  0  0  0
 17 18  1  0  0  0
 18 19  1  0  0  0
 20 21  1  0  0  0
 20 23  1  0  0  0
 21 22  1  0  0  0
 23 24  1  0  0  0
 23  5  1  0  0  0
 24 25  1  0  0  0
M  END
>  <CHROM.0>
-177.18787081,151.57886424,-69.54379096

>  <CHROM.1>
177.12878002,91.32645749,177.54536998,178.85739675,-59.39919663,173.38183475
45.92675840,171.16002777,68.67998074,-57.42011042,86.37356054,15.63413491
-101.50305203,3.10210962,-0.62966461,-1.27778708

>  <Energy>
34.14668361648808

>  <Genealogy>
CCCNC(=O)O[C@H]1O[C@H](CO)[C@@H](O)[C@H](O)[C@H]1N=C(C)O (tautomer)
CCCNC(=O)O[C@H]1O[C@H](CO)[C@@H](O)[C@H](O)[C@H]1/N=C(/C)O (cis-trans isomerization)
CCCNC(=O)O[C@H]1O[C@H](CO)[C@@H](O)[C@H](O)[C@H]1/N=C(/C)O (3D coordinates assigned)
CCCNC(=O)O[C@H]1O[C@H](CO)[C@@H](O)[C@H](O)[C@H]1/N=C(/C)O (nonaromatic ring conformer: 34.14668361648808 kcal/mol)

>  <Name>
24779679

>  <RI>
3.62712e+07

>  <Rbt.Current_Directory>
/home/edward/Documentos/Virtual_Screening/rDock/3

>  <Rbt.Executable>
rbdock ($Id: //depot/dev/client3/rdock/2013.1/src/exe/rbdock.cxx#4 $)

>  <Rbt.Library>
libRbt.so (2013.1, Build901 2013/11/27)

>  <Rbt.Parameter_File>
/home/edward/anaconda3/envs/MD/share/rdock-2013.1-1/data/scripts/dock.prm

>  <Rbt.Receptor>
parameters.prm

>  <SCORE>
-18.3331

>  <SCORE.INTER>
-10.2542

>  <SCORE.INTER.CONST>
1

>  <SCORE.INTER.POLAR>
-1.54974

>  <SCORE.INTER.REPUL>
0.0147586

>  <SCORE.INTER.ROT>
6

>  <SCORE.INTER.VDW>
-16.4588

>  <SCORE.INTER.norm>
-0.488294

>  <SCORE.INTRA>
-9.84734

>  <SCORE.INTRA.DIHEDRAL>
-7.67443

>  <SCORE.INTRA.DIHEDRAL.0>
11.9301

>  <SCORE.INTRA.POLAR>
-1.8834

>  <SCORE.INTRA.POLAR.0>
0

>  <SCORE.INTRA.REPUL>
-0.0505758

>  <SCORE.INTRA.REPUL.0>
0.0505758

>  <SCORE.INTRA.VDW>
0.646299

>  <SCORE.INTRA.VDW.0>
-3.31554

>  <SCORE.INTRA.norm>
-0.468921

>  <SCORE.RESTR>
0

>  <SCORE.RESTR.CAVITY>
0

>  <SCORE.RESTR.norm>
0

>  <SCORE.SYSTEM>
1.76838

>  <SCORE.SYSTEM.CONST>
0

>  <SCORE.SYSTEM.DIHEDRAL>
3.6343

>  <SCORE.SYSTEM.VDW>
-0.048767

>  <SCORE.SYSTEM.norm>
0.0842088

>  <SCORE.heavy>
21

>  <SCORE.norm>
-0.873006

>  <SMILES>
CCCNC(=O)O[C@H]1O[C@H](CO)[C@@H](O)[C@H](O)[C@H]1/N=C(/C)O

>  <UniqueID>
108

$$$$
22833605
  rDOCK(R)          3D
libRbt.so/2013.1/901 2013/11/27
 23 23  0  0  0  0  0  0  0  0999 V2000
   90.4891   20.4772 -103.1161 C   0  0  0  0  0  0
   89.8499   19.2413 -102.4794 C   0  0  0  0  0  0
   90.3727   18.0630 -103.0704 O   0  0  0  0  0  0
   89.9458   17.8936 -104.4168 C   0  0  0  0  0  0
   88.4726   17.4301 -104.4474 C   0  0  0  0  0  0
   87.6669   18.3155 -103.7124 O   0  0  0  0  0  0
   88.3558   16.0022 -103.8629 C   0  0  0  0  0  0
   86.9019   15.5092 -103.9190 C   0  0  0  0  0  0
   86.5061   15.3019 -105.2481 O   0  0  0  0  0  0
   89.1620   15.1001 -104.6026 O   0  0  0  0  0  0
   90.5356   15.4301 -104.4746 C   0  0  0  0  0  0
   91.3052   14.4423 -105.1089 O   0  0  0  0  0  0
   90.8233   16.8196 -105.0992 C   0  0  0  0  0  0
   92.2494   17.1605 -105.0038 N   0  3  0  0  0  0
   90.1683   19.2161 -101.0149 C   0  0  0  0  0  0
   89.2455   19.0893 -100.1672 O   0  0  0  0  0  0
   91.4798   19.3729 -100.5822 O   0  5  0  0  0  0
   87.6986   19.1888 -104.1837 H   0  0  0  0  0  0
   86.9746   14.4840 -105.5601 H   0  0  0  0  0  0
   91.3078   13.6467 -104.5145 H   0  0  0  0  0  0
   92.5053   17.8348 -105.7608 H   0  0  0  0  0  0
   92.4430   17.6220 -104.0858 H   0  0  0  0  0  0
   92.8450   16.3056 -105.0950 H   0  0  0  0  0  0
  1  2  1  0  0  0
  2  3  1  0  0  0
  2 15  1  0  0  0
  3  4  1  0  0  0
  4  5  1  0  0  0
  5  6  1  0  0  0
  5  7  1  0  0  0
  6 18  1  0  0  0
  7  8  1  0  0  0
  7 10  1  0  0  0
  8  9  1  0  0  0
  9 19  1  0  0  0
 10 11  1  0  0  0
 11 12  1  0  0  0
 11 13  1  0  0  0
 12 20  1  0  0  0
 13 14  1  0  0  0
 13  4  1  0  0  0
 14 21  1  0  0  0
 14 22  1  0  0  0
 14 23  1  0  0  0
 15 16  2  0  0  0
 15 17  1  0  0  0
M  END
>  <CHROM.0>
177.31556919,152.18920801,-66.30732872

>  <CHROM.1>
-69.49887239,127.88416742,-75.03350187,64.61762799,68.31081076,72.44617835
-75.50392049,-82.64041092,89.62896741,17.31398789,-103.56635066,-1.27805046
-0.11385821,-2.41929208

>  <Energy>
31.401402642261775

>  <Genealogy>
C[C@@H](O[C@@H]1[C@H](O)[C@@H](CO)O[C@@H](O)[C@@H]1[NH3+])C(=O)[O-] (protonated)
C[C@@H](O[C@@H]1[C@H](O)[C@@H](CO)O[C@@H](O)[C@@H]1[NH3+])C(=O)[O-] (3D coordinates assigned)
C[C@@H](O[C@@H]1[C@H](O)[C@@H](CO)O[C@@H](O)[C@@H]1[NH3+])C(=O)[O-] (nonaromatic ring conformer: 31.401402642261775 kcal/mol)

>  <Name>
22833605

>  <RI>
3.62712e+07

>  <Rbt.Current_Directory>
/home/edward/Documentos/Virtual_Screening/rDock/3

>  <Rbt.Executable>
rbdock ($Id: //depot/dev/client3/rdock/2013.1/src/exe/rbdock.cxx#4 $)

>  <Rbt.Library>
libRbt.so (2013.1, Build901 2013/11/27)

>  <Rbt.Parameter_File>
/home/edward/anaconda3/envs/MD/share/rdock-2013.1-1/data/scripts/dock.prm

>  <Rbt.Receptor>
parameters.prm

>  <SCORE>
-19.7366

>  <SCORE.INTER>
-20.2438

>  <SCORE.INTER.CONST>
1

>  <SCORE.INTER.POLAR>
-4.85689

>  <SCORE.INTER.REPUL>
0.359703

>  <SCORE.INTER.ROT>
4

>  <SCORE.INTER.VDW>
-14.9289

>  <SCORE.INTER.norm>
-1.19081

>  <SCORE.INTRA>
-1.2542

>  <SCORE.INTRA.DIHEDRAL>
-7.1779

>  <SCORE.INTRA.DIHEDRAL.0>
13.146

>  <SCORE.INTRA.POLAR>
-0.0861785

>  <SCORE.INTRA.POLAR.0>
0

>  <SCORE.INTRA.REPUL>
0

>  <SCORE.INTRA.REPUL.0>
0

>  <SCORE.INTRA.VDW>
2.62775

>  <SCORE.INTRA.VDW.0>
-2.42186

>  <SCORE.INTRA.norm>
-0.0737768

>  <SCORE.RESTR>
0

>  <SCORE.RESTR.CAVITY>
0

>  <SCORE.RESTR.norm>
0

>  <SCORE.SYSTEM>
1.7614

>  <SCORE.SYSTEM.CONST>
0

>  <SCORE.SYSTEM.DIHEDRAL>
3.53302

>  <SCORE.SYSTEM.VDW>
-0.00510884

>  <SCORE.SYSTEM.norm>
0.103612

>  <SCORE.heavy>
17

>  <SCORE.norm>
-1.16098

>  <SMILES>
C[C@@H](O[C@@H]1[C@H](O)[C@@H](CO)O[C@@H](O)[C@@H]1[NH3+])C(=O)[O-]

>  <UniqueID>
111

$$$$
16738680
  rDOCK(R)          3D
libRbt.so/2013.1/901 2013/11/27
 24 24  0  0  0  0  0  0  0  0999 V2000
   91.1703   13.3410 -104.8420 H   0  0  0  0  0  0
   90.2222   13.4133 -104.4929 O   0  0  0  0  0  0
   89.6150   14.6478 -104.2770 C   0  0  0  0  0  0
   88.3922   14.6643 -103.8300 N   0  0  0  0  0  0
   87.5741   15.8484 -103.5479 C   0  0  0  0  0  0
   86.8635   16.3225 -104.8328 C   0  0  0  0  0  0
   86.1492   15.2686 -105.4303 O   0  0  0  0  0  0
   86.7829   14.5084 -105.5055 H   0  0  0  0  0  0
   86.0192   17.4336 -104.5717 O   0  0  0  0  0  0
   84.9857   17.1038 -103.6555 C   0  0  0  0  0  0
   84.0643   18.3242 -103.5089 C   0  0  0  0  0  0
   83.5305   18.6866 -104.7539 O   0  0  0  0  0  0
   82.9692   19.4907 -104.5996 H   0  0  0  0  0  0
   85.5764   16.7002 -102.2859 C   0  0  0  0  0  0
   84.5369   16.3402 -101.4113 O   0  0  0  0  0  0
   84.0593   15.5773 -101.8296 H   0  0  0  0  0  0
   86.5378   15.5119 -102.4609 C   0  0  0  0  0  0
   87.2056   15.2860 -101.2271 O   0  0  0  0  0  0
   87.7174   13.9674 -101.1243 C   0  0  0  0  0  0
   88.7050   13.9248  -99.9973 C   0  0  0  0  0  0
   88.4222   14.4386  -98.8824 O   0  0  0  0  0  0
   89.9305   13.2934 -100.1700 O   0  5  0  0  0  0
   86.5795   12.9807 -100.8489 C   0  0  0  0  0  0
   90.3942   15.9091 -104.5349 C   0  0  0  0  0  0
  1  2  1  0  0  0
  2  3  1  0  0  0
  3  4  2  0  0  0
  3 24  1  0  0  0
  4  5  1  0  0  0
  5  6  1  0  0  0
  6  7  1  0  0  0
  6  9  1  0  0  0
  7  8  1  0  0  0
  9 10  1  0  0  0
 10 11  1  0  0  0
 10 14  1  0  0  0
 11 12  1  0  0  0
 12 13  1  0  0  0
 14 15  1  0  0  0
 14 17  1  0  0  0
 15 16  1  0  0  0
 17 18  1  0  0  0
 17  5  1  0  0  0
 18 19  1  0  0  0
 19 20  1  0  0  0
 19 23  1  0  0  0
 20 21  2  0  0  0
 20 22  1  0  0  0
M  END
>  <CHROM.0>
-176.84658884,154.27048959,-69.86542725

>  <CHROM.1>
179.82613181,85.68791746,-50.73506881,58.47960044,-178.40039486,59.73544201
-82.45630491,164.72678328,47.03436275,87.12454065,15.50844469,-102.80639914
-0.64691919,0.53084332,-1.22777208

>  <Energy>
35.189865948684215

>  <Genealogy>
CC(O)=N[C@H]1C(O)O[C@H](CO)[C@@H](O)[C@@H]1O[C@H](C)C(=O)[O-] (tautomer)
CC(O)=N[C@H]1[C@@H](O)O[C@H](CO)[C@@H](O)[C@@H]1O[C@H](C)C(=O)[O-] (chirality)
C/C(O)=N\[C@H]1[C@@H](O)O[C@H](CO)[C@@H](O)[C@@H]1O[C@H](C)C(=O)[O-] (cis-trans isomerization)
C/C(O)=N\[C@H]1[C@@H](O)O[C@H](CO)[C@@H](O)[C@@H]1O[C@H](C)C(=O)[O-] (3D coordinates assigned)
C/C(O)=N\[C@H]1[C@@H](O)O[C@H](CO)[C@@H](O)[C@@H]1O[C@H](C)C(=O)[O-] (nonaromatic ring conformer: 35.189865948684215 kcal/mol)

>  <Name>
16738680

>  <RI>
3.62712e+07

>  <Rbt.Current_Directory>
/home/edward/Documentos/Virtual_Screening/rDock/3

>  <Rbt.Executable>
rbdock ($Id: //depot/dev/client3/rdock/2013.1/src/exe/rbdock.cxx#4 $)

>  <Rbt.Library>
libRbt.so (2013.1, Build901 2013/11/27)

>  <Rbt.Parameter_File>
/home/edward/anaconda3/envs/MD/share/rdock-2013.1-1/data/scripts/dock.prm

>  <Rbt.Receptor>
parameters.prm

>  <SCORE>
-16.4536

>  <SCORE.INTER>
-14.8232

>  <SCORE.INTER.CONST>
1

>  <SCORE.INTER.POLAR>
-2.91909

>  <SCORE.INTER.REPUL>
0

>  <SCORE.INTER.ROT>
5

>  <SCORE.INTER.VDW>
-15.2983

>  <SCORE.INTER.norm>
-0.741161

>  <SCORE.INTRA>
-3.40433

>  <SCORE.INTRA.DIHEDRAL>
-9.00433

>  <SCORE.INTRA.DIHEDRAL.0>
15.3145

>  <SCORE.INTRA.POLAR>
-0.0640123

>  <SCORE.INTRA.POLAR.0>
0

>  <SCORE.INTRA.REPUL>
0

>  <SCORE.INTRA.REPUL.0>
0

>  <SCORE.INTRA.VDW>
1.31547

>  <SCORE.INTRA.VDW.0>
-2.69849

>  <SCORE.INTRA.norm>
-0.170217

>  <SCORE.RESTR>
0

>  <SCORE.RESTR.CAVITY>
0

>  <SCORE.RESTR.norm>
0

>  <SCORE.SYSTEM>
1.77401

>  <SCORE.SYSTEM.CONST>
0

>  <SCORE.SYSTEM.DIHEDRAL>
3.14543

>  <SCORE.SYSTEM.VDW>
0.201291

>  <SCORE.SYSTEM.norm>
0.0887003

>  <SCORE.heavy>
20

>  <SCORE.norm>
-0.822678

>  <SMILES>
C/C(O)=N\[C@H]1[C@@H](O)O[C@H](CO)[C@@H](O)[C@@H]1O[C@H](C)C(=O)[O-]

>  <UniqueID>
113

$$$$
12917651
  rDOCK(R)          3D
libRbt.so/2013.1/901 2013/11/27
 24 24  0  0  0  0  0  0  0  0999 V2000
   83.6255   14.8874 -102.2636 C   0  0  0  0  0  0
   85.0420   14.6045 -102.6469 C   0  0  0  0  0  0
   85.5213   13.2953 -102.6114 O   0  0  0  0  0  0
   85.8232   15.5888 -102.9776 N   0  0  0  0  0  0
   87.2294   15.4476 -103.3631 C   0  0  0  0  0  0
   87.4815   16.0959 -104.7423 C   0  0  0  0  0  0
   86.7343   15.4279 -105.7251 O   0  0  0  0  0  0
   88.8500   15.9830 -105.0857 O   0  0  0  0  0  0
   89.6583   16.7435 -104.2033 C   0  0  0  0  0  0
   91.0972   16.7104 -104.7409 C   0  0  0  0  0  0
   91.6320   15.4150 -104.6592 O   0  0  0  0  0  0
   89.5740   16.1633 -102.7705 C   0  0  0  0  0  0
   90.3295   16.9563 -101.8907 O   0  0  0  0  0  0
   88.1053   16.1341 -102.3026 C   0  0  0  0  0  0
   88.0107   15.3967 -101.0912 O   0  0  0  0  0  0
   88.4573   16.1469  -99.9749 C   0  0  0  0  0  0
   88.1868   15.3422  -98.7063 C   0  0  0  0  0  0
   87.7235   17.4569  -99.9073 C   0  0  0  0  0  0
   88.3641   18.5404  -99.8789 O   0  0  0  0  0  0
   86.3346   17.4793  -99.8660 O   0  5  0  0  0  0
   86.4942   13.0882 -102.8025 H   0  0  0  0  0  0
   86.8587   14.4536 -105.5787 H   0  0  0  0  0  0
   92.5642   15.4609 -104.9972 H   0  0  0  0  0  0
   91.2570   16.9777 -102.2442 H   0  0  0  0  0  0
  1  2  1  0  0  0
  2  3  1  0  0  0
  2  4  2  0  0  0
  3 21  1  0  0  0
  4  5  1  0  0  0
  5  6  1  0  0  0
  6  7  1  0  0  0
  6  8  1  0  0  0
  7 22  1  0  0  0
  8  9  1  0  0  0
  9 10  1  0  0  0
  9 12  1  0  0  0
 10 11  1  0  0  0
 11 23  1  0  0  0
 12 13  1  0  0  0
 12 14  1  0  0  0
 13 24  1  0  0  0
 14 15  1  0  0  0
 14  5  1  0  0  0
 15 16  1  0  0  0
 16 17  1  0  0  0
 16 18  1  0  0  0
 18 19  2  0  0  0
 18 20  1  0  0  0
M  END
>  <CHROM.0>
-66.88427013,157.23267799,-59.72185688

>  <CHROM.1>
-175.57300724,125.17225335,-46.06543453,-66.83950305,-178.61217098,-57.22147178
-162.91524039,174.13588607,-124.61392782,87.92268636,15.97159195,-102.49123254
2.47899327,0.33806366,1.28101974

>  <Energy>
32.90985044117413

>  <Genealogy>
CC(=O)N[C@H]1[C@H](O)O[C@H](CO)[C@@H](O)[C@@H]1O[C@H](C)C(=O)[O-] (protonated)
CC(O)=N[C@H]1[C@H](O)O[C@H](CO)[C@@H](O)[C@@H]1O[C@H](C)C(=O)[O-] (tautomer)
CC(O)=N[C@H]1[C@H](O)O[C@H](CO)[C@@H](O)[C@@H]1O[C@H](C)C(=O)[O-] (3D coordinates assigned)
CC(O)=N[C@H]1[C@H](O)O[C@H](CO)[C@@H](O)[C@@H]1O[C@H](C)C(=O)[O-] (nonaromatic ring conformer: 32.90985044117413 kcal/mol)

>  <Name>
12917651

>  <RI>
3.62712e+07

>  <Rbt.Current_Directory>
/home/edward/Documentos/Virtual_Screening/rDock/3

>  <Rbt.Executable>
rbdock ($Id: //depot/dev/client3/rdock/2013.1/src/exe/rbdock.cxx#4 $)

>  <Rbt.Library>
libRbt.so (2013.1, Build901 2013/11/27)

>  <Rbt.Parameter_File>
/home/edward/anaconda3/envs/MD/share/rdock-2013.1-1/data/scripts/dock.prm

>  <Rbt.Receptor>
parameters.prm

>  <SCORE>
-19.3624

>  <SCORE.INTER>
-15.4525

>  <SCORE.INTER.CONST>
1

>  <SCORE.INTER.POLAR>
-4.47024

>  <SCORE.INTER.REPUL>
0.11417

>  <SCORE.INTER.ROT>
5

>  <SCORE.INTER.VDW>
-11.2245

>  <SCORE.INTER.norm>
-0.772624

>  <SCORE.INTRA>
-7.74409

>  <SCORE.INTRA.DIHEDRAL>
-20.3735

>  <SCORE.INTRA.DIHEDRAL.0>
24.2027

>  <SCORE.INTRA.POLAR>
0

>  <SCORE.INTRA.POLAR.0>
0

>  <SCORE.INTRA.REPUL>
0

>  <SCORE.INTRA.REPUL.0>
0

>  <SCORE.INTRA.VDW>
2.44264

>  <SCORE.INTRA.VDW.0>
-3.73153

>  <SCORE.INTRA.norm>
-0.387204

>  <SCORE.RESTR>
0

>  <SCORE.RESTR.CAVITY>
0

>  <SCORE.RESTR.norm>
0

>  <SCORE.SYSTEM>
3.83416

>  <SCORE.SYSTEM.CONST>
0

>  <SCORE.SYSTEM.DIHEDRAL>
2.97559

>  <SCORE.SYSTEM.VDW>
2.34637

>  <SCORE.SYSTEM.norm>
0.191708

>  <SCORE.heavy>
20

>  <SCORE.norm>
-0.96812

>  <SMILES>
CC(O)=N[C@H]1[C@H](O)O[C@H](CO)[C@@H](O)[C@@H]1O[C@H](C)C(=O)[O-]

>  <UniqueID>
115

$$$$
12600646
  rDOCK(R)          3D
libRbt.so/2013.1/901 2013/11/27
 25 25  0  0  0  0  0  0  0  0999 V2000
   86.0433   21.5523 -101.7408 O   0  0  0  0  0  0
   87.0626   22.0798 -102.2321 N   0  0  0  0  0  0
   88.1442   21.3106 -102.6997 N   0  0  0  0  0  0
   89.3881   22.0028 -103.0454 C   0  0  0  0  0  0
   89.6238   21.9937 -104.5566 C   0  0  0  0  0  0
   88.2790   22.7784 -105.4263 Cl  0  0  0  0  0  0
   88.0692   19.8732 -102.7745 C   0  0  0  0  0  0
   89.1133   19.1836 -102.6133 O   0  0  0  0  0  0
   86.8259   19.2227 -103.0785 N   0  0  0  0  0  0
   86.6469   17.7720 -102.9425 C   0  0  0  0  0  0
   85.3123   17.4542 -102.2160 C   0  0  0  0  0  0
   84.2049   18.1779 -102.7049 O   0  0  0  0  0  0
   85.0411   16.0621 -102.1720 O   0  0  0  0  0  0
   84.9503   15.4889 -103.4666 C   0  0  0  0  0  0
   84.5253   14.0227 -103.2974 C   0  0  0  0  0  0
   84.3685   13.4085 -104.5470 O   0  0  0  0  0  0
   86.3055   15.5988 -104.2048 C   0  0  0  0  0  0
   86.1988   15.0419 -105.4903 O   0  0  0  0  0  0
   86.7084   17.0806 -104.3220 C   0  0  0  0  0  0
   87.9912   17.2087 -104.8854 O   0  0  0  0  0  0
   86.0486   19.7998 -103.4719 H   0  0  0  0  0  0
   83.4474   18.0728 -102.0763 H   0  0  0  0  0  0
   83.5566   13.8109 -104.9519 H   0  0  0  0  0  0
   86.0809   14.0633 -105.3716 H   0  0  0  0  0  0
   87.9726   16.7846 -105.7831 H   0  0  0  0  0  0
  1  2  2  0  0  0
  2  3  1  0  0  0
  3  4  1  0  0  0
  3  7  1  0  0  0
  4  5  1  0  0  0
  5  6  1  0  0  0
  7  8  2  0  0  0
  7  9  1  0  0  0
  9 10  1  0  0  0
  9 21  1  0  0  0
 10 11  1  0  0  0
 11 12  1  0  0  0
 11 13  1  0  0  0
 12 22  1  0  0  0
 13 14  1  0  0  0
 14 15  1  0  0  0
 14 17  1  0  0  0
 15 16  1  0  0  0
 16 23  1  0  0  0
 17 18  1  0  0  0
 17 19  1  0  0  0
 18 24  1  0  0  0
 19 20  1  0  0  0
 19 10  1  0  0  0
 20 25  1  0  0  0
M  END
>  <CHROM.0>
-179.09898515,154.44401274,-65.84215772

>  <CHROM.1>
-169.64308281,-109.87324428,58.93194913,134.09293120,-167.82152525,177.82302378
-70.30591507,-68.44521367,-177.67201665,86.80098319,18.60428548,-103.57786619
0.91594351,0.81120931,0.51166507

>  <Energy>
36.47845084778251

>  <Genealogy>
O=NN(CCCl)C(=O)N[C@H]1[C@@H](O)O[C@H](CO)[C@@H](O)[C@@H]1O (chirality)
O=NN(CCCl)C(=O)N[C@H]1[C@@H](O)O[C@H](CO)[C@@H](O)[C@@H]1O (3D coordinates assigned)
O=NN(CCCl)C(=O)N[C@H]1[C@@H](O)O[C@H](CO)[C@@H](O)[C@@H]1O (nonaromatic ring conformer: 36.47845084778251 kcal/mol)

>  <Name>
12600646

>  <RI>
3.62712e+07

>  <Rbt.Current_Directory>
/home/edward/Documentos/Virtual_Screening/rDock/3

>  <Rbt.Executable>
rbdock ($Id: //depot/dev/client3/rdock/2013.1/src/exe/rbdock.cxx#4 $)

>  <Rbt.Library>
libRbt.so (2013.1, Build901 2013/11/27)

>  <Rbt.Parameter_File>
/home/edward/anaconda3/envs/MD/share/rdock-2013.1-1/data/scripts/dock.prm

>  <Rbt.Receptor>
parameters.prm

>  <SCORE>
-16.2016

>  <SCORE.INTER>
-15.6649

>  <SCORE.INTER.CONST>
1

>  <SCORE.INTER.POLAR>
-3.9262

>  <SCORE.INTER.REPUL>
0.125483

>  <SCORE.INTER.ROT>
5

>  <SCORE.INTER.VDW>
-13.3432

>  <SCORE.INTER.norm>
-0.783245

>  <SCORE.INTRA>
-2.27304

>  <SCORE.INTRA.DIHEDRAL>
-3.07811

>  <SCORE.INTRA.DIHEDRAL.0>
7.44397

>  <SCORE.INTRA.POLAR>
-0.297806

>  <SCORE.INTRA.POLAR.0>
0

>  <SCORE.INTRA.REPUL>
0

>  <SCORE.INTRA.REPUL.0>
0

>  <SCORE.INTRA.VDW>
0.27856

>  <SCORE.INTRA.VDW.0>
-2.51392

>  <SCORE.INTRA.norm>
-0.113652

>  <SCORE.RESTR>
0

>  <SCORE.RESTR.CAVITY>
0

>  <SCORE.RESTR.norm>
0

>  <SCORE.SYSTEM>
1.73633

>  <SCORE.SYSTEM.CONST>
0

>  <SCORE.SYSTEM.DIHEDRAL>
3.09019

>  <SCORE.SYSTEM.VDW>
0.191241

>  <SCORE.SYSTEM.norm>
0.0868167

>  <SCORE.heavy>
20

>  <SCORE.norm>
-0.81008

>  <SMILES>
O=NN(CCCl)C(=O)N[C@H]1[C@@H](O)O[C@H](CO)[C@@H](O)[C@@H]1O

>  <UniqueID>
120

$$$$
12302999
  rDOCK(R)          3D
libRbt.so/2013.1/901 2013/11/27
 19 19  0  0  0  0  0  0  0  0999 V2000
   83.7097    3.2805 -101.3548 N   0  3  0  0  0  0
   84.6981    3.8199 -100.4067 C   0  0  0  0  0  0
   83.9977    4.3553  -99.1389 C   0  0  0  0  0  0
   84.9363    4.5872  -98.1179 O   0  0  0  0  0  0
   83.2403    5.5238  -99.4210 O   0  0  0  0  0  0
   84.0621    6.5946  -99.8637 C   0  0  0  0  0  0
   83.1688    7.8385 -100.0102 C   0  0  0  0  0  0
   82.4019    8.0553  -98.8560 O   0  0  0  0  0  0
   84.7572    6.2373 -101.2019 C   0  0  0  0  0  0
   85.6403    7.2647 -101.5796 O   0  0  0  0  0  0
   85.5615    4.9389 -101.0386 C   0  0  0  0  0  0
   86.0713    4.5409 -102.2855 O   0  0  0  0  0  0
   84.1922    2.6703 -102.0541 H   0  0  0  0  0  0
   82.9823    2.7131 -100.8637 H   0  0  0  0  0  0
   83.2477    4.0565 -101.8808 H   0  0  0  0  0  0
   85.3803    3.7167  -97.9431 H   0  0  0  0  0  0
   81.6515    7.4060  -98.8862 H   0  0  0  0  0  0
   85.9723    7.0500 -102.4904 H   0  0  0  0  0  0
   85.3081    4.5460 -102.9207 H   0  0  0  0  0  0
  1  2  1  0  0  0
  1 13  1  0  0  0
  1 14  1  0  0  0
  1 15  1  0  0  0
  2  3  1  0  0  0
  3  4  1  0  0  0
  3  5  1  0  0  0
  4 16  1  0  0  0
  5  6  1  0  0  0
  6  7  1  0  0  0
  6  9  1  0  0  0
  7  8  1  0  0  0
  8 17  1  0  0  0
  9 10  1  0  0  0
  9 11  1  0  0  0
 10 18  1  0  0  0
 11 12  1  0  0  0
 11  2  1  0  0  0
 12 19  1  0  0  0
M  END
>  <CHROM.0>
179.09565763,154.01692417,-65.31751442

>  <CHROM.1>
-162.79236020,-59.11977142,50.31659643,-77.59673888,-172.91334063,72.59543138
84.34248282,5.58124004,-100.28778570,0.64474085,-0.93826175,2.86377254

>  <Energy>
25.71619557247595

>  <Genealogy>
[NH3+][C@@H]1[C@@H](O)O[C@H](CO)[C@@H](O)[C@@H]1O (protonated)
[NH3+][C@@H]1[C@@H](O)O[C@H](CO)[C@@H](O)[C@@H]1O (3D coordinates assigned)
[NH3+][C@@H]1[C@@H](O)O[C@H](CO)[C@@H](O)[C@@H]1O (nonaromatic ring conformer: 25.71619557247595 kcal/mol)

>  <Name>
12302999

>  <RI>
3.62712e+07

>  <Rbt.Current_Directory>
/home/edward/Documentos/Virtual_Screening/rDock/3

>  <Rbt.Executable>
rbdock ($Id: //depot/dev/client3/rdock/2013.1/src/exe/rbdock.cxx#4 $)

>  <Rbt.Library>
libRbt.so (2013.1, Build901 2013/11/27)

>  <Rbt.Parameter_File>
/home/edward/anaconda3/envs/MD/share/rdock-2013.1-1/data/scripts/dock.prm

>  <Rbt.Receptor>
parameters.prm

>  <SCORE>
-20.1331

>  <SCORE.INTER>
-20.3902

>  <SCORE.INTER.CONST>
1

>  <SCORE.INTER.POLAR>
-5.20191

>  <SCORE.INTER.REPUL>
0.174322

>  <SCORE.INTER.ROT>
1

>  <SCORE.INTER.VDW>
-9.97536

>  <SCORE.INTER.norm>
-1.69919

>  <SCORE.INTRA>
-1.48007

>  <SCORE.INTRA.DIHEDRAL>
-4.2864

>  <SCORE.INTRA.DIHEDRAL.0>
7.88416

>  <SCORE.INTRA.POLAR>
0

>  <SCORE.INTRA.POLAR.0>
0

>  <SCORE.INTRA.REPUL>
0

>  <SCORE.INTRA.REPUL.0>
0

>  <SCORE.INTRA.VDW>
0.663134

>  <SCORE.INTRA.VDW.0>
-1.27835

>  <SCORE.INTRA.norm>
-0.123339

>  <SCORE.RESTR>
0

>  <SCORE.RESTR.CAVITY>
0

>  <SCORE.RESTR.norm>
0

>  <SCORE.SYSTEM>
1.73715

>  <SCORE.SYSTEM.CONST>
0

>  <SCORE.SYSTEM.DIHEDRAL>
3.17623

>  <SCORE.SYSTEM.VDW>
0.149036

>  <SCORE.SYSTEM.norm>
0.144763

>  <SCORE.heavy>
12

>  <SCORE.norm>
-1.67776

>  <SMILES>
[NH3+][C@@H]1[C@@H](O)O[C@H](CO)[C@@H](O)[C@@H]1O

>  <UniqueID>
122

$$$$
11908605
  rDOCK(R)          3D
libRbt.so/2013.1/901 2013/11/27
 20 20  0  0  0  0  0  0  0  0999 V2000
   82.8718   26.3769 -102.0712 H   0  0  0  0  0  0
   83.3028   27.0045 -102.7400 O   0  0  0  0  0  0
   84.6182   26.8197 -103.1556 C   0  0  0  0  0  0
   85.2659   25.7614 -102.7559 N   0  0  0  0  0  0
   86.6559   25.4139 -103.0757 C   0  0  0  0  0  0
   87.4398   25.0996 -101.7860 C   0  0  0  0  0  0
   88.8121   25.0405 -102.0904 O   0  0  0  0  0  0
   89.2916   24.8356 -101.2454 H   0  0  0  0  0  0
   86.9594   23.7614 -101.1795 C   0  0  0  0  0  0
   87.7583   23.4014 -100.0784 O   0  0  0  0  0  0
   87.6560   24.1031  -99.3840 H   0  0  0  0  0  0
   86.9158   22.6483 -102.2638 C   0  0  0  0  0  0
   86.3240   21.3442 -101.7083 C   0  0  0  0  0  0
   86.4683   20.2964 -102.6313 O   0  0  0  0  0  0
   85.9481   20.5442 -103.4395 H   0  0  0  0  0  0
   86.1052   23.0620 -103.3518 O   0  0  0  0  0  0
   86.6756   24.1846 -104.0035 C   0  0  0  0  0  0
   85.9329   24.4710 -105.1576 O   0  0  0  0  0  0
   85.9442   23.6465 -105.7105 H   0  0  0  0  0  0
   85.2258   27.8386 -104.0754 C   0  0  0  0  0  0
  1  2  1  0  0  0
  2  3  1  0  0  0
  3  4  2  0  0  0
  3 20  1  0  0  0
  4  5  1  0  0  0
  5  6  1  0  0  0
  6  7  1  0  0  0
  6  9  1  0  0  0
  7  8  1  0  0  0
  9 10  1  0  0  0
  9 12  1  0  0  0
 10 11  1  0  0  0
 12 13  1  0  0  0
 12 16  1  0  0  0
 13 14  1  0  0  0
 14 15  1  0  0  0
 16 17  1  0  0  0
 17 18  1  0  0  0
 17  5  1  0  0  0
 18 19  1  0  0  0
M  END
>  <CHROM.0>
-179.97662931,154.64845237,-68.16686046

>  <CHROM.1>
5.45339322,128.39119003,-179.88861261,62.29519545,-171.40432951,-62.68532292
-178.04921398,86.29978197,24.36768996,-102.67035270,2.18782793,-0.80598298
0.15448953

>  <Energy>
28.45710391518813

>  <Genealogy>
CC(O)=N[C@H]1[C@H](O)[C@H](O)[C@@H](CO)O[C@H]1O (tautomer)
C/C(O)=N/[C@H]1[C@H](O)[C@H](O)[C@@H](CO)O[C@H]1O (cis-trans isomerization)
C/C(O)=N/[C@H]1[C@H](O)[C@H](O)[C@@H](CO)O[C@H]1O (3D coordinates assigned)
C/C(O)=N/[C@H]1[C@H](O)[C@H](O)[C@@H](CO)O[C@H]1O (nonaromatic ring conformer: 28.45710391518813 kcal/mol)

>  <Name>
11908605

>  <RI>
3.62712e+07

>  <Rbt.Current_Directory>
/home/edward/Documentos/Virtual_Screening/rDock/3

>  <Rbt.Executable>
rbdock ($Id: //depot/dev/client3/rdock/2013.1/src/exe/rbdock.cxx#4 $)

>  <Rbt.Library>
libRbt.so (2013.1, Build901 2013/11/27)

>  <Rbt.Parameter_File>
/home/edward/anaconda3/envs/MD/share/rdock-2013.1-1/data/scripts/dock.prm

>  <Rbt.Receptor>
parameters.prm

>  <SCORE>
-18.1323

>  <SCORE.INTER>
-14.0792

>  <SCORE.INTER.CONST>
1

>  <SCORE.INTER.POLAR>
-3.35908

>  <SCORE.INTER.REPUL>
0.0830843

>  <SCORE.INTER.ROT>
2

>  <SCORE.INTER.VDW>
-10.4737

>  <SCORE.INTER.norm>
-0.938614

>  <SCORE.INTRA>
-5.80686

>  <SCORE.INTRA.DIHEDRAL>
-11.8238

>  <SCORE.INTRA.DIHEDRAL.0>
12.5179

>  <SCORE.INTRA.POLAR>
0

>  <SCORE.INTRA.POLAR.0>
0

>  <SCORE.INTRA.REPUL>
0

>  <SCORE.INTRA.REPUL.0>
0

>  <SCORE.INTRA.VDW>
0.105051

>  <SCORE.INTRA.VDW.0>
-1.67316

>  <SCORE.INTRA.norm>
-0.387124

>  <SCORE.RESTR>
0

>  <SCORE.RESTR.CAVITY>
0

>  <SCORE.RESTR.norm>
0

>  <SCORE.SYSTEM>
1.75376

>  <SCORE.SYSTEM.CONST>
0

>  <SCORE.SYSTEM.DIHEDRAL>
3.02828

>  <SCORE.SYSTEM.VDW>
0.239615

>  <SCORE.SYSTEM.norm>
0.116917

>  <SCORE.heavy>
15

>  <SCORE.norm>
-1.20882

>  <SMILES>
C/C(O)=N/[C@H]1[C@H](O)[C@H](O)[C@@H](CO)O[C@H]1O

>  <UniqueID>
126

$$$$
11096158
  rDOCK(R)          3D
libRbt.so/2013.1/901 2013/11/27
 20 20  0  0  0  0  0  0  0  0999 V2000
   85.6579    5.1095 -102.6027 H   0  0  0  0  0  0
   86.5771    5.2591 -102.2045 O   0  0  0  0  0  0
   86.8154    6.3024 -101.3101 C   0  0  0  0  0  0
   85.8600    7.1132 -100.9662 N   0  0  0  0  0  0
   84.4695    7.0100 -101.4223 C   0  0  0  0  0  0
   84.0636    8.3263 -102.1178 C   0  0  0  0  0  0
   84.9391    8.5899 -103.1822 O   0  0  0  0  0  0
   84.9450    7.7809 -103.7583 H   0  0  0  0  0  0
   84.1316    9.4085 -101.2049 O   0  0  0  0  0  0
   83.1601    9.2635 -100.1807 C   0  0  0  0  0  0
   83.1656   10.5320  -99.3182 C   0  0  0  0  0  0
   82.6141   11.6082 -100.0270 O   0  0  0  0  0  0
   82.5366   12.3545  -99.3775 H   0  0  0  0  0  0
   83.4500    7.9991  -99.3284 C   0  0  0  0  0  0
   82.4817    7.8261  -98.3226 O   0  0  0  0  0  0
   81.5968    7.7464  -98.7662 H   0  0  0  0  0  0
   83.5147    6.7557 -100.2354 C   0  0  0  0  0  0
   83.9307    5.6460  -99.4827 O   0  0  0  0  0  0
   83.2451    5.5056  -98.7785 H   0  0  0  0  0  0
   88.1926    6.5198 -100.7720 C   0  0  0  0  0  0
  1  2  1  0  0  0
  2  3  1  0  0  0
  3  4  2  0  0  0
  3 20  1  0  0  0
  4  5  1  0  0  0
  5  6  1  0  0  0
  6  7  1  0  0  0
  6  9  1  0  0  0
  7  8  1  0  0  0
  9 10  1  0  0  0
 10 11  1  0  0  0
 10 14  1  0  0  0
 11 12  1  0  0  0
 12 13  1  0  0  0
 14 15  1  0  0  0
 14 17  1  0  0  0
 15 16  1  0  0  0
 17 18  1  0  0  0
 17  5  1  0  0  0
 18 19  1  0  0  0
M  END
>  <CHROM.0>
-179.60751955,154.33571399,53.22697840

>  <CHROM.1>
-0.13087076,-122.66135971,53.68415877,71.25622645,172.58978806,59.00037213
-176.38880912,84.46326245,7.89122601,-100.66978951,0.44544987,-0.75944878
2.61345527

>  <Energy>
24.971549740783612

>  <Genealogy>
CC(O)=N[C@@H]1[C@H](O)O[C@H](CO)[C@@H](O)[C@@H]1O (tautomer)
C/C(O)=N/[C@@H]1[C@H](O)O[C@H](CO)[C@@H](O)[C@@H]1O (cis-trans isomerization)
C/C(O)=N/[C@@H]1[C@H](O)O[C@H](CO)[C@@H](O)[C@@H]1O (3D coordinates assigned)
C/C(O)=N/[C@@H]1[C@H](O)O[C@H](CO)[C@@H](O)[C@@H]1O (nonaromatic ring conformer: 24.971549740783612 kcal/mol)

>  <Name>
11096158

>  <RI>
3.62712e+07

>  <Rbt.Current_Directory>
/home/edward/Documentos/Virtual_Screening/rDock/3

>  <Rbt.Executable>
rbdock ($Id: //depot/dev/client3/rdock/2013.1/src/exe/rbdock.cxx#4 $)

>  <Rbt.Library>
libRbt.so (2013.1, Build901 2013/11/27)

>  <Rbt.Parameter_File>
/home/edward/anaconda3/envs/MD/share/rdock-2013.1-1/data/scripts/dock.prm

>  <Rbt.Receptor>
parameters.prm

>  <SCORE>
-17.8183

>  <SCORE.INTER>
-19.2158

>  <SCORE.INTER.CONST>
1

>  <SCORE.INTER.POLAR>
-4.20978

>  <SCORE.INTER.REPUL>
0

>  <SCORE.INTER.ROT>
2

>  <SCORE.INTER.VDW>
-12.3025

>  <SCORE.INTER.norm>
-1.28105

>  <SCORE.INTRA>
-0.994098

>  <SCORE.INTRA.DIHEDRAL>
-2.47563

>  <SCORE.INTRA.DIHEDRAL.0>
3.51288

>  <SCORE.INTRA.POLAR>
-8.83468e-05

>  <SCORE.INTRA.POLAR.0>
0

>  <SCORE.INTRA.REPUL>
0

>  <SCORE.INTRA.REPUL.0>
0

>  <SCORE.INTRA.VDW>
0.244018

>  <SCORE.INTRA.VDW.0>
-1.54506

>  <SCORE.INTRA.norm>
-0.0662732

>  <SCORE.RESTR>
0

>  <SCORE.RESTR.CAVITY>
0

>  <SCORE.RESTR.norm>
0

>  <SCORE.SYSTEM>
2.39165

>  <SCORE.SYSTEM.CONST>
0

>  <SCORE.SYSTEM.DIHEDRAL>
3.09587

>  <SCORE.SYSTEM.VDW>
0.843716

>  <SCORE.SYSTEM.norm>
0.159443

>  <SCORE.heavy>
15

>  <SCORE.norm>
-1.18788

>  <SMILES>
C/C(O)=N/[C@@H]1[C@H](O)O[C@H](CO)[C@@H](O)[C@@H]1O

>  <UniqueID>
127

$$$$
9816401
  rDOCK(R)          3D
libRbt.so/2013.1/901 2013/11/27
 22 22  0  0  0  0  0  0  0  0999 V2000
   90.6185   19.7436 -102.5195 C   0  0  0  0  0  0
   90.1726   18.7259 -101.4718 C   0  0  0  0  0  0
   90.0533   17.4563 -102.0925 O   0  0  0  0  0  0
   88.7721   16.8779 -101.8826 C   0  0  0  0  0  0
   87.9897   16.8751 -103.2097 C   0  0  0  0  0  0
   87.6862   18.1998 -103.5696 O   0  0  0  0  0  0
   86.6845   16.0599 -103.0508 C   0  0  0  0  0  0
   85.9162   15.9959 -104.3798 C   0  0  0  0  0  0
   86.6996   15.3859 -105.3700 O   0  0  0  0  0  0
   86.9678   14.7313 -102.6374 O   0  0  0  0  0  0
   87.5909   14.6991 -101.3642 C   0  0  0  0  0  0
   86.7376   15.2374 -100.3813 O   0  0  0  0  0  0
   88.9552   15.4272 -101.3974 C   0  0  0  0  0  0
   89.5801   15.4053 -100.0724 N   0  0  0  0  0  0
   91.1769   18.6635 -100.3556 C   0  0  0  0  0  0
   91.5438   17.5527  -99.8882 O   0  0  0  0  0  0
   91.7053   19.8362  -99.8313 O   0  5  0  0  0  0
   87.4598   18.1985 -104.5362 H   0  0  0  0  0  0
   86.8016   14.4342 -105.1057 H   0  0  0  0  0  0
   85.9196   14.6754 -100.3649 H   0  0  0  0  0  0
   89.8907   14.4272  -99.8699 H   0  0  0  0  0  0
   90.4566   15.9735 -100.1125 H   0  0  0  0  0  0
  1  2  1  0  0  0
  2  3  1  0  0  0
  2 15  1  0  0  0
  3  4  1  0  0  0
  4  5  1  0  0  0
  5  6  1  0  0  0
  5  7  1  0  0  0
  6 18  1  0  0  0
  7  8  1  0  0  0
  7 10  1  0  0  0
  8  9  1  0  0  0
  9 19  1  0  0  0
 10 11  1  0  0  0
 11 12  1  0  0  0
 11 13  1  0  0  0
 12 20  1  0  0  0
 13 14  1  0  0  0
 13  4  1  0  0  0
 14 21  1  0  0  0
 14 22  1  0  0  0
 15 16  2  0  0  0
 15 17  1  0  0  0
M  END
>  <CHROM.0>
-178.01901968,157.51504103,53.03535302

>  <CHROM.1>
-125.94143882,-136.10254419,109.85124281,161.84208905,59.94330555,67.62035397
60.68477771,-167.05256077,88.74109937,16.85788340,-101.98265834,0.00672475
-0.77147034,-0.83684080

>  <Energy>
31.35027028672537

>  <Genealogy>
C[C@@H](O[C@H]1[C@H](O)[C@@H](CO)O[C@H](O)[C@@H]1N)C(=O)[O-] (protonated)
C[C@@H](O[C@H]1[C@H](O)[C@@H](CO)O[C@H](O)[C@@H]1N)C(=O)[O-] (3D coordinates assigned)
C[C@@H](O[C@H]1[C@H](O)[C@@H](CO)O[C@H](O)[C@@H]1N)C(=O)[O-] (nonaromatic ring conformer: 31.35027028672537 kcal/mol)

>  <Name>
9816401

>  <RI>
3.62712e+07

>  <Rbt.Current_Directory>
/home/edward/Documentos/Virtual_Screening/rDock/3

>  <Rbt.Executable>
rbdock ($Id: //depot/dev/client3/rdock/2013.1/src/exe/rbdock.cxx#4 $)

>  <Rbt.Library>
libRbt.so (2013.1, Build901 2013/11/27)

>  <Rbt.Parameter_File>
/home/edward/anaconda3/envs/MD/share/rdock-2013.1-1/data/scripts/dock.prm

>  <Rbt.Receptor>
parameters.prm

>  <SCORE>
-16.3089

>  <SCORE.INTER>
-14.1482

>  <SCORE.INTER.CONST>
1

>  <SCORE.INTER.POLAR>
-3.88125

>  <SCORE.INTER.REPUL>
0.0051672

>  <SCORE.INTER.ROT>
5

>  <SCORE.INTER.VDW>
-11.3778

>  <SCORE.INTER.norm>
-0.832245

>  <SCORE.INTRA>
-4.66941

>  <SCORE.INTRA.DIHEDRAL>
-1.63982

>  <SCORE.INTRA.DIHEDRAL.0>
18.4386

>  <SCORE.INTRA.POLAR>
-1.25

>  <SCORE.INTRA.POLAR.0>
0

>  <SCORE.INTRA.REPUL>
0

>  <SCORE.INTRA.REPUL.0>
0

>  <SCORE.INTRA.VDW>
0.4005

>  <SCORE.INTRA.VDW.0>
-2.37437

>  <SCORE.INTRA.norm>
-0.274671

>  <SCORE.RESTR>
0

>  <SCORE.RESTR.CAVITY>
0

>  <SCORE.RESTR.norm>
0

>  <SCORE.SYSTEM>
2.50869

>  <SCORE.SYSTEM.CONST>
0

>  <SCORE.SYSTEM.DIHEDRAL>
2.54422

>  <SCORE.SYSTEM.VDW>
1.23658

>  <SCORE.SYSTEM.norm>
0.14757

>  <SCORE.heavy>
17

>  <SCORE.norm>
-0.959346

>  <SMILES>
C[C@@H](O[C@H]1[C@H](O)[C@@H](CO)O[C@H](O)[C@@H]1N)C(=O)[O-]

>  <UniqueID>
130

$$$$
7067772
  rDOCK(R)          3D
libRbt.so/2013.1/901 2013/11/27
 24 24  0  0  0  0  0  0  0  0999 V2000
   90.9306   20.1532 -103.2771 H   0  0  0  0  0  0
   90.0263   19.8479 -103.6111 O   0  0  0  0  0  0
   89.7201   19.6009 -104.9569 C   0  0  0  0  0  0
   89.2172   18.2951 -105.3057 N   0  0  0  0  0  0
   89.0954   18.0397 -106.3103 H   0  0  0  0  0  0
   88.9560   17.2746 -104.2800 C   0  0  0  0  0  0
   88.3941   15.9720 -104.9340 C   0  0  0  0  0  0
   87.2169   15.6027 -104.2671 O   0  0  0  0  0  0
   86.8869   14.7778 -104.7101 H   0  0  0  0  0  0
   89.3078   14.8853 -104.8727 O   0  0  0  0  0  0
   90.5809   15.2831 -105.3431 C   0  0  0  0  0  0
   91.4047   14.0249 -105.6549 C   0  0  0  0  0  0
   90.9080   12.9137 -104.9581 O   0  0  0  0  0  0
   91.0379   13.1027 -103.9921 H   0  0  0  0  0  0
   91.2745   16.1695 -104.2787 C   0  0  0  0  0  0
   92.1746   17.0384 -104.9182 O   0  0  0  0  0  0
   92.6562   17.5320 -104.2038 H   0  0  0  0  0  0
   90.2319   16.9788 -103.4580 C   0  0  0  0  0  0
   89.8651   16.2518 -102.3117 O   0  0  0  0  0  0
   89.2134   16.8098 -101.8116 H   0  0  0  0  0  0
   89.8812   20.5261 -105.8773 N   0  3  0  0  0  0
   89.5286   20.2373 -107.2116 N   0  0  0  0  0  0
   89.5822   19.0807 -107.6790 O   0  0  0  0  0  0
   90.4052   21.8571 -105.5331 C   0  0  0  0  0  0
  1  2  1  0  0  0
  2  3  1  0  0  0
  3  4  1  0  0  0
  3 21  2  0  0  0
  4  5  1  0  0  0
  4  6  1  0  0  0
  6  7  1  0  0  0
  7  8  1  0  0  0
  7 10  1  0  0  0
  8  9  1  0  0  0
 10 11  1  0  0  0
 11 12  1  0  0  0
 11 15  1  0  0  0
 12 13  1  0  0  0
 13 14  1  0  0  0
 15 16  1  0  0  0
 15 18  1  0  0  0
 16 17  1  0  0  0
 18 19  1  0  0  0
 18  6  1  0  0  0
 19 20  1  0  0  0
 21 22  1  0  0  0
 21 24  1  0  0  0
 22 23  2  0  0  0
M  END
>  <CHROM.0>
-178.94151716,153.87595166,-66.04033641

>  <CHROM.1>
123.33355879,178.93005844,179.72328647,-21.77499653,-64.44354561,-175.12528192
-58.52873555,-29.24182786,89.92859086,17.28730561,-104.94420636,1.65128919
0.96842378,-0.26978717

>  <Energy>
42.03550013587738

>  <Genealogy>
C[NH+](N=O)C(=O)N[C@H]1[C@H](O)O[C@H](CO)[C@@H](O)[C@@H]1O (protonated)
C[N+](N=O)=C(O)N[C@H]1[C@H](O)O[C@H](CO)[C@@H](O)[C@@H]1O (tautomer)
C/[N+](N=O)=C(\O)N[C@H]1[C@H](O)O[C@H](CO)[C@@H](O)[C@@H]1O (cis-trans isomerization)
C/[N+](N=O)=C(\O)N[C@H]1[C@H](O)O[C@H](CO)[C@@H](O)[C@@H]1O (3D coordinates assigned)
C/[N+](N=O)=C(\O)N[C@H]1[C@H](O)O[C@H](CO)[C@@H](O)[C@@H]1O (nonaromatic ring conformer: 42.03550013587738 kcal/mol)

>  <Name>
7067772

>  <RI>
3.62712e+07

>  <Rbt.Current_Directory>
/home/edward/Documentos/Virtual_Screening/rDock/3

>  <Rbt.Executable>
rbdock ($Id: //depot/dev/client3/rdock/2013.1/src/exe/rbdock.cxx#4 $)

>  <Rbt.Library>
libRbt.so (2013.1, Build901 2013/11/27)

>  <Rbt.Parameter_File>
/home/edward/anaconda3/envs/MD/share/rdock-2013.1-1/data/scripts/dock.prm

>  <Rbt.Receptor>
parameters.prm

>  <SCORE>
-19.8687

>  <SCORE.INTER>
-21.5874

>  <SCORE.INTER.CONST>
1

>  <SCORE.INTER.POLAR>
-4.31837

>  <SCORE.INTER.REPUL>
0

>  <SCORE.INTER.ROT>
3

>  <SCORE.INTER.VDW>
-15.3049

>  <SCORE.INTER.norm>
-1.1993

>  <SCORE.INTRA>
-0.0365126

>  <SCORE.INTRA.DIHEDRAL>
1.08484

>  <SCORE.INTRA.DIHEDRAL.0>
7.27908

>  <SCORE.INTRA.POLAR>
-0.000635302

>  <SCORE.INTRA.POLAR.0>
0

>  <SCORE.INTRA.REPUL>
0

>  <SCORE.INTRA.REPUL.0>
0

>  <SCORE.INTRA.VDW>
-0.576771

>  <SCORE.INTRA.VDW.0>
-0.39738

>  <SCORE.INTRA.norm>
-0.00202848

>  <SCORE.RESTR>
0.0191778

>  <SCORE.RESTR.CAVITY>
0.0191778

>  <SCORE.RESTR.norm>
0.00106543

>  <SCORE.SYSTEM>
1.73608

>  <SCORE.SYSTEM.CONST>
0

>  <SCORE.SYSTEM.DIHEDRAL>
3.19335

>  <SCORE.SYSTEM.VDW>
0.139404

>  <SCORE.SYSTEM.norm>
0.0964488

>  <SCORE.heavy>
18

>  <SCORE.norm>
-1.10381

>  <SMILES>
C/[N+](N=O)=C(\O)N[C@H]1[C@H](O)O[C@H](CO)[C@@H](O)[C@@H]1O

>  <UniqueID>
133

$$$$
6971258
  rDOCK(R)          3D
libRbt.so/2013.1/901 2013/11/27
 20 20  0  0  0  0  0  0  0  0999 V2000
   83.2738   19.7766 -104.1186 C   0  0  0  0  0  0
   84.2405   18.9826 -103.3025 C   0  0  0  0  0  0
   85.0126   19.5760 -102.5017 O   0  0  0  0  0  0
   84.3092   17.5585 -103.4630 N   0  0  0  0  0  0
   85.2772   16.7214 -102.7411 C   0  0  0  0  0  0
   84.7532   16.4010 -101.3250 C   0  0  0  0  0  0
   84.4463   17.5962 -100.6562 O   0  0  0  0  0  0
   83.5771   15.6063 -101.3744 O   0  0  0  0  0  0
   83.7879   14.3412 -101.9932 C   0  0  0  0  0  0
   84.6158   13.3767 -101.1124 C   0  0  0  0  0  0
   83.7871   12.7251 -100.1877 O   0  0  0  0  0  0
   84.3168   14.4843 -103.4452 C   0  0  0  0  0  0
   84.6458   13.2318 -103.9893 O   0  0  0  0  0  0
   85.5491   15.4054 -103.4933 C   0  0  0  0  0  0
   85.9660   15.6471 -104.8157 O   0  0  0  0  0  0
   83.7021   17.1164 -104.1902 H   0  0  0  0  0  0
   83.6458   17.9807 -101.1011 H   0  0  0  0  0  0
   83.3143   13.4332  -99.6777 H   0  0  0  0  0  0
   83.7886   12.7799 -104.2055 H   0  0  0  0  0  0
   86.2411   14.7823 -105.2172 H   0  0  0  0  0  0
  1  2  1  0  0  0
  2  3  2  0  0  0
  2  4  1  0  0  0
  4  5  1  0  0  0
  4 16  1  0  0  0
  5  6  1  0  0  0
  6  7  1  0  0  0
  6  8  1  0  0  0
  7 17  1  0  0  0
  8  9  1  0  0  0
  9 10  1  0  0  0
  9 12  1  0  0  0
 10 11  1  0  0  0
 11 18  1  0  0  0
 12 13  1  0  0  0
 12 14  1  0  0  0
 13 19  1  0  0  0
 14 15  1  0  0  0
 14  5  1  0  0  0
 15 20  1  0  0  0
M  END
>  <CHROM.0>
-179.36368564,155.71867917,-66.54881408

>  <CHROM.1>
82.70942558,69.50421200,83.63780422,-55.50190572,74.67844288,172.68266617
84.49073170,16.06039935,-102.55779815,-1.53427754,-1.28861948,2.93482963

>  <Energy>
29.657152798464175

>  <Genealogy>
CC(=O)N[C@H]1[C@@H](O)O[C@H](CO)[C@H](O)[C@H]1O (3D coordinates assigned)
CC(=O)N[C@H]1[C@@H](O)O[C@H](CO)[C@H](O)[C@H]1O (nonaromatic ring conformer: 29.657152798464175 kcal/mol)

>  <Name>
6971258

>  <RI>
3.62712e+07

>  <Rbt.Current_Directory>
/home/edward/Documentos/Virtual_Screening/rDock/3

>  <Rbt.Executable>
rbdock ($Id: //depot/dev/client3/rdock/2013.1/src/exe/rbdock.cxx#4 $)

>  <Rbt.Library>
libRbt.so (2013.1, Build901 2013/11/27)

>  <Rbt.Parameter_File>
/home/edward/anaconda3/envs/MD/share/rdock-2013.1-1/data/scripts/dock.prm

>  <Rbt.Receptor>
parameters.prm

>  <SCORE>
-14.3007

>  <SCORE.INTER>
-15.9902

>  <SCORE.INTER.CONST>
1

>  <SCORE.INTER.POLAR>
-3.3544

>  <SCORE.INTER.REPUL>
0.0968173

>  <SCORE.INTER.ROT>
2

>  <SCORE.INTER.VDW>
-12.4694

>  <SCORE.INTER.norm>
-1.06602

>  <SCORE.INTRA>
-0.0919837

>  <SCORE.INTRA.DIHEDRAL>
-1.15878

>  <SCORE.INTRA.DIHEDRAL.0>
6.20252

>  <SCORE.INTRA.POLAR>
0

>  <SCORE.INTRA.POLAR.0>
0

>  <SCORE.INTRA.REPUL>
0

>  <SCORE.INTRA.REPUL.0>
0

>  <SCORE.INTRA.VDW>
0.487406

>  <SCORE.INTRA.VDW.0>
-2.04438

>  <SCORE.INTRA.norm>
-0.00613225

>  <SCORE.RESTR>
0

>  <SCORE.RESTR.CAVITY>
0

>  <SCORE.RESTR.norm>
0

>  <SCORE.SYSTEM>
1.78154

>  <SCORE.SYSTEM.CONST>
0

>  <SCORE.SYSTEM.DIHEDRAL>
2.84846

>  <SCORE.SYSTEM.VDW>
0.357317

>  <SCORE.SYSTEM.norm>
0.11877

>  <SCORE.heavy>
15

>  <SCORE.norm>
-0.953379

>  <SMILES>
CC(=O)N[C@H]1[C@@H](O)O[C@H](CO)[C@H](O)[C@H]1O

>  <UniqueID>
138

$$$$
6713972
  rDOCK(R)          3D
libRbt.so/2013.1/901 2013/11/27
 24 24  0  0  0  0  0  0  0  0999 V2000
   93.1065   18.5385  -98.9577 H   0  0  0  0  0  0
   92.4449   19.0280  -99.5459 O   0  0  0  0  0  0
   91.6097   18.3842 -100.4397 N   0  0  0  0  0  0
   90.3493   18.2433 -100.2699 N   0  3  0  0  0  0
   89.5873   17.5714 -101.2956 C   0  0  0  0  0  0
   88.3267   17.5554 -101.2375 O   0  0  0  0  0  0
   90.2519   16.9183 -102.3924 N   0  0  0  0  0  0
   91.2944   16.8469 -102.3807 H   0  0  0  0  0  0
   89.5120   16.3118 -103.5080 C   0  0  0  0  0  0
   90.4302   15.3467 -104.2985 C   0  0  0  0  0  0
   89.6944   14.5573 -105.2015 O   0  0  0  0  0  0
   89.1521   15.1798 -105.7531 H   0  0  0  0  0  0
   91.4625   16.0479 -104.9741 O   0  0  0  0  0  0
   90.9460   16.9588 -105.9334 C   0  0  0  0  0  0
   92.1396   17.5655 -106.6909 C   0  0  0  0  0  0
   93.1110   18.0544 -105.8050 O   0  0  0  0  0  0
   92.6253   18.5474 -105.0930 H   0  0  0  0  0  0
   90.0998   18.0553 -105.2388 C   0  0  0  0  0  0
   89.5548   18.9384 -106.1880 O   0  0  0  0  0  0
   89.0020   18.3984 -106.8112 H   0  0  0  0  0  0
   88.9558   17.4081 -104.4367 C   0  0  0  0  0  0
   88.0040   16.8420 -105.3044 O   0  0  0  0  0  0
   87.4956   17.5919 -105.7104 H   0  0  0  0  0  0
   89.6820   18.7730  -99.0719 C   0  0  0  0  0  0
  1  2  1  0  0  0
  2  3  1  0  0  0
  3  4  2  0  0  0
  4  5  1  0  0  0
  4 24  1  0  0  0
  5  6  2  0  0  0
  5  7  1  0  0  0
  7  8  1  0  0  0
  7  9  1  0  0  0
  9 10  1  0  0  0
 10 11  1  0  0  0
 10 13  1  0  0  0
 11 12  1  0  0  0
 13 14  1  0  0  0
 14 15  1  0  0  0
 14 18  1  0  0  0
 15 16  1  0  0  0
 16 17  1  0  0  0
 18 19  1  0  0  0
 18 21  1  0  0  0
 19 20  1  0  0  0
 21 22  1  0  0  0
 21  9  1  0  0  0
 22 23  1  0  0  0
M  END
>  <CHROM.0>
-177.75328182,153.62923513,53.10718620

>  <CHROM.1>
107.42974303,-163.46795563,52.85826675,-50.43922635,-44.04828843,58.42968667
165.06585472,90.35600060,17.37802852,-103.45843387,-1.56129435,-0.38015397
-1.81180503

>  <Energy>
35.871442510631944

>  <Genealogy>
C[NH+](N=O)C(=O)NC1[C@@H](O)OC(CO)[C@@H](O)[C@H]1O (protonated)
C[N+](=NO)C(=O)NC1[C@@H](O)OC(CO)[C@@H](O)[C@H]1O (tautomer)
C[N+](=NO)C(=O)N[C@@H]1[C@@H](O)O[C@H](CO)[C@@H](O)[C@H]1O (chirality)
C/[N+](=N/O)C(=O)N[C@@H]1[C@@H](O)O[C@H](CO)[C@@H](O)[C@H]1O (cis-trans isomerization)
C/[N+](=N/O)C(=O)N[C@@H]1[C@@H](O)O[C@H](CO)[C@@H](O)[C@H]1O (3D coordinates assigned)
C/[N+](=N/O)C(=O)N[C@@H]1[C@@H](O)O[C@H](CO)[C@@H](O)[C@H]1O (nonaromatic ring conformer: 35.871442510631944 kcal/mol)

>  <Name>
6713972

>  <RI>
3.62712e+07

>  <Rbt.Current_Directory>
/home/edward/Documentos/Virtual_Screening/rDock/3

>  <Rbt.Executable>
rbdock ($Id: //depot/dev/client3/rdock/2013.1/src/exe/rbdock.cxx#4 $)

>  <Rbt.Library>
libRbt.so (2013.1, Build901 2013/11/27)

>  <Rbt.Parameter_File>
/home/edward/anaconda3/envs/MD/share/rdock-2013.1-1/data/scripts/dock.prm

>  <Rbt.Receptor>
parameters.prm

>  <SCORE>
-22.9448

>  <SCORE.INTER>
-19.1169

>  <SCORE.INTER.CONST>
1

>  <SCORE.INTER.POLAR>
-4.69263

>  <SCORE.INTER.REPUL>
0.326372

>  <SCORE.INTER.ROT>
2

>  <SCORE.INTER.VDW>
-12.1938

>  <SCORE.INTER.norm>
-1.06205

>  <SCORE.INTRA>
-6.23569

>  <SCORE.INTRA.DIHEDRAL>
-8.88286

>  <SCORE.INTRA.DIHEDRAL.0>
13.1973

>  <SCORE.INTRA.POLAR>
-0.666466

>  <SCORE.INTRA.POLAR.0>
0

>  <SCORE.INTRA.REPUL>
0

>  <SCORE.INTRA.REPUL.0>
0

>  <SCORE.INTRA.VDW>
0.471727

>  <SCORE.INTRA.VDW.0>
-1.0711

>  <SCORE.INTRA.norm>
-0.346427

>  <SCORE.RESTR>
0.00360485

>  <SCORE.RESTR.CAVITY>
0.00360485

>  <SCORE.RESTR.norm>
0.000200269

>  <SCORE.SYSTEM>
2.40421

>  <SCORE.SYSTEM.CONST>
0

>  <SCORE.SYSTEM.DIHEDRAL>
3.24876

>  <SCORE.SYSTEM.VDW>
0.779826

>  <SCORE.SYSTEM.norm>
0.133567

>  <SCORE.heavy>
18

>  <SCORE.norm>
-1.27471

>  <SMILES>
C/[N+](=N/O)C(=O)N[C@@H]1[C@@H](O)O[C@H](CO)[C@@H](O)[C@H]1O

>  <UniqueID>
140

$$$$
6420074
  rDOCK(R)          3D
libRbt.so/2013.1/901 2013/11/27
 24 24  0  0  0  0  0  0  0  0999 V2000
   92.1300   12.9030 -106.4850 H   0  0  0  0  0  0
   91.8533   12.9827 -105.5149 O   0  0  0  0  0  0
   90.8567   13.8621 -105.1532 N   0  0  0  0  0  0
   90.9236   15.1096 -105.4169 N   0  3  0  0  0  0
   89.8719   15.9794 -104.9534 C   0  0  0  0  0  0
   90.0199   17.2310 -105.0156 O   0  0  0  0  0  0
   88.6537   15.4320 -104.4179 N   0  0  0  0  0  0
   88.4894   14.4022 -104.4859 H   0  0  0  0  0  0
   87.5492   16.2704 -103.9391 C   0  0  0  0  0  0
   87.8482   16.7657 -102.5088 C   0  0  0  0  0  0
   89.0004   17.5636 -102.5383 O   0  0  0  0  0  0
   89.1721   17.8430 -101.6013 H   0  0  0  0  0  0
   86.7670   17.5400 -102.0141 O   0  0  0  0  0  0
   85.6058   16.7375 -101.8776 C   0  0  0  0  0  0
   84.5233   17.5430 -101.1453 C   0  0  0  0  0  0
   84.2373   18.7244 -101.8444 O   0  0  0  0  0  0
   83.4828   19.1611 -101.3691 H   0  0  0  0  0  0
   85.1137   16.2663 -103.2658 C   0  0  0  0  0  0
   84.7697   17.3719 -104.0659 O   0  0  0  0  0  0
   84.1524   17.9379 -103.5331 H   0  0  0  0  0  0
   86.2326   15.4664 -103.9519 C   0  0  0  0  0  0
   85.8525   15.1712 -105.2719 O   0  0  0  0  0  0
   86.4887   14.4885 -105.6106 H   0  0  0  0  0  0
   92.1019   15.6663 -106.0943 C   0  0  0  0  0  0
  1  2  1  0  0  0
  2  3  1  0  0  0
  3  4  2  0  0  0
  4  5  1  0  0  0
  4 24  1  0  0  0
  5  6  2  0  0  0
  5  7  1  0  0  0
  7  8  1  0  0  0
  7  9  1  0  0  0
  9 10  1  0  0  0
 10 11  1  0  0  0
 10 13  1  0  0  0
 11 12  1  0  0  0
 13 14  1  0  0  0
 14 15  1  0  0  0
 14 18  1  0  0  0
 15 16  1  0  0  0
 16 17  1  0  0  0
 18 19  1  0  0  0
 18 21  1  0  0  0
 19 20  1  0  0  0
 21 22  1  0  0  0
 21  9  1  0  0  0
 22 23  1  0  0  0
M  END
>  <CHROM.0>
-176.92693795,152.05258022,-65.38410162

>  <CHROM.1>
-56.85715112,-80.87061976,-178.62331296,57.86211779,175.30392695,-51.25997848
71.31573652,87.87151581,16.22428505,-103.84241840,0.58655968,-0.09001199
-2.43334545

>  <Energy>
29.696533932045597

>  <Genealogy>
C[NH+](N=O)C(=O)N[C@@H]1C(O)OC(CO)[C@@H](O)[C@H]1O (protonated)
C[N+](=NO)C(=O)N[C@@H]1C(O)OC(CO)[C@@H](O)[C@H]1O (tautomer)
C[N+](=NO)C(=O)N[C@@H]1[C@@H](O)O[C@@H](CO)[C@@H](O)[C@H]1O (chirality)
C/[N+](=N/O)C(=O)N[C@@H]1[C@@H](O)O[C@@H](CO)[C@@H](O)[C@H]1O (cis-trans isomerization)
C/[N+](=N/O)C(=O)N[C@@H]1[C@@H](O)O[C@@H](CO)[C@@H](O)[C@H]1O (3D coordinates assigned)
C/[N+](=N/O)C(=O)N[C@@H]1[C@@H](O)O[C@@H](CO)[C@@H](O)[C@H]1O (nonaromatic ring conformer: 29.696533932045597 kcal/mol)

>  <Name>
6420074

>  <RI>
3.62712e+07

>  <Rbt.Current_Directory>
/home/edward/Documentos/Virtual_Screening/rDock/3

>  <Rbt.Executable>
rbdock ($Id: //depot/dev/client3/rdock/2013.1/src/exe/rbdock.cxx#4 $)

>  <Rbt.Library>
libRbt.so (2013.1, Build901 2013/11/27)

>  <Rbt.Parameter_File>
/home/edward/anaconda3/envs/MD/share/rdock-2013.1-1/data/scripts/dock.prm

>  <Rbt.Receptor>
parameters.prm

>  <SCORE>
-25.4267

>  <SCORE.INTER>
-21.4402

>  <SCORE.INTER.CONST>
1

>  <SCORE.INTER.POLAR>
-4.4029

>  <SCORE.INTER.REPUL>
0.217787

>  <SCORE.INTER.ROT>
2

>  <SCORE.INTER.VDW>
-14.9593

>  <SCORE.INTER.norm>
-1.19112

>  <SCORE.INTRA>
-6.0335

>  <SCORE.INTRA.DIHEDRAL>
-7.67012

>  <SCORE.INTRA.DIHEDRAL.0>
10.7982

>  <SCORE.INTRA.POLAR>
-1.03162

>  <SCORE.INTRA.POLAR.0>
0

>  <SCORE.INTRA.REPUL>
0

>  <SCORE.INTRA.REPUL.0>
0

>  <SCORE.INTRA.VDW>
1.30908

>  <SCORE.INTRA.VDW.0>
-1.8426

>  <SCORE.INTRA.norm>
-0.335194

>  <SCORE.RESTR>
0.272009

>  <SCORE.RESTR.CAVITY>
0.272009

>  <SCORE.RESTR.norm>
0.0151116

>  <SCORE.SYSTEM>
1.77501

>  <SCORE.SYSTEM.CONST>
0

>  <SCORE.SYSTEM.DIHEDRAL>
3.58209

>  <SCORE.SYSTEM.VDW>
-0.0160343

>  <SCORE.SYSTEM.norm>
0.0986118

>  <SCORE.heavy>
18

>  <SCORE.norm>
-1.41259

>  <SMILES>
C/[N+](=N/O)C(=O)N[C@@H]1[C@@H](O)O[C@@H](CO)[C@@H](O)[C@H]1O

>  <UniqueID>
142

$$$$
6323218
  rDOCK(R)          3D
libRbt.so/2013.1/901 2013/11/27
 24 24  0  0  0  0  0  0  0  0999 V2000
   89.3630   25.0346 -108.1683 C   0  0  0  0  0  0
   88.7839   25.9112 -107.1066 C   0  0  0  0  0  0
   89.3512   27.0000 -106.8200 O   0  0  0  0  0  0
   87.5711   25.5257 -106.4459 N   0  0  0  0  0  0
   86.9133   26.3740 -105.4469 C   0  0  0  0  0  0
   85.7349   27.1407 -106.0859 C   0  0  0  0  0  0
   84.8229   26.2670 -106.7093 O   0  0  0  0  0  0
   85.0732   27.9480 -105.1256 O   0  0  0  0  0  0
   84.5184   27.1689 -104.0757 C   0  0  0  0  0  0
   83.7102   28.0967 -103.1534 C   0  0  0  0  0  0
   83.2818   27.4212 -102.0005 O   0  0  0  0  0  0
   85.6245   26.4211 -103.2941 C   0  0  0  0  0  0
   85.0378   25.6318 -102.2906 O   0  0  0  0  0  0
   86.4297   25.5275 -104.2566 C   0  0  0  0  0  0
   87.5669   25.0081 -103.5805 O   0  0  0  0  0  0
   87.2415   23.8914 -102.7707 C   0  0  0  0  0  0
   88.4740   23.5022 -101.9586 C   0  0  0  0  0  0
   86.8218   22.7355 -103.6337 C   0  0  0  0  0  0
   87.1676   22.6904 -104.8435 O   0  0  0  0  0  0
   86.0384   21.7165 -103.1050 O   0  5  0  0  0  0
   87.0771   24.6687 -106.7845 H   0  0  0  0  0  0
   84.1049   26.8272 -107.1045 H   0  0  0  0  0  0
   82.5368   26.8264 -102.2771 H   0  0  0  0  0  0
   84.5607   26.2502 -101.6778 H   0  0  0  0  0  0
  1  2  1  0  0  0
  2  3  2  0  0  0
  2  4  1  0  0  0
  4  5  1  0  0  0
  4 21  1  0  0  0
  5  6  1  0  0  0
  6  7  1  0  0  0
  6  8  1  0  0  0
  7 22  1  0  0  0
  8  9  1  0  0  0
  9 10  1  0  0  0
  9 12  1  0  0  0
 10 11  1  0  0  0
 11 23  1  0  0  0
 12 13  1  0  0  0
 12 14  1  0  0  0
 13 24  1  0  0  0
 14 15  1  0  0  0
 14  5  1  0  0  0
 15 16  1  0  0  0
 16 17  1  0  0  0
 16 18  1  0  0  0
 18 19  2  0  0  0
 18 20  1  0  0  0
M  END
>  <CHROM.0>
-179.17681254,154.19343613,-67.55287025

>  <CHROM.1>
99.79121621,-179.27319910,-172.21699611,-74.47131414,-61.50806777,-160.51022750
-173.35437771,21.46794788,86.43330070,25.55090792,-104.52642758,0.16557792
0.72665896,-0.77277414

>  <Energy>
33.117684029864414

>  <Genealogy>
CC(=O)N[C@H]1[C@@H](O)O[C@H](CO)[C@@H](O)[C@@H]1O[C@H](C)C(=O)[O-] (protonated)
CC(=O)N[C@H]1[C@@H](O)O[C@H](CO)[C@@H](O)[C@@H]1O[C@H](C)C(=O)[O-] (3D coordinates assigned)
CC(=O)N[C@H]1[C@@H](O)O[C@H](CO)[C@@H](O)[C@@H]1O[C@H](C)C(=O)[O-] (nonaromatic ring conformer: 33.117684029864414 kcal/mol)

>  <Name>
6323218

>  <RI>
3.62712e+07

>  <Rbt.Current_Directory>
/home/edward/Documentos/Virtual_Screening/rDock/3

>  <Rbt.Executable>
rbdock ($Id: //depot/dev/client3/rdock/2013.1/src/exe/rbdock.cxx#4 $)

>  <Rbt.Library>
libRbt.so (2013.1, Build901 2013/11/27)

>  <Rbt.Parameter_File>
/home/edward/anaconda3/envs/MD/share/rdock-2013.1-1/data/scripts/dock.prm

>  <Rbt.Receptor>
parameters.prm

>  <SCORE>
-16.6302

>  <SCORE.INTER>
-13.2073

>  <SCORE.INTER.CONST>
1

>  <SCORE.INTER.POLAR>
-2.68452

>  <SCORE.INTER.REPUL>
0

>  <SCORE.INTER.ROT>
5

>  <SCORE.INTER.VDW>
-14.4799

>  <SCORE.INTER.norm>
-0.660365

>  <SCORE.INTRA>
-5.15745

>  <SCORE.INTRA.DIHEDRAL>
-12.0616

>  <SCORE.INTRA.DIHEDRAL.0>
17.3324

>  <SCORE.INTRA.POLAR>
-0.4846

>  <SCORE.INTRA.POLAR.0>
0

>  <SCORE.INTRA.REPUL>
0

>  <SCORE.INTRA.REPUL.0>
0

>  <SCORE.INTRA.VDW>
2.52097

>  <SCORE.INTRA.VDW.0>
-3.80164

>  <SCORE.INTRA.norm>
-0.257872

>  <SCORE.RESTR>
0

>  <SCORE.RESTR.CAVITY>
0

>  <SCORE.RESTR.norm>
0

>  <SCORE.SYSTEM>
1.73456

>  <SCORE.SYSTEM.CONST>
0

>  <SCORE.SYSTEM.DIHEDRAL>
3.11814

>  <SCORE.SYSTEM.VDW>
0.175492

>  <SCORE.SYSTEM.norm>
0.0867282

>  <SCORE.heavy>
20

>  <SCORE.norm>
-0.831509

>  <SMILES>
CC(=O)N[C@H]1[C@@H](O)O[C@H](CO)[C@@H](O)[C@@H]1O[C@H](C)C(=O)[O-]

>  <UniqueID>
145

$$$$
5462244
  rDOCK(R)          3D
libRbt.so/2013.1/901 2013/11/27
 24 24  0  0  0  0  0  0  0  0999 V2000
   89.6948   23.8242 -104.0045 C   0  0  0  0  0  0
   89.7806   22.6326 -104.9008 C   0  0  0  0  0  0
   89.2852   22.6879 -106.0588 O   0  0  0  0  0  0
   90.4302   21.4395 -104.4403 N   0  0  0  0  0  0
   90.4424   20.1923 -105.2113 C   0  0  0  0  0  0
   91.5286   20.2608 -106.3020 C   0  0  0  0  0  0
   91.2337   21.3219 -107.1692 O   0  0  0  0  0  0
   91.5539   19.0549 -107.0467 O   0  0  0  0  0  0
   91.9491   17.9692 -106.2246 C   0  0  0  0  0  0
   92.1508   16.7330 -107.1139 C   0  0  0  0  0  0
   92.5038   15.6124 -106.3461 O   0  0  0  0  0  0
   90.8951   17.7197 -105.1174 C   0  0  0  0  0  0
   91.3141   16.6765 -104.2737 O   0  0  0  0  0  0
   90.7113   18.9949 -104.2782 C   0  0  0  0  0  0
   89.6002   18.8081 -103.4127 O   0  0  0  0  0  0
   89.9709   18.2156 -102.1782 C   0  0  0  0  0  0
   88.7229   17.8150 -101.3869 C   0  0  0  0  0  0
   90.7653   19.2112 -101.3872 C   0  0  0  0  0  0
   91.3574   18.8606 -100.3319 O   0  0  0  0  0  0
   90.8868   20.5195 -101.8386 O   0  5  0  0  0  0
   90.7895   21.4206 -103.4584 H   0  0  0  0  0  0
   92.0296   21.4383 -107.7509 H   0  0  0  0  0  0
   93.3414   15.8430 -105.8663 H   0  0  0  0  0  0
   92.1551   16.9719 -103.8369 H   0  0  0  0  0  0
  1  2  1  0  0  0
  2  3  2  0  0  0
  2  4  1  0  0  0
  4  5  1  0  0  0
  4 21  1  0  0  0
  5  6  1  0  0  0
  6  7  1  0  0  0
  6  8  1  0  0  0
  7 22  1  0  0  0
  8  9  1  0  0  0
  9 10  1  0  0  0
  9 12  1  0  0  0
 10 11  1  0  0  0
 11 23  1  0  0  0
 12 13  1  0  0  0
 12 14  1  0  0  0
 13 24  1  0  0  0
 14 15  1  0  0  0
 14  5  1  0  0  0
 15 16  1  0  0  0
 16 17  1  0  0  0
 16 18  1  0  0  0
 18 19  2  0  0  0
 18 20  1  0  0  0
M  END
>  <CHROM.0>
-179.56865853,153.20369609,-64.95660245

>  <CHROM.1>
80.56061672,169.96968250,-178.15600975,-58.95249564,62.61419349,-151.98611411
-170.22621876,-170.53201923,90.76187877,19.40771571,-104.46467612,-2.74104908
-1.21864895,2.29152479

>  <Energy>
31.046062265857554

>  <Genealogy>
CC(=O)N[C@H]1C(O)O[C@H](CO)[C@@H](O)[C@@H]1O[C@H](C)C(=O)[O-] (protonated)
CC(=O)N[C@H]1[C@H](O)O[C@H](CO)[C@@H](O)[C@@H]1O[C@H](C)C(=O)[O-] (chirality)
CC(=O)N[C@H]1[C@H](O)O[C@H](CO)[C@@H](O)[C@@H]1O[C@H](C)C(=O)[O-] (3D coordinates assigned)
CC(=O)N[C@H]1[C@H](O)O[C@H](CO)[C@@H](O)[C@@H]1O[C@H](C)C(=O)[O-] (nonaromatic ring conformer: 31.046062265857554 kcal/mol)

>  <Name>
5462244

>  <RI>
3.62712e+07

>  <Rbt.Current_Directory>
/home/edward/Documentos/Virtual_Screening/rDock/3

>  <Rbt.Executable>
rbdock ($Id: //depot/dev/client3/rdock/2013.1/src/exe/rbdock.cxx#4 $)

>  <Rbt.Library>
libRbt.so (2013.1, Build901 2013/11/27)

>  <Rbt.Parameter_File>
/home/edward/anaconda3/envs/MD/share/rdock-2013.1-1/data/scripts/dock.prm

>  <Rbt.Receptor>
parameters.prm

>  <SCORE>
-18.5482

>  <SCORE.INTER>
-11.5362

>  <SCORE.INTER.CONST>
1

>  <SCORE.INTER.POLAR>
-2.32707

>  <SCORE.INTER.REPUL>
0

>  <SCORE.INTER.ROT>
5

>  <SCORE.INTER.VDW>
-14.0241

>  <SCORE.INTER.norm>
-0.576808

>  <SCORE.INTRA>
-8.75333

>  <SCORE.INTRA.DIHEDRAL>
-13.563

>  <SCORE.INTRA.DIHEDRAL.0>
20.258

>  <SCORE.INTRA.POLAR>
-1.19497

>  <SCORE.INTRA.POLAR.0>
0

>  <SCORE.INTRA.REPUL>
0

>  <SCORE.INTRA.REPUL.0>
0

>  <SCORE.INTRA.VDW>
2.09106

>  <SCORE.INTRA.VDW.0>
-3.72145

>  <SCORE.INTRA.norm>
-0.437667

>  <SCORE.RESTR>
0

>  <SCORE.RESTR.CAVITY>
0

>  <SCORE.RESTR.norm>
0

>  <SCORE.SYSTEM>
1.74129

>  <SCORE.SYSTEM.CONST>
0

>  <SCORE.SYSTEM.DIHEDRAL>
3.32919

>  <SCORE.SYSTEM.VDW>
0.0766951

>  <SCORE.SYSTEM.norm>
0.0870645

>  <SCORE.heavy>
20

>  <SCORE.norm>
-0.92741

>  <SMILES>
CC(=O)N[C@H]1[C@H](O)O[C@H](CO)[C@@H](O)[C@@H]1O[C@H](C)C(=O)[O-]

>  <UniqueID>
148

$$$$
5317448
  rDOCK(R)          3D
libRbt.so/2013.1/901 2013/11/27
 18 18  0  0  0  0  0  0  0  0999 V2000
   92.4229   16.8845 -104.9447 N   0  0  0  0  0  0
   91.1209   16.4398 -104.4385 C   0  0  0  0  0  0
   90.1449   17.6351 -104.3224 C   0  0  0  0  0  0
   90.0261   18.3301 -105.5419 O   0  0  0  0  0  0
   88.8666   17.2151 -103.8651 O   0  0  0  0  0  0
   88.2661   16.2910 -104.7626 C   0  0  0  0  0  0
   86.8157   16.0311 -104.3284 C   0  0  0  0  0  0
   86.1352   15.2534 -105.2794 O   0  0  0  0  0  0
   89.0888   14.9850 -104.8462 C   0  0  0  0  0  0
   89.1396   14.3679 -103.5832 O   0  0  0  0  0  0
   90.5108   15.3296 -105.3287 C   0  0  0  0  0  0
   91.3252   14.1827 -105.3674 O   0  0  0  0  0  0
   92.2722   17.4105 -105.8361 H   0  0  0  0  0  0
   92.8575   17.5503 -104.2650 H   0  0  0  0  0  0
   89.7165   17.6777 -106.2232 H   0  0  0  0  0  0
   86.5911   14.3727 -105.3184 H   0  0  0  0  0  0
   89.6221   13.5080 -103.6983 H   0  0  0  0  0  0
   91.4421   13.8565 -104.4373 H   0  0  0  0  0  0
  1  2  1  0  0  0
  1 13  1  0  0  0
  1 14  1  0  0  0
  2  3  1  0  0  0
  3  4  1  0  0  0
  3  5  1  0  0  0
  4 15  1  0  0  0
  5  6  1  0  0  0
  6  7  1  0  0  0
  6  9  1  0  0  0
  7  8  1  0  0  0
  8 16  1  0  0  0
  9 10  1  0  0  0
  9 11  1  0  0  0
 10 17  1  0  0  0
 11 12  1  0  0  0
 11  2  1  0  0  0
 12 18  1  0  0  0
M  END
>  <CHROM.0>
179.64034080,153.73923917,-173.83228881

>  <CHROM.1>
-53.51697522,57.89209864,172.70617638,63.26182530,176.24085578,58.20044695
89.48858715,16.05376715,-104.72556811,0.22164277,0.05962593,-0.02416361

>  <Energy>
26.511424372767618

>  <Genealogy>
N[C@H]1[C@@H](O)O[C@H](CO)[C@H](O)[C@@H]1O (3D coordinates assigned)
N[C@H]1[C@@H](O)O[C@H](CO)[C@H](O)[C@@H]1O (nonaromatic ring conformer: 26.511424372767618 kcal/mol)

>  <Name>
5317448

>  <RI>
3.62712e+07

>  <Rbt.Current_Directory>
/home/edward/Documentos/Virtual_Screening/rDock/3

>  <Rbt.Executable>
rbdock ($Id: //depot/dev/client3/rdock/2013.1/src/exe/rbdock.cxx#4 $)

>  <Rbt.Library>
libRbt.so (2013.1, Build901 2013/11/27)

>  <Rbt.Parameter_File>
/home/edward/anaconda3/envs/MD/share/rdock-2013.1-1/data/scripts/dock.prm

>  <Rbt.Receptor>
parameters.prm

>  <SCORE>
-22.7131

>  <SCORE.INTER>
-20.8648

>  <SCORE.INTER.CONST>
1

>  <SCORE.INTER.POLAR>
-5.02468

>  <SCORE.INTER.REPUL>
0.315448

>  <SCORE.INTER.ROT>
2

>  <SCORE.INTER.VDW>
-12.7582

>  <SCORE.INTER.norm>
-1.73874

>  <SCORE.INTRA>
-5.44211

>  <SCORE.INTRA.DIHEDRAL>
-12.8368

>  <SCORE.INTRA.DIHEDRAL.0>
13.3802

>  <SCORE.INTRA.POLAR>
0

>  <SCORE.INTRA.POLAR.0>
0

>  <SCORE.INTRA.REPUL>
0

>  <SCORE.INTRA.REPUL.0>
0

>  <SCORE.INTRA.VDW>
0.976312

>  <SCORE.INTRA.VDW.0>
-0.989155

>  <SCORE.INTRA.norm>
-0.453509

>  <SCORE.RESTR>
0

>  <SCORE.RESTR.CAVITY>
0

>  <SCORE.RESTR.norm>
0

>  <SCORE.SYSTEM>
3.59387

>  <SCORE.SYSTEM.CONST>
0

>  <SCORE.SYSTEM.DIHEDRAL>
3.65335

>  <SCORE.SYSTEM.VDW>
1.7672

>  <SCORE.SYSTEM.norm>
0.299489

>  <SCORE.heavy>
12

>  <SCORE.norm>
-1.89276

>  <SMILES>
N[C@H]1[C@@H](O)O[C@H](CO)[C@H](O)[C@@H]1O

>  <UniqueID>
151

$$$$
5284365
  rDOCK(R)          3D
libRbt.so/2013.1/901 2013/11/27
 26 26  0  0  0  0  0  0  0  0999 V2000
   91.3581   21.2232 -106.4249 H   0  0  0  0  0  0
   91.5188   20.7255 -105.5604 O   0  0  0  0  0  0
   90.5181   20.0991 -104.8405 N   0  0  0  0  0  0
   90.1179   18.8981 -105.0370 N   0  3  0  0  0  0
   89.0480   18.4099 -104.2005 C   0  0  0  0  0  0
   88.7817   19.0144 -103.1246 O   0  0  0  0  0  0
   88.2680   17.2608 -104.5767 N   0  0  0  0  0  0
   88.3117   16.9135 -105.5598 H   0  0  0  0  0  0
   87.2416   16.6920 -103.6965 C   0  0  0  0  0  0
   86.0095   16.2655 -104.5182 C   0  0  0  0  0  0
   86.3759   15.3993 -105.5638 O   0  0  0  0  0  0
   86.7328   14.5786 -105.1345 H   0  0  0  0  0  0
   85.0176   15.6791 -103.6878 O   0  0  0  0  0  0
   85.4932   14.5018 -103.0510 C   0  0  0  0  0  0
   84.3262   13.8630 -102.2865 C   0  0  0  0  0  0
   83.7466   14.7922 -101.4118 O   0  0  0  0  0  0
   84.4500   15.0243 -100.7513 H   0  0  0  0  0  0
   86.6834   14.8210 -102.1121 C   0  0  0  0  0  0
   87.1799   13.6368 -101.5394 O   0  0  0  0  0  0
   87.4287   13.0321 -102.2863 H   0  0  0  0  0  0
   87.8068   15.4939 -102.9171 C   0  0  0  0  0  0
   88.8175   15.9423 -102.0506 O   0  0  0  0  0  0
   88.3911   16.5689 -101.4094 H   0  0  0  0  0  0
   90.7246   18.0298 -106.0612 C   0  0  0  0  0  0
   91.7216   17.0581 -105.4281 C   0  0  0  0  0  0
   90.8697   15.9206 -104.3544 Cl  0  0  0  0  0  0
  1  2  1  0  0  0
  2  3  1  0  0  0
  3  4  2  0  0  0
  4  5  1  0  0  0
  4 24  1  0  0  0
  5  6  2  0  0  0
  5  7  1  0  0  0
  7  8  1  0  0  0
  7  9  1  0  0  0
  9 10  1  0  0  0
 10 11  1  0  0  0
 10 13  1  0  0  0
 11 12  1  0  0  0
 13 14  1  0  0  0
 14 15  1  0  0  0
 14 18  1  0  0  0
 15 16  1  0  0  0
 16 17  1  0  0  0
 18 19  1  0  0  0
 18 21  1  0  0  0
 19 20  1  0  0  0
 21 22  1  0  0  0
 21  9  1  0  0  0
 22 23  1  0  0  0
 24 25  1  0  0  0
 25 26  1  0  0  0
M  END
>  <CHROM.0>
-177.88772063,153.88030886,50.19003037

>  <CHROM.1>
87.05170939,100.18868986,140.10934564,64.18646713,-54.40492600,-63.50164662
56.83386560,62.45214375,65.67147559,88.18905955,16.56733828,-103.81754738
0.71378565,0.13268551,-0.41333390

>  <Energy>
35.40297681089967

>  <Genealogy>
O=N[NH+](CCCl)C(=O)N[C@H]1[C@@H](O)O[C@H](CO)[C@@H](O)[C@@H]1O (protonated)
O=C(N[C@H]1[C@@H](O)O[C@H](CO)[C@@H](O)[C@@H]1O)[N+](CCCl)=NO (tautomer)
O=C(N[C@H]1[C@@H](O)O[C@H](CO)[C@@H](O)[C@@H]1O)/[N+](CCCl)=N/O (cis-trans isomerization)
O=C(N[C@H]1[C@@H](O)O[C@H](CO)[C@@H](O)[C@@H]1O)/[N+](CCCl)=N/O (3D coordinates assigned)
O=C(N[C@H]1[C@@H](O)O[C@H](CO)[C@@H](O)[C@@H]1O)/[N+](CCCl)=N/O (nonaromatic ring conformer: 35.40297681089967 kcal/mol)

>  <Name>
5284365

>  <RI>
3.62712e+07

>  <Rbt.Current_Directory>
/home/edward/Documentos/Virtual_Screening/rDock/3

>  <Rbt.Executable>
rbdock ($Id: //depot/dev/client3/rdock/2013.1/src/exe/rbdock.cxx#4 $)

>  <Rbt.Library>
libRbt.so (2013.1, Build901 2013/11/27)

>  <Rbt.Parameter_File>
/home/edward/anaconda3/envs/MD/share/rdock-2013.1-1/data/scripts/dock.prm

>  <Rbt.Receptor>
parameters.prm

>  <SCORE>
-22.4042

>  <SCORE.INTER>
-21.0568

>  <SCORE.INTER.CONST>
1

>  <SCORE.INTER.POLAR>
-4.9242

>  <SCORE.INTER.REPUL>
0.0374086

>  <SCORE.INTER.ROT>
4

>  <SCORE.INTER.VDW>
-13.9016

>  <SCORE.INTER.norm>
-1.05284

>  <SCORE.INTRA>
-3.74762

>  <SCORE.INTRA.DIHEDRAL>
-7.41848

>  <SCORE.INTRA.DIHEDRAL.0>
11.9025

>  <SCORE.INTRA.POLAR>
-0.0249265

>  <SCORE.INTRA.POLAR.0>
0

>  <SCORE.INTRA.REPUL>
0

>  <SCORE.INTRA.REPUL.0>
0

>  <SCORE.INTRA.VDW>
0.046369

>  <SCORE.INTRA.VDW.0>
-2.40378

>  <SCORE.INTRA.norm>
-0.187381

>  <SCORE.RESTR>
0

>  <SCORE.RESTR.CAVITY>
0

>  <SCORE.RESTR.norm>
0

>  <SCORE.SYSTEM>
2.40025

>  <SCORE.SYSTEM.CONST>
0

>  <SCORE.SYSTEM.DIHEDRAL>
3.18999

>  <SCORE.SYSTEM.VDW>
0.80526

>  <SCORE.SYSTEM.norm>
0.120013

>  <SCORE.heavy>
20

>  <SCORE.norm>
-1.12021

>  <SMILES>
O=C(N[C@H]1[C@@H](O)O[C@H](CO)[C@@H](O)[C@@H]1O)/[N+](CCCl)=N/O

>  <UniqueID>
155

$$$$
4282259
  rDOCK(R)          3D
libRbt.so/2013.1/901 2013/11/27
 25 26  0  0  0  0  0  0  0  0999 V2000
   93.1254   16.6971 -104.7060 H   0  0  0  0  0  0
   92.1813   16.9928 -104.4884 O   0  0  0  0  0  0
   91.0904   16.1450 -104.6640 C   0  0  0  0  0  0
   89.9284   16.5361 -104.2245 N   0  0  0  0  0  0
   88.6652   15.7923 -104.2888 C   0  0  0  0  0  0
   87.5059   16.7696 -104.5592 C   0  0  0  0  0  0
   87.5564   17.8415 -103.6501 O   0  0  0  0  0  0
   87.6602   17.4463 -102.7452 H   0  0  0  0  0  0
   86.1558   16.0346 -104.4384 C   0  0  0  0  0  0
   86.0093   15.1233 -105.4988 O   0  0  0  0  0  0
   86.7002   14.4218 -105.3713 H   0  0  0  0  0  0
   86.0984   15.2837 -103.0903 C   0  0  0  0  0  0
   84.7686   14.5328 -102.9331 C   0  0  0  0  0  0
   84.7236   13.8748 -101.6954 O   0  0  0  0  0  0
   85.4583   13.2070 -101.6990 H   0  0  0  0  0  0
   87.1669   14.3552 -102.9903 O   0  0  0  0  0  0
   88.4272   15.0109 -102.9763 C   0  0  0  0  0  0
   88.5542   15.8735 -101.8402 O   0  0  0  0  0  0
   88.4154   15.4697 -100.5035 C   0  0  0  0  0  0
   88.6434   14.1441 -100.0826 C   0  0  0  0  0  0
   88.4831   13.7962  -98.7375 C   0  0  0  0  0  0
   88.0984   14.7621  -97.8042 C   0  0  0  0  0  0
   87.8739   16.0785  -98.2142 C   0  0  0  0  0  0
   88.0325   16.4299  -99.5582 C   0  0  0  0  0  0
   91.2836   14.8309 -105.3720 C   0  0  0  0  0  0
  1  2  1  0  0  0
  2  3  1  0  0  0
  3  4  2  0  0  0
  3 25  1  0  0  0
  4  5  1  0  0  0
  5  6  1  0  0  0
  6  7  1  0  0  0
  6  9  1  0  0  0
  7  8  1  0  0  0
  9 10  1  0  0  0
  9 12  1  0  0  0
 10 11  1  0  0  0
 12 13  1  0  0  0
 12 16  1  0  0  0
 13 14  1  0  0  0
 14 15  1  0  0  0
 16 17  1  0  0  0
 17 18  1  0  0  0
 17  5  1  0  0  0
 18 19  1  0  0  0
 19 20  2  0  0  0
 20 21  1  0  0  0
 21 22  2  0  0  0
 22 23  1  0  0  0
 23 24  2  0  0  0
 24 19  1  0  0  0
M  END
>  <CHROM.0>
-178.94094171,150.28412076,52.78238363

>  <CHROM.1>
172.41127738,-143.05717140,-48.93547480,66.35476668,-179.03242727,-62.63029133
-179.08730086,25.15225168,88.06368639,15.51118869,-102.55422504,-1.14533650
0.22325554,1.71780916

>  <Energy>
39.479612948464975

>  <Genealogy>
CC(O)=NC1C(Oc2ccccc2)OC(CO)C(O)C1O (tautomer)
CC(O)=N[C@@H]1[C@H](O)[C@@H](O)[C@@H](CO)O[C@@H]1Oc1ccccc1 (chirality)
C/C(O)=N\[C@@H]1[C@H](O)[C@@H](O)[C@@H](CO)O[C@@H]1Oc1ccccc1 (cis-trans isomerization)
C/C(O)=N\[C@@H]1[C@H](O)[C@@H](O)[C@@H](CO)O[C@@H]1Oc1ccccc1 (3D coordinates assigned)
C/C(O)=N\[C@@H]1[C@H](O)[C@@H](O)[C@@H](CO)O[C@@H]1Oc1ccccc1 (nonaromatic ring conformer: 39.479612948464975 kcal/mol)

>  <Name>
4282259

>  <RI>
3.62712e+07

>  <Rbt.Current_Directory>
/home/edward/Documentos/Virtual_Screening/rDock/3

>  <Rbt.Executable>
rbdock ($Id: //depot/dev/client3/rdock/2013.1/src/exe/rbdock.cxx#4 $)

>  <Rbt.Library>
libRbt.so (2013.1, Build901 2013/11/27)

>  <Rbt.Parameter_File>
/home/edward/anaconda3/envs/MD/share/rdock-2013.1-1/data/scripts/dock.prm

>  <Rbt.Receptor>
parameters.prm

>  <SCORE>
-17.1142

>  <SCORE.INTER>
-15.6602

>  <SCORE.INTER.CONST>
1

>  <SCORE.INTER.POLAR>
-2.96532

>  <SCORE.INTER.REPUL>
0.00684165

>  <SCORE.INTER.ROT>
4

>  <SCORE.INTER.VDW>
-15.0123

>  <SCORE.INTER.norm>
-0.745723

>  <SCORE.INTRA>
-3.87516

>  <SCORE.INTRA.DIHEDRAL>
-2.85565

>  <SCORE.INTRA.DIHEDRAL.0>
5.87892

>  <SCORE.INTRA.POLAR>
-0.806924

>  <SCORE.INTRA.POLAR.0>
0

>  <SCORE.INTRA.REPUL>
-0.0462726

>  <SCORE.INTRA.REPUL.0>
0.0462726

>  <SCORE.INTRA.VDW>
0.527575

>  <SCORE.INTRA.VDW.0>
-2.49237

>  <SCORE.INTRA.norm>
-0.184531

>  <SCORE.RESTR>
0

>  <SCORE.RESTR.CAVITY>
0

>  <SCORE.RESTR.norm>
0

>  <SCORE.SYSTEM>
2.42119

>  <SCORE.SYSTEM.CONST>
0

>  <SCORE.SYSTEM.DIHEDRAL>
3.8513

>  <SCORE.SYSTEM.VDW>
0.495544

>  <SCORE.SYSTEM.norm>
0.115295

>  <SCORE.heavy>
21

>  <SCORE.norm>
-0.81496

>  <SMILES>
C/C(O)=N\[C@@H]1[C@H](O)[C@@H](O)[C@@H](CO)O[C@@H]1Oc1ccccc1

>  <UniqueID>
158

$$$$
3052142
  rDOCK(R)          3D
libRbt.so/2013.1/901 2013/11/27
 30 30  0  0  0  0  0  0  0  0999 V2000
   90.9680   22.5665 -106.0521 H   0  0  0  0  0  0
   91.4405   21.6936 -106.2445 O   0  0  0  0  0  0
   91.0646   20.4830 -105.6596 C   0  0  0  0  0  0
   91.6831   19.3723 -106.0714 C   0  0  0  0  0  0
   91.3282   17.7755 -105.4281 Cl  0  0  0  0  0  0
   90.0272   20.4311 -104.6597 N   0  0  0  0  0  0
   89.5002   19.5398 -104.5179 H   0  0  0  0  0  0
   89.6299   21.5820 -103.8423 C   0  0  0  0  0  0
   88.5192   22.3902 -104.5560 C   0  0  0  0  0  0
   89.0231   22.9293 -105.7789 O   0  0  0  0  0  0
   88.2592   23.6855 -106.6761 C   0  0  0  0  0  0
   87.0526   23.9584 -106.4317 O   0  0  0  0  0  0
   88.8974   24.2174 -107.9133 C   0  0  0  0  0  0
   88.1030   23.4750 -103.7446 O   0  0  0  0  0  0
   87.4971   23.0040 -102.5526 C   0  0  0  0  0  0
   86.8558   24.1895 -101.8180 C   0  0  0  0  0  0
   85.9433   24.8760 -102.6736 O   0  0  0  0  0  0
   86.3475   25.7256 -103.7093 C   0  0  0  0  0  0
   87.5692   25.9664 -103.9092 O   0  0  0  0  0  0
   85.3178   26.3843 -104.5625 C   0  0  0  0  0  0
   88.5439   22.2835 -101.6728 C   0  0  0  0  0  0
   89.6045   23.1757 -101.3126 O   0  0  0  0  0  0
   89.5562   24.0512 -100.2217 C   0  0  0  0  0  0
   88.5614   24.0693  -99.4470 O   0  0  0  0  0  0
   90.6765   25.0099 -100.0050 C   0  0  0  0  0  0
   89.1270   21.1024 -102.4633 C   0  0  0  0  0  0
   90.2033   20.5293 -101.7165 O   0  0  0  0  0  0
   90.0735   20.0376 -100.4129 C   0  0  0  0  0  0
   88.9613   20.0583  -99.8200 O   0  0  0  0  0  0
   91.2714   19.5027  -99.7062 C   0  0  0  0  0  0
  1  2  1  0  0  0
  2  3  1  0  0  0
  3  4  2  0  0  0
  3  6  1  0  0  0
  4  5  1  0  0  0
  6  7  1  0  0  0
  6  8  1  0  0  0
  8  9  1  0  0  0
  9 10  1  0  0  0
  9 14  1  0  0  0
 10 11  1  0  0  0
 11 12  2  0  0  0
 11 13  1  0  0  0
 14 15  1  0  0  0
 15 16  1  0  0  0
 15 21  1  0  0  0
 16 17  1  0  0  0
 17 18  1  0  0  0
 18 19  2  0  0  0
 18 20  1  0  0  0
 21 22  1  0  0  0
 21 26  1  0  0  0
 22 23  1  0  0  0
 23 24  2  0  0  0
 23 25  1  0  0  0
 26 27  1  0  0  0
 26  8  1  0  0  0
 27 28  1  0  0  0
 28 29  2  0  0  0
 28 30  1  0  0  0
M  END
>  <CHROM.0>
-178.16317127,107.58442492,53.40058224

>  <CHROM.1>
174.37580264,88.94609811,178.46237406,1.28278298,55.24803766,-75.17520580
-2.56856975,84.82659099,2.45608493,178.13572204,1.08421315,89.07509494,22.36351506
-103.42169710,0.17821040,0.98053409,-1.60417788

>  <Energy>
35.619659257475114

>  <Genealogy>
CC(=O)OC[C@H]1O[C@@H](OC(C)=O)[C@H](NC(O)=CCl)[C@@H](OC(C)=O)[C@H]1OC(C)=O (tautomer)
CC(=O)OC[C@H]1O[C@@H](OC(C)=O)[C@H](N/C(O)=C/Cl)[C@@H](OC(C)=O)[C@H]1OC(C)=O (cis-trans isomerization)
CC(=O)OC[C@H]1O[C@@H](OC(C)=O)[C@H](N/C(O)=C/Cl)[C@@H](OC(C)=O)[C@H]1OC(C)=O (3D coordinates assigned)
CC(=O)OC[C@H]1O[C@@H](OC(C)=O)[C@H](N/C(O)=C/Cl)[C@@H](OC(C)=O)[C@H]1OC(C)=O (nonaromatic ring conformer: 35.619659257475114 kcal/mol)

>  <Name>
3052142

>  <RI>
3.62712e+07

>  <Rbt.Current_Directory>
/home/edward/Documentos/Virtual_Screening/rDock/3

>  <Rbt.Executable>
rbdock ($Id: //depot/dev/client3/rdock/2013.1/src/exe/rbdock.cxx#4 $)

>  <Rbt.Library>
libRbt.so (2013.1, Build901 2013/11/27)

>  <Rbt.Parameter_File>
/home/edward/anaconda3/envs/MD/share/rdock-2013.1-1/data/scripts/dock.prm

>  <Rbt.Receptor>
parameters.prm

>  <SCORE>
-8.79245

>  <SCORE.INTER>
-6.30435

>  <SCORE.INTER.CONST>
1

>  <SCORE.INTER.POLAR>
-1.7133

>  <SCORE.INTER.REPUL>
0

>  <SCORE.INTER.ROT>
10

>  <SCORE.INTER.VDW>
-15.8791

>  <SCORE.INTER.norm>
-0.225155

>  <SCORE.INTRA>
-5.6618

>  <SCORE.INTRA.DIHEDRAL>
-9.95454

>  <SCORE.INTRA.DIHEDRAL.0>
16.6567

>  <SCORE.INTRA.POLAR>
-0.592683

>  <SCORE.INTRA.POLAR.0>
0

>  <SCORE.INTRA.REPUL>
0

>  <SCORE.INTRA.REPUL.0>
0

>  <SCORE.INTRA.VDW>
1.33059

>  <SCORE.INTRA.VDW.0>
-6.04475

>  <SCORE.INTRA.norm>
-0.202207

>  <SCORE.RESTR>
0

>  <SCORE.RESTR.CAVITY>
0

>  <SCORE.RESTR.norm>
0

>  <SCORE.SYSTEM>
3.1737

>  <SCORE.SYSTEM.CONST>
0

>  <SCORE.SYSTEM.DIHEDRAL>
6.77931

>  <SCORE.SYSTEM.VDW>
-0.215957

>  <SCORE.SYSTEM.norm>
0.113346

>  <SCORE.heavy>
28

>  <SCORE.norm>
-0.314016

>  <SMILES>
CC(=O)OC[C@H]1O[C@@H](OC(C)=O)[C@H](N/C(O)=C/Cl)[C@@H](OC(C)=O)[C@H]1OC(C)=O

>  <UniqueID>
162

$$$$
2801971
  rDOCK(R)          3D
libRbt.so/2013.1/901 2013/11/27
 26 27  0  0  0  0  0  0  0  0999 V2000
   85.6882   15.4034 -103.0062 C   0  0  0  0  0  0
   86.6327   15.7014 -104.1245 C   0  0  0  0  0  0
   86.2739   15.4953 -105.3155 O   0  0  0  0  0  0
   87.9428   16.2083 -103.8361 N   0  0  0  0  0  0
   88.8871   16.5923 -104.8923 C   0  0  0  0  0  0
   89.3532   18.0470 -104.6816 C   0  0  0  0  0  0
   89.8857   18.2046 -103.3757 O   0  0  0  0  0  0
   90.2790   19.5439 -103.1641 C   0  0  0  0  0  0
   90.4978   19.7519 -101.6946 C   0  0  0  0  0  0
   90.2541   21.0055 -101.1091 C   0  0  0  0  0  0
   90.4181   21.1823  -99.7315 C   0  0  0  0  0  0
   90.8125   20.1078  -98.9291 C   0  0  0  0  0  0
   91.0379   18.8531  -99.5021 C   0  0  0  0  0  0
   90.8755   18.6721 -100.8792 C   0  0  0  0  0  0
   90.2940   18.4223 -105.6781 O   0  0  0  0  0  0
   91.4755   17.6385 -105.6102 C   0  0  0  0  0  0
   92.4760   18.2120 -106.6279 C   0  0  0  0  0  0
   92.7537   19.5616 -106.3659 O   0  0  0  0  0  0
   91.1565   16.1539 -105.9063 C   0  0  0  0  0  0
   92.3239   15.3814 -105.7857 O   0  0  0  0  0  0
   90.1000   15.6406 -104.9138 C   0  0  0  0  0  0
   89.6909   14.3538 -105.3024 O   0  0  0  0  0  0
   88.2141   16.3288 -102.8335 H   0  0  0  0  0  0
   93.1947   19.5940 -105.4770 H   0  0  0  0  0  0
   92.0800   14.4497 -106.0262 H   0  0  0  0  0  0
   89.0558   14.0294 -104.6120 H   0  0  0  0  0  0
  1  2  1  0  0  0
  2  3  2  0  0  0
  2  4  1  0  0  0
  4  5  1  0  0  0
  4 23  1  0  0  0
  5  6  1  0  0  0
  6  7  1  0  0  0
  6 15  1  0  0  0
  7  8  1  0  0  0
  8  9  1  0  0  0
  9 10  2  0  0  0
 10 11  1  0  0  0
 11 12  2  0  0  0
 12 13  1  0  0  0
 13 14  2  0  0  0
 14  9  1  0  0  0
 15 16  1  0  0  0
 16 17  1  0  0  0
 16 19  1  0  0  0
 17 18  1  0  0  0
 18 24  1  0  0  0
 19 20  1  0  0  0
 19 21  1  0  0  0
 20 25  1  0  0  0
 21 22  1  0  0  0
 21  5  1  0  0  0
 22 26  1  0  0  0
M  END
>  <CHROM.0>
-177.77951000,149.39896156,52.07920721

>  <CHROM.1>
124.86235951,-178.33213416,165.58021061,-148.81637083,58.15473645,63.68069551
-177.32762177,-62.79600315,89.96644265,17.65201066,-103.77389965,1.84753013
-0.54609764,-2.15538173

>  <Energy>
40.47160525029426

>  <Genealogy>
CC(=O)N[C@H]1[C@@H](OCc2ccccc2)O[C@H](CO)[C@@H](O)[C@@H]1O (3D coordinates assigned)
CC(=O)N[C@H]1[C@@H](OCc2ccccc2)O[C@H](CO)[C@@H](O)[C@@H]1O (nonaromatic ring conformer: 40.47160525029426 kcal/mol)

>  <Name>
2801971

>  <RI>
3.62712e+07

>  <Rbt.Current_Directory>
/home/edward/Documentos/Virtual_Screening/rDock/3

>  <Rbt.Executable>
rbdock ($Id: //depot/dev/client3/rdock/2013.1/src/exe/rbdock.cxx#4 $)

>  <Rbt.Library>
libRbt.so (2013.1, Build901 2013/11/27)

>  <Rbt.Parameter_File>
/home/edward/anaconda3/envs/MD/share/rdock-2013.1-1/data/scripts/dock.prm

>  <Rbt.Receptor>
parameters.prm

>  <SCORE>
-18.4702

>  <SCORE.INTER>
-18.8369

>  <SCORE.INTER.CONST>
1

>  <SCORE.INTER.POLAR>
-2.52483

>  <SCORE.INTER.REPUL>
0.0642926

>  <SCORE.INTER.ROT>
5

>  <SCORE.INTER.VDW>
-20.974

>  <SCORE.INTER.norm>
-0.856223

>  <SCORE.INTRA>
-2.08526

>  <SCORE.INTRA.DIHEDRAL>
-6.34268

>  <SCORE.INTRA.DIHEDRAL.0>
9.39866

>  <SCORE.INTRA.POLAR>
-0.000115624

>  <SCORE.INTRA.POLAR.0>
0

>  <SCORE.INTRA.REPUL>
0

>  <SCORE.INTRA.REPUL.0>
0

>  <SCORE.INTRA.VDW>
1.08648

>  <SCORE.INTRA.VDW.0>
-2.54408

>  <SCORE.INTRA.norm>
-0.0947844

>  <SCORE.RESTR>
0

>  <SCORE.RESTR.CAVITY>
0

>  <SCORE.RESTR.norm>
0

>  <SCORE.SYSTEM>
2.45195

>  <SCORE.SYSTEM.CONST>
0

>  <SCORE.SYSTEM.DIHEDRAL>
4.03185

>  <SCORE.SYSTEM.VDW>
0.436025

>  <SCORE.SYSTEM.norm>
0.111452

>  <SCORE.heavy>
22

>  <SCORE.norm>
-0.839555

>  <SMILES>
CC(=O)N[C@H]1[C@@H](OCc2ccccc2)O[C@H](CO)[C@@H](O)[C@@H]1O

>  <UniqueID>
164

$$$$
2733787
  rDOCK(R)          3D
libRbt.so/2013.1/901 2013/11/27
 31 33  0  0  0  0  0  0  0  0999 V2000
   91.2944   17.8222 -102.4066 H   0  0  0  0  0  0
   90.2944   17.7856 -102.5639 O   0  0  0  0  0  0
   89.5957   18.8985 -103.0313 C   0  0  0  0  0  0
   88.3084   18.8498 -103.2030 N   0  0  0  0  0  0
   87.4809   17.6632 -102.9723 C   0  0  0  0  0  0
   86.0882   18.1090 -102.4967 C   0  0  0  0  0  0
   86.2267   18.8203 -101.2671 O   0  0  0  0  0  0
   86.2936   20.2177 -101.1522 C   0  0  0  0  0  0
   86.0830   20.7878  -99.8929 C   0  0  0  0  0  0
   86.1338   22.1730  -99.7171 C   0  0  0  0  0  0
   86.3998   23.0192 -100.8105 C   0  0  0  0  0  0
   86.4619   24.4264 -100.6920 C   0  0  0  0  0  0
   86.2460   25.1280  -99.3762 C   0  0  0  0  0  0
   86.7332   25.1859 -101.8384 C   0  0  0  0  0  0
   86.9339   24.5389 -103.0595 C   0  0  0  0  0  0
   87.1780   25.2125 -104.0944 O   0  0  0  0  0  0
   86.8693   23.2151 -103.1388 O   0  0  0  0  0  0
   86.6155   22.4442 -102.0859 C   0  0  0  0  0  0
   86.5634   21.0559 -102.2502 C   0  0  0  0  0  0
   85.2636   16.9777 -102.2813 O   0  0  0  0  0  0
   84.9922   16.3209 -103.5073 C   0  0  0  0  0  0
   83.9521   15.2212 -103.2489 C   0  0  0  0  0  0
   84.4174   14.3299 -102.2708 O   0  0  0  0  0  0
   85.2300   13.8957 -102.6407 H   0  0  0  0  0  0
   86.2979   15.7273 -104.0876 C   0  0  0  0  0  0
   86.0493   15.1294 -105.3355 O   0  0  0  0  0  0
   86.7608   14.4532 -105.4841 H   0  0  0  0  0  0
   87.3393   16.8429 -104.2717 C   0  0  0  0  0  0
   88.5710   16.2629 -104.6185 O   0  0  0  0  0  0
   88.4955   15.9590 -105.5605 H   0  0  0  0  0  0
   90.3252   20.1751 -103.2988 C   0  0  0  0  0  0
  1  2  1  0  0  0
  2  3  1  0  0  0
  3  4  2  0  0  0
  3 31  1  0  0  0
  4  5  1  0  0  0
  5  6  1  0  0  0
  6  7  1  0  0  0
  6 20  1  0  0  0
  7  8  1  0  0  0
  8  9  2  0  0  0
  9 10  1  0  0  0
 10 11  2  0  0  0
 11 12  1  0  0  0
 12 13  1  0  0  0
 12 14  2  0  0  0
 14 15  1  0  0  0
 15 16  2  0  0  0
 15 17  1  0  0  0
 17 18  1  0  0  0
 18 19  2  0  0  0
 18 11  1  0  0  0
 19  8  1  0  0  0
 20 21  1  0  0  0
 21 22  1  0  0  0
 21 25  1  0  0  0
 22 23  1  0  0  0
 23 24  1  0  0  0
 25 26  1  0  0  0
 25 28  1  0  0  0
 26 27  1  0  0  0
 28 29  1  0  0  0
 28  5  1  0  0  0
 29 30  1  0  0  0
M  END
>  <CHROM.0>
-175.38155300,154.26635209,-66.93825536

>  <CHROM.1>
-178.53965289,148.11097123,96.37505845,163.77194258,-57.17635543,-63.20439841
-156.19113322,-165.21643758,86.82793035,19.64452157,-102.53033657,-1.63817171
0.51607146,0.27577375

>  <Energy>
50.85708653505314

>  <Genealogy>
CC(O)=N[C@H]1[C@H](Oc2ccc3c(C)cc(=O)oc3c2)O[C@H](CO)[C@@H](O)[C@@H]1O (tautomer)
C/C(O)=N/[C@H]1[C@H](Oc2ccc3c(C)cc(=O)oc3c2)O[C@H](CO)[C@@H](O)[C@@H]1O (cis-trans isomerization)
C/C(O)=N/[C@H]1[C@H](Oc2ccc3c(C)cc(=O)oc3c2)O[C@H](CO)[C@@H](O)[C@@H]1O (3D coordinates assigned)
C/C(O)=N/[C@H]1[C@H](Oc2ccc3c(C)cc(=O)oc3c2)O[C@H](CO)[C@@H](O)[C@@H]1O (nonaromatic ring conformer: 50.85708653505314 kcal/mol)

>  <Name>
2733787

>  <RI>
3.62712e+07

>  <Rbt.Current_Directory>
/home/edward/Documentos/Virtual_Screening/rDock/3

>  <Rbt.Executable>
rbdock ($Id: //depot/dev/client3/rdock/2013.1/src/exe/rbdock.cxx#4 $)

>  <Rbt.Library>
libRbt.so (2013.1, Build901 2013/11/27)

>  <Rbt.Parameter_File>
/home/edward/anaconda3/envs/MD/share/rdock-2013.1-1/data/scripts/dock.prm

>  <Rbt.Receptor>
parameters.prm

>  <SCORE>
-19.7591

>  <SCORE.INTER>
-20.3842

>  <SCORE.INTER.CONST>
1

>  <SCORE.INTER.POLAR>
-3.51634

>  <SCORE.INTER.REPUL>
0.00754167

>  <SCORE.INTER.ROT>
4

>  <SCORE.INTER.VDW>
-17.8664

>  <SCORE.INTER.norm>
-0.754971

>  <SCORE.INTRA>
-1.16098

>  <SCORE.INTRA.DIHEDRAL>
-1.99751

>  <SCORE.INTRA.DIHEDRAL.0>
11.8054

>  <SCORE.INTRA.POLAR>
0

>  <SCORE.INTRA.POLAR.0>
0

>  <SCORE.INTRA.REPUL>
0

>  <SCORE.INTRA.REPUL.0>
0

>  <SCORE.INTRA.VDW>
-0.162225

>  <SCORE.INTRA.VDW.0>
-2.22005

>  <SCORE.INTRA.norm>
-0.0429993

>  <SCORE.RESTR>
0

>  <SCORE.RESTR.CAVITY>
0

>  <SCORE.RESTR.norm>
0

>  <SCORE.SYSTEM>
1.78615

>  <SCORE.SYSTEM.CONST>
0

>  <SCORE.SYSTEM.DIHEDRAL>
3.211

>  <SCORE.SYSTEM.VDW>
0.180645

>  <SCORE.SYSTEM.norm>
0.0661536

>  <SCORE.heavy>
27

>  <SCORE.norm>
-0.731817

>  <SMILES>
C/C(O)=N/[C@H]1[C@H](Oc2ccc3c(C)cc(=O)oc3c2)O[C@H](CO)[C@@H](O)[C@@H]1O

>  <UniqueID>
166

$$$$
2733335
  rDOCK(R)          3D
libRbt.so/2013.1/901 2013/11/27
 23 23  0  0  0  0  0  0  0  0999 V2000
   83.5301   18.7641 -102.1927 H   0  0  0  0  0  0
   84.1712   18.5224 -102.9383 O   0  0  0  0  0  0
   85.3560   17.8384 -102.6802 C   0  0  0  0  0  0
   86.2359   17.7394 -103.6348 N   0  0  0  0  0  0
   87.5094   17.0128 -103.5884 C   0  0  0  0  0  0
   87.3066   15.5210 -103.9384 C   0  0  0  0  0  0
   86.6089   15.3800 -105.1514 O   0  0  0  0  0  0
   86.5361   14.4046 -105.3203 H   0  0  0  0  0  0
   88.5446   14.8257 -103.9728 O   0  0  0  0  0  0
   89.4132   15.3483 -104.9666 C   0  0  0  0  0  0
   90.6634   14.4581 -105.0376 C   0  0  0  0  0  0
   90.3169   13.0986 -104.9926 O   0  0  0  0  0  0
   91.1645   12.5831 -105.0233 H   0  0  0  0  0  0
   89.7780   16.8190 -104.6621 C   0  0  0  0  0  0
   90.6039   17.3198 -105.6831 O   0  0  0  0  0  0
   90.0960   17.2392 -106.5322 H   0  0  0  0  0  0
   88.4914   17.6586 -104.5770 C   0  0  0  0  0  0
   88.7947   18.9595 -104.1406 O   0  0  0  0  0  0
   87.9368   19.4568 -104.0933 H   0  0  0  0  0  0
   85.5707   17.2522 -101.3860 N   0  0  0  0  0  0
   86.6951   17.6418 -100.6381 N   0  0  0  0  0  0
   87.5276   18.4548 -101.0904 O   0  0  0  0  0  0
   84.4976   16.4831 -100.7564 C   0  0  0  0  0  0
  1  2  1  0  0  0
  2  3  1  0  0  0
  3  4  2  0  0  0
  3 20  1  0  0  0
  4  5  1  0  0  0
  5  6  1  0  0  0
  6  7  1  0  0  0
  6  9  1  0  0  0
  7  8  1  0  0  0
  9 10  1  0  0  0
 10 11  1  0  0  0
 10 14  1  0  0  0
 11 12  1  0  0  0
 12 13  1  0  0  0
 14 15  1  0  0  0
 14 17  1  0  0  0
 15 16  1  0  0  0
 17 18  1  0  0  0
 17  5  1  0  0  0
 18 19  1  0  0  0
 20 21  1  0  0  0
 20 23  1  0  0  0
 21 22  2  0  0  0
M  END
>  <CHROM.0>
-179.36671659,154.09957140,51.59408785

>  <CHROM.1>
-169.35806347,85.08980847,178.68046509,43.35098994,-178.87257507,59.00591660
-58.79812625,-2.07959544,87.68631518,16.67403865,-103.57153951,-2.64777961
-0.58535645,-3.04185678

>  <Energy>
34.748305563478894

>  <Genealogy>
CN(N=O)C(O)=N[C@H]1C(O)O[C@H](CO)[C@@H](O)[C@@H]1O (tautomer)
CN(N=O)C(O)=N[C@H]1[C@@H](O)O[C@H](CO)[C@@H](O)[C@@H]1O (chirality)
CN(N=O)/C(O)=N/[C@H]1[C@@H](O)O[C@H](CO)[C@@H](O)[C@@H]1O (cis-trans isomerization)
CN(N=O)/C(O)=N/[C@H]1[C@@H](O)O[C@H](CO)[C@@H](O)[C@@H]1O (3D coordinates assigned)
CN(N=O)/C(O)=N/[C@H]1[C@@H](O)O[C@H](CO)[C@@H](O)[C@@H]1O (nonaromatic ring conformer: 34.748305563478894 kcal/mol)

>  <Name>
2733335

>  <RI>
3.62712e+07

>  <Rbt.Current_Directory>
/home/edward/Documentos/Virtual_Screening/rDock/3

>  <Rbt.Executable>
rbdock ($Id: //depot/dev/client3/rdock/2013.1/src/exe/rbdock.cxx#4 $)

>  <Rbt.Library>
libRbt.so (2013.1, Build901 2013/11/27)

>  <Rbt.Parameter_File>
/home/edward/anaconda3/envs/MD/share/rdock-2013.1-1/data/scripts/dock.prm

>  <Rbt.Receptor>
parameters.prm

>  <SCORE>
-17.4692

>  <SCORE.INTER>
-15.2435

>  <SCORE.INTER.CONST>
1

>  <SCORE.INTER.POLAR>
-3.76136

>  <SCORE.INTER.REPUL>
0.390457

>  <SCORE.INTER.ROT>
3

>  <SCORE.INTER.VDW>
-12.8072

>  <SCORE.INTER.norm>
-0.846862

>  <SCORE.INTRA>
-4.61171

>  <SCORE.INTRA.DIHEDRAL>
-8.62204

>  <SCORE.INTRA.DIHEDRAL.0>
12.1354

>  <SCORE.INTRA.POLAR>
-0.0165034

>  <SCORE.INTRA.POLAR.0>
0

>  <SCORE.INTRA.REPUL>
0

>  <SCORE.INTRA.REPUL.0>
0

>  <SCORE.INTRA.VDW>
-0.244576

>  <SCORE.INTRA.VDW.0>
-1.29578

>  <SCORE.INTRA.norm>
-0.256206

>  <SCORE.RESTR>
0

>  <SCORE.RESTR.CAVITY>
0

>  <SCORE.RESTR.norm>
0

>  <SCORE.SYSTEM>
2.38607

>  <SCORE.SYSTEM.CONST>
0

>  <SCORE.SYSTEM.DIHEDRAL>
3.12989

>  <SCORE.SYSTEM.VDW>
0.821128

>  <SCORE.SYSTEM.norm>
0.13256

>  <SCORE.heavy>
18

>  <SCORE.norm>
-0.970509

>  <SMILES>
CN(N=O)/C(O)=N/[C@H]1[C@@H](O)O[C@H](CO)[C@@H](O)[C@@H]1O

>  <UniqueID>
169

$$$$
644170
  rDOCK(R)          3D
libRbt.so/2013.1/901 2013/11/27
 20 20  0  0  0  0  0  0  0  0999 V2000
   89.8517   18.0558 -105.1640 C   0  0  0  0  0  0
   89.2180   16.9365 -104.4043 C   0  0  0  0  0  0
   89.9457   16.1019 -103.8016 O   0  0  0  0  0  0
   87.7900   16.8043 -104.3856 N   0  0  0  0  0  0
   87.1097   15.7531 -103.6197 C   0  0  0  0  0  0
   85.6669   15.5440 -104.1292 C   0  0  0  0  0  0
   85.7079   15.1420 -105.4744 O   0  0  0  0  0  0
   85.0141   14.5208 -103.3951 O   0  0  0  0  0  0
   84.8908   14.8218 -102.0104 C   0  0  0  0  0  0
   83.8304   15.9074 -101.7220 C   0  0  0  0  0  0
   84.1218   17.0766 -102.4390 O   0  0  0  0  0  0
   86.2596   15.0886 -101.3367 C   0  0  0  0  0  0
   86.9627   13.8740 -101.2543 O   0  0  0  0  0  0
   87.0984   16.1143 -102.1258 C   0  0  0  0  0  0
   86.5892   17.4121 -101.9485 O   0  0  0  0  0  0
   87.2221   17.5092 -104.9088 H   0  0  0  0  0  0
   86.2013   14.2814 -105.5137 H   0  0  0  0  0  0
   83.4655   17.7615 -102.1465 H   0  0  0  0  0  0
   87.0435   13.5225 -102.1796 H   0  0  0  0  0  0
   86.6128   17.6000 -100.9739 H   0  0  0  0  0  0
  1  2  1  0  0  0
  2  3  2  0  0  0
  2  4  1  0  0  0
  4  5  1  0  0  0
  4 16  1  0  0  0
  5  6  1  0  0  0
  6  7  1  0  0  0
  6  8  1  0  0  0
  7 17  1  0  0  0
  8  9  1  0  0  0
  9 10  1  0  0  0
  9 12  1  0  0  0
 10 11  1  0  0  0
 11 18  1  0  0  0
 12 13  1  0  0  0
 12 14  1  0  0  0
 13 19  1  0  0  0
 14 15  1  0  0  0
 14  5  1  0  0  0
 15 20  1  0  0  0
M  END
>  <CHROM.0>
179.65918405,154.73463505,-69.29049955

>  <CHROM.1>
-161.19002660,61.32873364,-56.61709410,-174.46161823,57.47904466,-179.34907203
86.64445628,15.94563861,-103.15130022,0.54431728,-0.15475860,-1.22662576

>  <Energy>
28.672690388670603

>  <Genealogy>
CC(=O)N[C@@H]1[C@@H](O)O[C@H](CO)[C@@H](O)[C@@H]1O (3D coordinates assigned)
CC(=O)N[C@@H]1[C@@H](O)O[C@H](CO)[C@@H](O)[C@@H]1O (nonaromatic ring conformer: 28.672690388670603 kcal/mol)

>  <Name>
644170

>  <RI>
3.62712e+07

>  <Rbt.Current_Directory>
/home/edward/Documentos/Virtual_Screening/rDock/3

>  <Rbt.Executable>
rbdock ($Id: //depot/dev/client3/rdock/2013.1/src/exe/rbdock.cxx#4 $)

>  <Rbt.Library>
libRbt.so (2013.1, Build901 2013/11/27)

>  <Rbt.Parameter_File>
/home/edward/anaconda3/envs/MD/share/rdock-2013.1-1/data/scripts/dock.prm

>  <Rbt.Receptor>
parameters.prm

>  <SCORE>
-16.8019

>  <SCORE.INTER>
-15.7769

>  <SCORE.INTER.CONST>
1

>  <SCORE.INTER.POLAR>
-4.10344

>  <SCORE.INTER.REPUL>
0

>  <SCORE.INTER.ROT>
2

>  <SCORE.INTER.VDW>
-9.22524

>  <SCORE.INTER.norm>
-1.05179

>  <SCORE.INTRA>
-2.78684

>  <SCORE.INTRA.DIHEDRAL>
-7.75554

>  <SCORE.INTRA.DIHEDRAL.0>
9.37993

>  <SCORE.INTRA.POLAR>
0

>  <SCORE.INTRA.POLAR.0>
0

>  <SCORE.INTRA.REPUL>
0

>  <SCORE.INTRA.REPUL.0>
0

>  <SCORE.INTRA.VDW>
1.09093

>  <SCORE.INTRA.VDW.0>
-1.81929

>  <SCORE.INTRA.norm>
-0.185789

>  <SCORE.RESTR>
0

>  <SCORE.RESTR.CAVITY>
0

>  <SCORE.RESTR.norm>
0

>  <SCORE.SYSTEM>
1.76188

>  <SCORE.SYSTEM.CONST>
0

>  <SCORE.SYSTEM.DIHEDRAL>
3.01119

>  <SCORE.SYSTEM.VDW>
0.256286

>  <SCORE.SYSTEM.norm>
0.117459

>  <SCORE.heavy>
15

>  <SCORE.norm>
-1.12013

>  <SMILES>
CC(=O)N[C@@H]1[C@@H](O)O[C@H](CO)[C@@H](O)[C@@H]1O

>  <UniqueID>
174

$$$$
449462
  rDOCK(R)          3D
libRbt.so/2013.1/901 2013/11/27
 19 19  0  0  0  0  0  0  0  0999 V2000
   92.5397   16.9516 -105.0065 N   0  3  0  0  0  0
   91.3323   16.3575 -104.4145 C   0  0  0  0  0  0
   90.2717   17.4483 -104.1121 C   0  0  0  0  0  0
   90.7810   18.3471 -103.1606 O   0  0  0  0  0  0
   89.0991   16.8641 -103.5714 O   0  0  0  0  0  0
   88.4729   16.0204 -104.5229 C   0  0  0  0  0  0
   87.1024   15.5978 -103.9732 C   0  0  0  0  0  0
   87.2314   15.0243 -102.6991 O   0  0  0  0  0  0
   89.3728   14.8010 -104.8203 C   0  0  0  0  0  0
   89.5607   14.0514 -103.6445 O   0  0  0  0  0  0
   90.7273   15.2929 -105.3606 C   0  0  0  0  0  0
   91.6016   14.1992 -105.4897 O   0  0  0  0  0  0
   92.9769   17.6231 -104.3354 H   0  0  0  0  0  0
   92.3059   17.4538 -105.8941 H   0  0  0  0  0  0
   93.2456   16.2074 -105.2077 H   0  0  0  0  0  0
   91.2187   17.8105 -102.4488 H   0  0  0  0  0  0
   86.3187   14.7696 -102.4034 H   0  0  0  0  0  0
   90.1431   13.2828 -103.8802 H   0  0  0  0  0  0
   91.8272   13.8924 -104.5728 H   0  0  0  0  0  0
  1  2  1  0  0  0
  1 13  1  0  0  0
  1 14  1  0  0  0
  1 15  1  0  0  0
  2  3  1  0  0  0
  3  4  1  0  0  0
  3  5  1  0  0  0
  4 16  1  0  0  0
  5  6  1  0  0  0
  6  7  1  0  0  0
  6  9  1  0  0  0
  7  8  1  0  0  0
  8 17  1  0  0  0
  9 10  1  0  0  0
  9 11  1  0  0  0
 10 18  1  0  0  0
 11 12  1  0  0  0
 11  2  1  0  0  0
 12 19  1  0  0  0
M  END
>  <CHROM.0>
-179.95637794,154.72863327,-64.23729219

>  <CHROM.1>
61.86466525,-44.46935706,-54.09130463,-179.68028150,-179.88875088,52.56136292
89.87631855,15.89708577,-104.18631573,0.18319992,0.37571601,0.34191136

>  <Energy>
24.167721575295623

>  <Genealogy>
[NH3+][C@H]1[C@H](O)O[C@H](CO)[C@H](O)[C@@H]1O (protonated)
[NH3+][C@H]1[C@H](O)O[C@H](CO)[C@H](O)[C@@H]1O (3D coordinates assigned)
[NH3+][C@H]1[C@H](O)O[C@H](CO)[C@H](O)[C@@H]1O (nonaromatic ring conformer: 24.167721575295623 kcal/mol)

>  <Name>
449462

>  <RI>
3.62712e+07

>  <Rbt.Current_Directory>
/home/edward/Documentos/Virtual_Screening/rDock/3

>  <Rbt.Executable>
rbdock ($Id: //depot/dev/client3/rdock/2013.1/src/exe/rbdock.cxx#4 $)

>  <Rbt.Library>
libRbt.so (2013.1, Build901 2013/11/27)

>  <Rbt.Parameter_File>
/home/edward/anaconda3/envs/MD/share/rdock-2013.1-1/data/scripts/dock.prm

>  <Rbt.Receptor>
parameters.prm

>  <SCORE>
-24.086

>  <SCORE.INTER>
-20.1318

>  <SCORE.INTER.CONST>
1

>  <SCORE.INTER.POLAR>
-4.08612

>  <SCORE.INTER.REPUL>
0.0641151

>  <SCORE.INTER.ROT>
1

>  <SCORE.INTER.VDW>
-12.9596

>  <SCORE.INTER.norm>
-1.67765

>  <SCORE.INTRA>
-5.71785

>  <SCORE.INTRA.DIHEDRAL>
-13.9282

>  <SCORE.INTRA.DIHEDRAL.0>
15.4703

>  <SCORE.INTRA.POLAR>
0

>  <SCORE.INTRA.POLAR.0>
0

>  <SCORE.INTRA.REPUL>
0

>  <SCORE.INTRA.REPUL.0>
0

>  <SCORE.INTRA.VDW>
1.24625

>  <SCORE.INTRA.VDW.0>
-1.27915

>  <SCORE.INTRA.norm>
-0.476487

>  <SCORE.RESTR>
0.00076782

>  <SCORE.RESTR.CAVITY>
0.00076782

>  <SCORE.RESTR.norm>
6.3985e-05

>  <SCORE.SYSTEM>
1.76295

>  <SCORE.SYSTEM.CONST>
0

>  <SCORE.SYSTEM.DIHEDRAL>
3.06128

>  <SCORE.SYSTEM.VDW>
0.232316

>  <SCORE.SYSTEM.norm>
0.146913

>  <SCORE.heavy>
12

>  <SCORE.norm>
-2.00716

>  <SMILES>
[NH3+][C@H]1[C@H](O)O[C@H](CO)[C@H](O)[C@@H]1O

>  <UniqueID>
176

$$$$
448882
  rDOCK(R)          3D
libRbt.so/2013.1/901 2013/11/27
 20 20  0  0  0  0  0  0  0  0999 V2000
   89.5439   24.4363 -103.9664 H   0  0  0  0  0  0
   89.7967   23.4938 -104.2380 O   0  0  0  0  0  0
   88.8241   22.5593 -104.5933 C   0  0  0  0  0  0
   89.1557   21.3380 -104.8879 N   0  0  0  0  0  0
   90.5331   20.8367 -104.9122 C   0  0  0  0  0  0
   90.6782   19.6869 -103.8969 C   0  0  0  0  0  0
   90.3196   20.1612 -102.6086 O   0  0  0  0  0  0
   90.6333   19.2126 -101.6111 C   0  0  0  0  0  0
   89.7957   18.6269 -104.2219 O   0  0  0  0  0  0
   90.0768   18.0276 -105.4810 C   0  0  0  0  0  0
   91.2318   16.9995 -105.4061 C   0  0  0  0  0  0
   92.4602   17.5891 -105.0767 O   0  0  0  0  0  0
   92.4708   17.7153 -104.0922 H   0  0  0  0  0  0
   90.1254   19.0459 -106.6561 C   0  0  0  0  0  0
   90.6437   18.4370 -107.8116 O   0  0  0  0  0  0
   90.0242   17.6987 -108.0508 H   0  0  0  0  0  0
   90.9037   20.3349 -106.3203 C   0  0  0  0  0  0
   92.2872   20.1119 -106.4098 O   0  0  0  0  0  0
   92.5218   19.4610 -105.6976 H   0  0  0  0  0  0
   87.3820   22.9514 -104.5981 C   0  0  0  0  0  0
  1  2  1  0  0  0
  2  3  1  0  0  0
  3  4  2  0  0  0
  3 20  1  0  0  0
  4  5  1  0  0  0
  5  6  1  0  0  0
  6  7  1  0  0  0
  6  9  1  0  0  0
  7  8  1  0  0  0
  9 10  1  0  0  0
 10 11  1  0  0  0
 10 14  1  0  0  0
 11 12  1  0  0  0
 12 13  1  0  0  0
 14 15  1  0  0  0
 14 17  1  0  0  0
 15 16  1  0  0  0
 17 18  1  0  0  0
 17  5  1  0  0  0
 18 19  1  0  0  0
M  END
>  <CHROM.0>
-77.39130344,153.90904986,-66.53013779

>  <CHROM.1>
-177.20838877,119.92223640,-170.79346313,-64.97029552,80.68288764,61.68073432
57.17101809,90.34475975,19.94486702,-104.91260020,2.89990283,-1.09791918
1.65084783

>  <Energy>
38.75771050580736

>  <Genealogy>
CO[C@H]1O[C@H](CO)[C@H](O)[C@H](O)[C@H]1N=C(C)O (tautomer)
CO[C@H]1O[C@H](CO)[C@H](O)[C@H](O)[C@H]1/N=C(/C)O (cis-trans isomerization)
CO[C@H]1O[C@H](CO)[C@H](O)[C@H](O)[C@H]1/N=C(/C)O (3D coordinates assigned)
CO[C@H]1O[C@H](CO)[C@H](O)[C@H](O)[C@H]1/N=C(/C)O (nonaromatic ring conformer: 38.75771050580736 kcal/mol)

>  <Name>
448882

>  <RI>
3.62712e+07

>  <Rbt.Current_Directory>
/home/edward/Documentos/Virtual_Screening/rDock/3

>  <Rbt.Executable>
rbdock ($Id: //depot/dev/client3/rdock/2013.1/src/exe/rbdock.cxx#4 $)

>  <Rbt.Library>
libRbt.so (2013.1, Build901 2013/11/27)

>  <Rbt.Parameter_File>
/home/edward/anaconda3/envs/MD/share/rdock-2013.1-1/data/scripts/dock.prm

>  <Rbt.Receptor>
parameters.prm

>  <SCORE>
-20.2252

>  <SCORE.INTER>
-14.4934

>  <SCORE.INTER.CONST>
1

>  <SCORE.INTER.POLAR>
-3.13547

>  <SCORE.INTER.REPUL>
0

>  <SCORE.INTER.ROT>
3

>  <SCORE.INTER.VDW>
-12.2328

>  <SCORE.INTER.norm>
-0.905836

>  <SCORE.INTRA>
-8.96759

>  <SCORE.INTRA.DIHEDRAL>
-13.4038

>  <SCORE.INTRA.DIHEDRAL.0>
16.5158

>  <SCORE.INTRA.POLAR>
-0.895081

>  <SCORE.INTRA.POLAR.0>
0

>  <SCORE.INTRA.REPUL>
0

>  <SCORE.INTRA.REPUL.0>
0

>  <SCORE.INTRA.VDW>
0.777573

>  <SCORE.INTRA.VDW.0>
-2.08049

>  <SCORE.INTRA.norm>
-0.560474

>  <SCORE.RESTR>
0

>  <SCORE.RESTR.CAVITY>
0

>  <SCORE.RESTR.norm>
0

>  <SCORE.SYSTEM>
3.23572

>  <SCORE.SYSTEM.CONST>
0

>  <SCORE.SYSTEM.DIHEDRAL>
4.56819

>  <SCORE.SYSTEM.VDW>
0.951629

>  <SCORE.SYSTEM.norm>
0.202233

>  <SCORE.heavy>
16

>  <SCORE.norm>
-1.26408

>  <SMILES>
CO[C@H]1O[C@H](CO)[C@H](O)[C@H](O)[C@H]1/N=C(/C)O

>  <UniqueID>
180

$$$$
447448
  rDOCK(R)          3D
libRbt.so/2013.1/901 2013/11/27
 22 22  0  0  0  0  0  0  0  0999 V2000
   93.5875   16.7505 -105.6798 H   0  0  0  0  0  0
   92.8801   17.3983 -106.0065 O   0  0  0  0  0  0
   91.5918   17.3837 -105.4793 C   0  0  0  0  0  0
   91.2987   16.5060 -104.5598 N   0  0  0  0  0  0
   90.0147   16.3113 -103.8770 C   0  0  0  0  0  0
   89.5140   17.6538 -103.3009 C   0  0  0  0  0  0
   90.4200   18.1402 -102.3458 O   0  0  0  0  0  0
   90.4724   17.4646 -101.6201 H   0  0  0  0  0  0
   88.2374   17.4965 -102.7005 O   0  0  0  0  0  0
   87.2613   17.1590 -103.6732 C   0  0  0  0  0  0
   85.8808   17.1660 -103.0002 C   0  0  0  0  0  0
   84.8666   17.0777 -103.9652 O   0  0  0  0  0  0
   85.0663   16.2786 -104.5194 H   0  0  0  0  0  0
   87.5720   15.7706 -104.2820 C   0  0  0  0  0  0
   86.6443   15.4615 -105.2922 O   0  0  0  0  0  0
   86.8002   14.5170 -105.5549 H   0  0  0  0  0  0
   88.9848   15.7854 -104.8937 C   0  0  0  0  0  0
   89.3440   14.5065 -105.3566 O   0  0  0  0  0  0
   89.4411   13.9141 -104.5656 H   0  0  0  0  0  0
   90.6179   18.4220 -105.9717 C   0  0  0  0  0  0
   91.1275   19.8323 -105.6559 C   0  0  0  0  0  0
   90.1776   20.8954 -106.1989 C   0  0  0  0  0  0
  1  2  1  0  0  0
  2  3  1  0  0  0
  3  4  2  0  0  0
  3 20  1  0  0  0
  4  5  1  0  0  0
  5  6  1  0  0  0
  6  7  1  0  0  0
  6  9  1  0  0  0
  7  8  1  0  0  0
  9 10  1  0  0  0
 10 11  1  0  0  0
 10 14  1  0  0  0
 11 12  1  0  0  0
 12 13  1  0  0  0
 14 15  1  0  0  0
 14 17  1  0  0  0
 15 16  1  0  0  0
 17 18  1  0  0  0
 17  5  1  0  0  0
 18 19  1  0  0  0
 20 21  1  0  0  0
 21 22  1  0  0  0
M  END
>  <CHROM.0>
-177.93889185,150.24451133,-70.55719063

>  <CHROM.1>
-0.77077039,-60.78598530,-51.77225492,-60.73333906,169.33497731,53.81168468
-171.76505854,56.06452223,177.71955118,89.17227971,17.20549991,-104.49947087
-0.31967339,-0.32398142,-3.05339382

>  <Energy>
29.062088171983618

>  <Genealogy>
CCCC(O)=N[C@H]1[C@H](O)O[C@H](CO)[C@@H](O)[C@@H]1O (tautomer)
CCC/C(O)=N/[C@H]1[C@H](O)O[C@H](CO)[C@@H](O)[C@@H]1O (cis-trans isomerization)
CCC/C(O)=N/[C@H]1[C@H](O)O[C@H](CO)[C@@H](O)[C@@H]1O (3D coordinates assigned)
CCC/C(O)=N/[C@H]1[C@H](O)O[C@H](CO)[C@@H](O)[C@@H]1O (nonaromatic ring conformer: 29.062088171983618 kcal/mol)

>  <Name>
447448

>  <RI>
3.62712e+07

>  <Rbt.Current_Directory>
/home/edward/Documentos/Virtual_Screening/rDock/3

>  <Rbt.Executable>
rbdock ($Id: //depot/dev/client3/rdock/2013.1/src/exe/rbdock.cxx#4 $)

>  <Rbt.Library>
libRbt.so (2013.1, Build901 2013/11/27)

>  <Rbt.Parameter_File>
/home/edward/anaconda3/envs/MD/share/rdock-2013.1-1/data/scripts/dock.prm

>  <Rbt.Receptor>
parameters.prm

>  <SCORE>
-20.0456

>  <SCORE.INTER>
-18.1718

>  <SCORE.INTER.CONST>
1

>  <SCORE.INTER.POLAR>
-3.60086

>  <SCORE.INTER.REPUL>
0

>  <SCORE.INTER.ROT>
4

>  <SCORE.INTER.VDW>
-15.3289

>  <SCORE.INTER.norm>
-1.06893

>  <SCORE.INTRA>
-3.67235

>  <SCORE.INTRA.DIHEDRAL>
-5.17943

>  <SCORE.INTRA.DIHEDRAL.0>
9.91452

>  <SCORE.INTRA.POLAR>
-0.730766

>  <SCORE.INTRA.POLAR.0>
0

>  <SCORE.INTRA.REPUL>
0

>  <SCORE.INTRA.REPUL.0>
0

>  <SCORE.INTRA.VDW>
1.40197

>  <SCORE.INTRA.VDW.0>
-2.41821

>  <SCORE.INTRA.norm>
-0.21602

>  <SCORE.RESTR>
0

>  <SCORE.RESTR.CAVITY>
0

>  <SCORE.RESTR.norm>
0

>  <SCORE.SYSTEM>
1.79855

>  <SCORE.SYSTEM.CONST>
0

>  <SCORE.SYSTEM.DIHEDRAL>
3.87056

>  <SCORE.SYSTEM.VDW>
-0.136729

>  <SCORE.SYSTEM.norm>
0.105797

>  <SCORE.heavy>
17

>  <SCORE.norm>
-1.17915

>  <SMILES>
CCC/C(O)=N/[C@H]1[C@H](O)O[C@H](CO)[C@@H](O)[C@@H]1O

>  <UniqueID>
183

$$$$
446101
  rDOCK(R)          3D
libRbt.so/2013.1/901 2013/11/27
 23 23  0  0  0  0  0  0  0  0999 V2000
   91.7615   12.9192 -105.9495 H   0  0  0  0  0  0
   90.9101   13.1571 -105.4549 O   0  0  0  0  0  0
   90.5120   14.4799 -105.2786 C   0  0  0  0  0  0
   89.3901   14.7087 -104.6573 N   0  0  0  0  0  0
   88.7982   16.0167 -104.3543 C   0  0  0  0  0  0
   87.2765   15.8514 -104.1738 C   0  0  0  0  0  0
   86.7210   15.4248 -105.3881 O   0  0  0  0  0  0
   87.0333   14.4928 -105.5276 H   0  0  0  0  0  0
   86.6795   17.0854 -103.8057 O   0  0  0  0  0  0
   87.1489   17.5024 -102.5341 C   0  0  0  0  0  0
   86.3026   18.6937 -102.0608 C   0  0  0  0  0  0
   86.2541   19.6906 -103.0470 O   0  0  0  0  0  0
   87.1824   19.8304 -103.3647 H   0  0  0  0  0  0
   88.6544   17.8523 -102.6173 C   0  0  0  0  0  0
   88.8452   18.8724 -103.5843 O   0  0  0  0  0  0
   90.2015   19.8224 -103.2065 S   0  0  0  0  0  0
   89.7671   21.1825 -102.7395 O   0  0  0  0  0  0
   91.0372   19.1672 -102.1426 O   0  0  0  0  0  0
   91.1342   19.9978 -104.5919 O   0  5  0  0  0  0
   89.4122   16.5822 -103.0578 C   0  0  0  0  0  0
   90.7711   16.8676 -103.2591 O   0  0  0  0  0  0
   91.0984   17.3045 -102.4299 H   0  0  0  0  0  0
   91.3671   15.5872 -105.8331 C   0  0  0  0  0  0
  1  2  1  0  0  0
  2  3  1  0  0  0
  3  4  2  0  0  0
  3 23  1  0  0  0
  4  5  1  0  0  0
  5  6  1  0  0  0
  6  7  1  0  0  0
  6  9  1  0  0  0
  7  8  1  0  0  0
  9 10  1  0  0  0
 10 11  1  0  0  0
 10 14  1  0  0  0
 11 12  1  0  0  0
 12 13  1  0  0  0
 14 15  1  0  0  0
 14 20  1  0  0  0
 15 16  1  0  0  0
 16 17  2  0  0  0
 16 18  2  0  0  0
 16 19  1  0  0  0
 20 21  1  0  0  0
 20  5  1  0  0  0
 21 22  1  0  0  0
M  END
>  <CHROM.0>
-177.21219087,153.92686801,52.92243462

>  <CHROM.1>
178.52412451,156.24242296,69.53267085,-51.89163101,-47.07345780,151.29024694
-108.41230439,174.84920666,89.10191144,17.48864857,-103.75521236,-1.43931201
0.14935894,0.38180065

>  <Energy>
32.97566668084877

>  <Genealogy>
CC(=O)N[C@H]1[C@H](O)O[C@H](CO)[C@H](OS(=O)(=O)[O-])[C@@H]1O (protonated)
CC(O)=N[C@H]1[C@H](O)O[C@H](CO)[C@H](OS(=O)(=O)[O-])[C@@H]1O (tautomer)
C/C(O)=N/[C@H]1[C@H](O)O[C@H](CO)[C@H](OS(=O)(=O)[O-])[C@@H]1O (cis-trans isomerization)
C/C(O)=N/[C@H]1[C@H](O)O[C@H](CO)[C@H](OS(=O)(=O)[O-])[C@@H]1O (3D coordinates assigned)
C/C(O)=N/[C@H]1[C@H](O)O[C@H](CO)[C@H](OS(=O)(=O)[O-])[C@@H]1O (nonaromatic ring conformer: 32.97566668084877 kcal/mol)

>  <Name>
446101

>  <RI>
3.62712e+07

>  <Rbt.Current_Directory>
/home/edward/Documentos/Virtual_Screening/rDock/3

>  <Rbt.Executable>
rbdock ($Id: //depot/dev/client3/rdock/2013.1/src/exe/rbdock.cxx#4 $)

>  <Rbt.Library>
libRbt.so (2013.1, Build901 2013/11/27)

>  <Rbt.Parameter_File>
/home/edward/anaconda3/envs/MD/share/rdock-2013.1-1/data/scripts/dock.prm

>  <Rbt.Receptor>
parameters.prm

>  <SCORE>
-16.535

>  <SCORE.INTER>
-13.4423

>  <SCORE.INTER.CONST>
1

>  <SCORE.INTER.POLAR>
-1.92249

>  <SCORE.INTER.REPUL>
0.0282266

>  <SCORE.INTER.ROT>
4

>  <SCORE.INTER.VDW>
-16.4469

>  <SCORE.INTER.norm>
-0.707487

>  <SCORE.INTRA>
-5.50212

>  <SCORE.INTRA.DIHEDRAL>
-6.10378

>  <SCORE.INTRA.DIHEDRAL.0>
13.7437

>  <SCORE.INTRA.POLAR>
-1.21766

>  <SCORE.INTRA.POLAR.0>
0

>  <SCORE.INTRA.REPUL>
0

>  <SCORE.INTRA.REPUL.0>
0

>  <SCORE.INTRA.VDW>
1.68983

>  <SCORE.INTRA.VDW.0>
-3.30482

>  <SCORE.INTRA.norm>
-0.289585

>  <SCORE.RESTR>
0

>  <SCORE.RESTR.CAVITY>
0

>  <SCORE.RESTR.norm>
0

>  <SCORE.SYSTEM>
2.40935

>  <SCORE.SYSTEM.CONST>
0

>  <SCORE.SYSTEM.DIHEDRAL>
3.20566

>  <SCORE.SYSTEM.VDW>
0.806523

>  <SCORE.SYSTEM.norm>
0.126808

>  <SCORE.heavy>
19

>  <SCORE.norm>
-0.870264

>  <SMILES>
C/C(O)=N/[C@H]1[C@H](O)O[C@H](CO)[C@H](OS(=O)(=O)[O-])[C@@H]1O

>  <UniqueID>
185

$$$$
445621
  rDOCK(R)          3D
libRbt.so/2013.1/901 2013/11/27
 19 19  0  0  0  0  0  0  0  0999 V2000
   92.6813   17.6329 -105.5477 N   0  3  0  0  0  0
   91.4322   17.2635 -104.8670 C   0  0  0  0  0  0
   90.3558   18.3628 -105.0322 C   0  0  0  0  0  0
   90.1053   18.6488 -106.3887 O   0  0  0  0  0  0
   89.1557   17.9971 -104.3709 O   0  0  0  0  0  0
   88.5833   16.8204 -104.9235 C   0  0  0  0  0  0
   87.2341   16.5846 -104.2224 C   0  0  0  0  0  0
   86.4056   15.7420 -104.9779 O   0  0  0  0  0  0
   89.5321   15.6110 -104.7383 C   0  0  0  0  0  0
   88.9738   14.4720 -105.3433 O   0  0  0  0  0  0
   90.8979   15.9137 -105.3816 C   0  0  0  0  0  0
   91.8128   14.8978 -105.0570 O   0  0  0  0  0  0
   92.5225   17.7698 -106.5723 H   0  0  0  0  0  0
   93.3934   16.8788 -105.4137 H   0  0  0  0  0  0
   93.0634   18.5156 -105.1368 H   0  0  0  0  0  0
   89.7872   17.8093 -106.8125 H   0  0  0  0  0  0
   86.9102   14.8988 -105.1197 H   0  0  0  0  0  0
   89.5394   13.6986 -105.0833 H   0  0  0  0  0  0
   91.4684   14.0578 -105.4586 H   0  0  0  0  0  0
  1  2  1  0  0  0
  1 13  1  0  0  0
  1 14  1  0  0  0
  1 15  1  0  0  0
  2  3  1  0  0  0
  3  4  1  0  0  0
  3  5  1  0  0  0
  4 16  1  0  0  0
  5  6  1  0  0  0
  6  7  1  0  0  0
  6  9  1  0  0  0
  7  8  1  0  0  0
  8 17  1  0  0  0
  9 10  1  0  0  0
  9 11  1  0  0  0
 10 18  1  0  0  0
 11 12  1  0  0  0
 11  2  1  0  0  0
 12 19  1  0  0  0
M  END
>  <CHROM.0>
80.28130459,151.20917223,-63.76246298

>  <CHROM.1>
-60.14351347,60.10155118,160.17350985,57.04723102,-171.50055522,-176.06257283
89.77346622,16.62457761,-105.10464029,0.30223234,0.12502829,-0.06068557

>  <Energy>
25.097850262152768

>  <Genealogy>
[NH3+][C@H]1[C@@H](O)O[C@H](CO)[C@@H](O)[C@@H]1O (protonated)
[NH3+][C@H]1[C@@H](O)O[C@H](CO)[C@@H](O)[C@@H]1O (3D coordinates assigned)
[NH3+][C@H]1[C@@H](O)O[C@H](CO)[C@@H](O)[C@@H]1O (nonaromatic ring conformer: 25.097850262152768 kcal/mol)

>  <Name>
445621

>  <RI>
3.62712e+07

>  <Rbt.Current_Directory>
/home/edward/Documentos/Virtual_Screening/rDock/3

>  <Rbt.Executable>
rbdock ($Id: //depot/dev/client3/rdock/2013.1/src/exe/rbdock.cxx#4 $)

>  <Rbt.Library>
libRbt.so (2013.1, Build901 2013/11/27)

>  <Rbt.Parameter_File>
/home/edward/anaconda3/envs/MD/share/rdock-2013.1-1/data/scripts/dock.prm

>  <Rbt.Receptor>
parameters.prm

>  <SCORE>
-25.2995

>  <SCORE.INTER>
-23.026

>  <SCORE.INTER.CONST>
1

>  <SCORE.INTER.POLAR>
-5.31035

>  <SCORE.INTER.REPUL>
0.0499598

>  <SCORE.INTER.ROT>
1

>  <SCORE.INTER.VDW>
-11.6206

>  <SCORE.INTER.norm>
-1.91884

>  <SCORE.INTRA>
-5.45463

>  <SCORE.INTRA.DIHEDRAL>
-8.1017

>  <SCORE.INTRA.DIHEDRAL.0>
9.95343

>  <SCORE.INTRA.POLAR>
-0.658636

>  <SCORE.INTRA.POLAR.0>
0

>  <SCORE.INTRA.REPUL>
0

>  <SCORE.INTRA.REPUL.0>
0

>  <SCORE.INTRA.VDW>
0.835584

>  <SCORE.INTRA.VDW.0>
-1.10333

>  <SCORE.INTRA.norm>
-0.454552

>  <SCORE.RESTR>
0.0203946

>  <SCORE.RESTR.CAVITY>
0.0203946

>  <SCORE.RESTR.norm>
0.00169955

>  <SCORE.SYSTEM>
3.16076

>  <SCORE.SYSTEM.CONST>
0

>  <SCORE.SYSTEM.DIHEDRAL>
5.57003

>  <SCORE.SYSTEM.VDW>
0.375741

>  <SCORE.SYSTEM.norm>
0.263396

>  <SCORE.heavy>
12

>  <SCORE.norm>
-2.10829

>  <SMILES>
[NH3+][C@H]1[C@@H](O)O[C@H](CO)[C@@H](O)[C@@H]1O

>  <UniqueID>
188

$$$$
441477
  rDOCK(R)          3D
libRbt.so/2013.1/901 2013/11/27
 18 18  0  0  0  0  0  0  0  0999 V2000
   86.2686   19.2369 -103.2029 N   0  0  0  0  0  0
   86.0791   17.7948 -103.0202 C   0  0  0  0  0  0
   84.6450   17.5065 -102.5141 C   0  0  0  0  0  0
   84.4314   18.1295 -101.2744 O   0  0  0  0  0  0
   84.4308   16.1116 -102.3732 O   0  0  0  0  0  0
   84.4930   15.4664 -103.6333 C   0  0  0  0  0  0
   84.0672   13.9995 -103.4567 C   0  0  0  0  0  0
   82.6879   13.8945 -103.2208 O   0  0  0  0  0  0
   85.9163   15.5759 -104.2263 C   0  0  0  0  0  0
   85.9462   14.9667 -105.4925 O   0  0  0  0  0  0
   86.3119   17.0593 -104.3549 C   0  0  0  0  0  0
   87.6676   17.1596 -104.7111 O   0  0  0  0  0  0
   87.2744   19.4153 -103.4277 H   0  0  0  0  0  0
   86.0995   19.7136 -102.2876 H   0  0  0  0  0  0
   83.4542   18.1054 -101.0989 H   0  0  0  0  0  0
   82.2326   14.1539 -104.0638 H   0  0  0  0  0  0
   86.0008   13.9870 -105.3414 H   0  0  0  0  0  0
   87.7955   18.0569 -105.1163 H   0  0  0  0  0  0
  1  2  1  0  0  0
  1 13  1  0  0  0
  1 14  1  0  0  0
  2  3  1  0  0  0
  3  4  1  0  0  0
  3  5  1  0  0  0
  4 15  1  0  0  0
  5  6  1  0  0  0
  6  7  1  0  0  0
  6  9  1  0  0  0
  7  8  1  0  0  0
  8 16  1  0  0  0
  9 10  1  0  0  0
  9 11  1  0  0  0
 10 17  1  0  0  0
 11 12  1  0  0  0
 11  2  1  0  0  0
 12 18  1  0  0  0
M  END
>  <CHROM.0>
-179.75634918,154.14451688,-66.23204359

>  <CHROM.1>
172.98355752,166.55373948,71.87081949,68.67253042,-78.78869043,-80.10713915
85.23453321,16.40889074,-103.45512627,0.81178042,0.65477990,0.59072581

>  <Energy>
21.735096729997046

>  <Genealogy>
N[C@H]1[C@H](O)O[C@H](CO)[C@@H](O)[C@@H]1O (3D coordinates assigned)
N[C@H]1[C@H](O)O[C@H](CO)[C@@H](O)[C@@H]1O (nonaromatic ring conformer: 21.735096729997046 kcal/mol)

>  <Name>
441477

>  <RI>
3.62712e+07

>  <Rbt.Current_Directory>
/home/edward/Documentos/Virtual_Screening/rDock/3

>  <Rbt.Executable>
rbdock ($Id: //depot/dev/client3/rdock/2013.1/src/exe/rbdock.cxx#4 $)

>  <Rbt.Library>
libRbt.so (2013.1, Build901 2013/11/27)

>  <Rbt.Parameter_File>
/home/edward/anaconda3/envs/MD/share/rdock-2013.1-1/data/scripts/dock.prm

>  <Rbt.Receptor>
parameters.prm

>  <SCORE>
-15.8988

>  <SCORE.INTER>
-16.6576

>  <SCORE.INTER.CONST>
1

>  <SCORE.INTER.POLAR>
-4.02087

>  <SCORE.INTER.REPUL>
0

>  <SCORE.INTER.ROT>
2

>  <SCORE.INTER.VDW>
-10.3866

>  <SCORE.INTER.norm>
-1.38813

>  <SCORE.INTRA>
-0.973723

>  <SCORE.INTRA.DIHEDRAL>
-2.29385

>  <SCORE.INTRA.DIHEDRAL.0>
7.48606

>  <SCORE.INTRA.POLAR>
0

>  <SCORE.INTRA.POLAR.0>
0

>  <SCORE.INTRA.REPUL>
0

>  <SCORE.INTRA.REPUL.0>
0

>  <SCORE.INTRA.VDW>
0.1732

>  <SCORE.INTRA.VDW.0>
-0.909085

>  <SCORE.INTRA.norm>
-0.0811436

>  <SCORE.RESTR>
0

>  <SCORE.RESTR.CAVITY>
0

>  <SCORE.RESTR.norm>
0

>  <SCORE.SYSTEM>
1.73247

>  <SCORE.SYSTEM.CONST>
0

>  <SCORE.SYSTEM.DIHEDRAL>
3.13636

>  <SCORE.SYSTEM.VDW>
0.164291

>  <SCORE.SYSTEM.norm>
0.144373

>  <SCORE.heavy>
12

>  <SCORE.norm>
-1.3249

>  <SMILES>
N[C@H]1[C@H](O)O[C@H](CO)[C@@H](O)[C@@H]1O

>  <UniqueID>
190

$$$$
441038
  rDOCK(R)          3D
libRbt.so/2013.1/901 2013/11/27
 23 23  0  0  0  0  0  0  0  0999 V2000
   88.4263   21.2986 -104.3707 C   0  0  0  0  0  0
   89.6900   20.4361 -104.3092 C   0  0  0  0  0  0
   89.5454   19.2875 -105.1289 O   0  0  0  0  0  0
   89.5659   18.0790 -104.3809 C   0  0  0  0  0  0
   88.1506   17.4772 -104.3935 C   0  0  0  0  0  0
   87.2929   18.3103 -103.6546 O   0  0  0  0  0  0
   88.1807   16.0587 -103.7754 C   0  0  0  0  0  0
   86.7929   15.4039 -103.7873 C   0  0  0  0  0  0
   86.3318   15.2565 -105.1026 O   0  0  0  0  0  0
   89.0734   15.2286 -104.4976 O   0  0  0  0  0  0
   90.4061   15.6928 -104.3668 C   0  0  0  0  0  0
   91.2595   14.7816 -105.0049 O   0  0  0  0  0  0
   90.5598   17.0836 -105.0275 C   0  0  0  0  0  0
   91.9420   17.5688 -104.9049 N   0  3  0  0  0  0
   90.8569   21.2310 -104.8132 C   0  0  0  0  0  0
   90.9189   22.4709 -104.6012 O   0  0  0  0  0  0
   91.8581   20.6108 -105.5511 O   0  5  0  0  0  0
   86.3801   17.9260 -103.7220 H   0  0  0  0  0  0
   86.8320   14.4895 -105.4852 H   0  0  0  0  0  0
   91.2843   13.9713 -104.4319 H   0  0  0  0  0  0
   92.0551   18.4724 -105.4182 H   0  0  0  0  0  0
   92.6145   16.8680 -105.2937 H   0  0  0  0  0  0
   92.1692   17.7500 -103.9009 H   0  0  0  0  0  0
  1  2  1  0  0  0
  2  3  1  0  0  0
  2 15  1  0  0  0
  3  4  1  0  0  0
  4  5  1  0  0  0
  5  6  1  0  0  0
  5  7  1  0  0  0
  6 18  1  0  0  0
  7  8  1  0  0  0
  7 10  1  0  0  0
  8  9  1  0  0  0
  9 19  1  0  0  0
 10 11  1  0  0  0
 11 12  1  0  0  0
 11 13  1  0  0  0
 12 20  1  0  0  0
 13 14  1  0  0  0
 13  4  1  0  0  0
 14 21  1  0  0  0
 14 22  1  0  0  0
 14 23  1  0  0  0
 15 16  2  0  0  0
 15 17  1  0  0  0
M  END
>  <CHROM.0>
178.70799201,152.28427111,-61.85365180

>  <CHROM.1>
-115.91824626,34.31424448,109.64959963,176.91115876,61.56667024,75.85149877
-72.04162573,-62.50775133,89.46584069,17.98084257,-104.58631439,1.18063213
0.18472047,0.01439220

>  <Energy>
30.82994267703536

>  <Genealogy>
C[C@@H](O[C@H]1[C@H](O)[C@@H](CO)OC(O)[C@@H]1[NH3+])C(=O)[O-] (protonated)
C[C@@H](O[C@H]1[C@H](O)[C@@H](CO)O[C@@H](O)[C@@H]1[NH3+])C(=O)[O-] (chirality)
C[C@@H](O[C@H]1[C@H](O)[C@@H](CO)O[C@@H](O)[C@@H]1[NH3+])C(=O)[O-] (3D coordinates assigned)
C[C@@H](O[C@H]1[C@H](O)[C@@H](CO)O[C@@H](O)[C@@H]1[NH3+])C(=O)[O-] (nonaromatic ring conformer: 30.82994267703536 kcal/mol)

>  <Name>
441038

>  <RI>
3.62712e+07

>  <Rbt.Current_Directory>
/home/edward/Documentos/Virtual_Screening/rDock/3

>  <Rbt.Executable>
rbdock ($Id: //depot/dev/client3/rdock/2013.1/src/exe/rbdock.cxx#4 $)

>  <Rbt.Library>
libRbt.so (2013.1, Build901 2013/11/27)

>  <Rbt.Parameter_File>
/home/edward/anaconda3/envs/MD/share/rdock-2013.1-1/data/scripts/dock.prm

>  <Rbt.Receptor>
parameters.prm

>  <SCORE>
-20.3349

>  <SCORE.INTER>
-18.9987

>  <SCORE.INTER.CONST>
1

>  <SCORE.INTER.POLAR>
-4.61732

>  <SCORE.INTER.REPUL>
0.116611

>  <SCORE.INTER.ROT>
4

>  <SCORE.INTER.VDW>
-13.2828

>  <SCORE.INTER.norm>
-1.11757

>  <SCORE.INTRA>
-3.12602

>  <SCORE.INTRA.DIHEDRAL>
1.39569

>  <SCORE.INTRA.DIHEDRAL.0>
15.4348

>  <SCORE.INTRA.POLAR>
-1.44413

>  <SCORE.INTRA.POLAR.0>
0

>  <SCORE.INTRA.REPUL>
0

>  <SCORE.INTRA.REPUL.0>
0

>  <SCORE.INTRA.VDW>
1.08619

>  <SCORE.INTRA.VDW.0>
-2.18323

>  <SCORE.INTRA.norm>
-0.183883

>  <SCORE.RESTR>
0

>  <SCORE.RESTR.CAVITY>
0

>  <SCORE.RESTR.norm>
0

>  <SCORE.SYSTEM>
1.78983

>  <SCORE.SYSTEM.CONST>
0

>  <SCORE.SYSTEM.DIHEDRAL>
3.58005

>  <SCORE.SYSTEM.VDW>
-0.000200459

>  <SCORE.SYSTEM.norm>
0.105284

>  <SCORE.heavy>
17

>  <SCORE.norm>
-1.19617

>  <SMILES>
C[C@@H](O[C@H]1[C@H](O)[C@@H](CO)O[C@@H](O)[C@@H]1[NH3+])C(=O)[O-]

>  <UniqueID>
194

$$$$
440552
  rDOCK(R)          3D
libRbt.so/2013.1/901 2013/11/27
 20 20  0  0  0  0  0  0  0  0999 V2000
   82.3509   11.2433  -98.3293 H   0  0  0  0  0  0
   82.8020   10.5746  -98.9419 O   0  0  0  0  0  0
   83.5942   10.9940 -100.0104 C   0  0  0  0  0  0
   84.1484   10.1285 -100.8059 N   0  0  0  0  0  0
   83.9863    8.6758 -100.7025 C   0  0  0  0  0  0
   84.2545    7.9995 -102.0695 C   0  0  0  0  0  0
   83.2876    8.4114 -102.9998 O   0  0  0  0  0  0
   83.5193    7.9947 -103.8708 H   0  0  0  0  0  0
   84.1691    6.5895 -101.9490 O   0  0  0  0  0  0
   85.1923    6.0962 -101.1001 C   0  0  0  0  0  0
   85.1955    4.5619 -101.1571 C   0  0  0  0  0  0
   85.7457    4.1192 -102.3685 O   0  0  0  0  0  0
   85.2115    4.5373 -103.0935 H   0  0  0  0  0  0
   84.9754    6.5968  -99.6564 C   0  0  0  0  0  0
   83.7504    6.1130  -99.1622 O   0  0  0  0  0  0
   83.6422    6.4816  -98.2467 H   0  0  0  0  0  0
   84.9784    8.1384  -99.6568 C   0  0  0  0  0  0
   84.6360    8.6311  -98.3868 O   0  0  0  0  0  0
   84.6508    9.6218  -98.4515 H   0  0  0  0  0  0
   83.8434   12.4523 -100.2224 C   0  0  0  0  0  0
  1  2  1  0  0  0
  2  3  1  0  0  0
  3  4  2  0  0  0
  3 20  1  0  0  0
  4  5  1  0  0  0
  5  6  1  0  0  0
  6  7  1  0  0  0
  6  9  1  0  0  0
  7  8  1  0  0  0
  9 10  1  0  0  0
 10 11  1  0  0  0
 10 14  1  0  0  0
 11 12  1  0  0  0
 12 13  1  0  0  0
 14 15  1  0  0  0
 14 17  1  0  0  0
 15 16  1  0  0  0
 17 18  1  0  0  0
 17  5  1  0  0  0
 18 19  1  0  0  0
M  END
>  <CHROM.0>
-75.28989639,152.98822092,-65.76222316

>  <CHROM.1>
-178.69760749,156.35248996,177.19709263,74.40385752,-56.57298057,-178.30977828
-57.90479658,84.27726394,7.97707492,-100.61205474,-2.66557069,1.30528419
-1.77906147

>  <Energy>
24.65598774772963

>  <Genealogy>
CC(O)=N[C@H]1[C@H](O)O[C@H](CO)[C@H](O)[C@@H]1O (tautomer)
C/C(O)=N/[C@H]1[C@H](O)O[C@H](CO)[C@H](O)[C@@H]1O (cis-trans isomerization)
C/C(O)=N/[C@H]1[C@H](O)O[C@H](CO)[C@H](O)[C@@H]1O (3D coordinates assigned)
C/C(O)=N/[C@H]1[C@H](O)O[C@H](CO)[C@H](O)[C@@H]1O (nonaromatic ring conformer: 24.65598774772963 kcal/mol)

>  <Name>
440552

>  <RI>
3.62712e+07

>  <Rbt.Current_Directory>
/home/edward/Documentos/Virtual_Screening/rDock/3

>  <Rbt.Executable>
rbdock ($Id: //depot/dev/client3/rdock/2013.1/src/exe/rbdock.cxx#4 $)

>  <Rbt.Library>
libRbt.so (2013.1, Build901 2013/11/27)

>  <Rbt.Parameter_File>
/home/edward/anaconda3/envs/MD/share/rdock-2013.1-1/data/scripts/dock.prm

>  <Rbt.Receptor>
parameters.prm

>  <SCORE>
-16.0462

>  <SCORE.INTER>
-16.0221

>  <SCORE.INTER.CONST>
1

>  <SCORE.INTER.POLAR>
-3.66937

>  <SCORE.INTER.REPUL>
0

>  <SCORE.INTER.ROT>
2

>  <SCORE.INTER.VDW>
-10.9462

>  <SCORE.INTER.norm>
-1.06814

>  <SCORE.INTRA>
-3.2614

>  <SCORE.INTRA.DIHEDRAL>
-7.06676

>  <SCORE.INTRA.DIHEDRAL.0>
9.55582

>  <SCORE.INTRA.POLAR>
-0.222724

>  <SCORE.INTRA.POLAR.0>
0

>  <SCORE.INTRA.REPUL>
0

>  <SCORE.INTRA.REPUL.0>
0

>  <SCORE.INTRA.VDW>
1.02924

>  <SCORE.INTRA.VDW.0>
-1.61357

>  <SCORE.INTRA.norm>
-0.217427

>  <SCORE.RESTR>
0

>  <SCORE.RESTR.CAVITY>
0

>  <SCORE.RESTR.norm>
0

>  <SCORE.SYSTEM>
3.23732

>  <SCORE.SYSTEM.CONST>
0

>  <SCORE.SYSTEM.DIHEDRAL>
4.44905

>  <SCORE.SYSTEM.VDW>
1.01279

>  <SCORE.SYSTEM.norm>
0.215821

>  <SCORE.heavy>
15

>  <SCORE.norm>
-1.06974

>  <SMILES>
C/C(O)=N/[C@H]1[C@H](O)O[C@H](CO)[C@H](O)[C@@H]1O

>  <UniqueID>
198

$$$$
440271
  rDOCK(R)          3D
libRbt.so/2013.1/901 2013/11/27
 23 23  0  0  0  0  0  0  0  0999 V2000
   84.1002   28.1155 -103.0143 C   0  0  0  0  0  0
   84.3809   26.7466 -102.4864 C   0  0  0  0  0  0
   83.6212   25.7910 -102.8019 O   0  0  0  0  0  0
   85.5282   26.5237 -101.6545 N   0  0  0  0  0  0
   85.9143   25.1946 -101.1698 C   0  0  0  0  0  0
   86.8655   24.5189 -102.1837 C   0  0  0  0  0  0
   86.2162   24.3549 -103.4171 O   0  0  0  0  0  0
   87.2954   23.2517 -101.7089 O   0  0  0  0  0  0
   88.0663   23.3993 -100.5274 C   0  0  0  0  0  0
   88.6753   22.0429 -100.1552 C   0  0  0  0  0  0
   89.6144   21.6736 -101.1371 O   0  0  0  0  0  0
   90.2651   20.1648 -100.7215 S   0  0  0  0  0  0
   89.1754   19.2316 -100.2717 O   0  0  0  0  0  0
   91.2850   20.3179  -99.6274 O   0  0  0  0  0  0
   91.0150   19.5109 -102.0743 O   0  5  0  0  0  0
   87.1918   23.9516  -99.3792 C   0  0  0  0  0  0
   86.1529   23.0473  -99.0932 O   0  0  0  0  0  0
   86.6103   25.3158  -99.8022 C   0  0  0  0  0  0
   85.6912   25.7783  -98.8464 O   0  0  0  0  0  0
   86.1819   27.3234 -101.4911 H   0  0  0  0  0  0
   86.8717   23.9458 -104.0410 H   0  0  0  0  0  0
   85.6712   23.4014  -98.3007 H   0  0  0  0  0  0
   84.9197   25.1536  -98.8667 H   0  0  0  0  0  0
  1  2  1  0  0  0
  2  3  2  0  0  0
  2  4  1  0  0  0
  4  5  1  0  0  0
  4 20  1  0  0  0
  5  6  1  0  0  0
  6  7  1  0  0  0
  6  8  1  0  0  0
  7 21  1  0  0  0
  8  9  1  0  0  0
  9 10  1  0  0  0
  9 16  1  0  0  0
 10 11  1  0  0  0
 11 12  1  0  0  0
 12 13  2  0  0  0
 12 14  2  0  0  0
 12 15  1  0  0  0
 16 17  1  0  0  0
 16 18  1  0  0  0
 17 22  1  0  0  0
 18 19  1  0  0  0
 18  5  1  0  0  0
 19 23  1  0  0  0
M  END
>  <CHROM.0>
178.89804595,161.93310677,-74.12434026

>  <CHROM.1>
89.58287899,178.24802794,66.74786050,-179.34056444,43.94048560,174.93635469
55.19348641,87.45493459,23.35378860,-101.03208912,-3.01289609,-0.85504618
1.54230804

>  <Energy>
27.517248526670166

>  <Genealogy>
CC(=O)N[C@H]1[C@H](O)O[C@H](COS(=O)(=O)[O-])[C@H](O)[C@@H]1O (protonated)
CC(=O)N[C@H]1[C@H](O)O[C@H](COS(=O)(=O)[O-])[C@H](O)[C@@H]1O (3D coordinates assigned)
CC(=O)N[C@H]1[C@H](O)O[C@H](COS(=O)(=O)[O-])[C@H](O)[C@@H]1O (nonaromatic ring conformer: 27.517248526670166 kcal/mol)

>  <Name>
440271

>  <RI>
3.62712e+07

>  <Rbt.Current_Directory>
/home/edward/Documentos/Virtual_Screening/rDock/3

>  <Rbt.Executable>
rbdock ($Id: //depot/dev/client3/rdock/2013.1/src/exe/rbdock.cxx#4 $)

>  <Rbt.Library>
libRbt.so (2013.1, Build901 2013/11/27)

>  <Rbt.Parameter_File>
/home/edward/anaconda3/envs/MD/share/rdock-2013.1-1/data/scripts/dock.prm

>  <Rbt.Receptor>
parameters.prm

>  <SCORE>
-15.9533

>  <SCORE.INTER>
-17.1786

>  <SCORE.INTER.CONST>
1

>  <SCORE.INTER.POLAR>
-3.49273

>  <SCORE.INTER.REPUL>
0

>  <SCORE.INTER.ROT>
4

>  <SCORE.INTER.VDW>
-14.7033

>  <SCORE.INTER.norm>
-0.904135

>  <SCORE.INTRA>
-0.975581

>  <SCORE.INTRA.DIHEDRAL>
-3.19108

>  <SCORE.INTRA.DIHEDRAL.0>
4.80514

>  <SCORE.INTRA.POLAR>
0

>  <SCORE.INTRA.POLAR.0>
0

>  <SCORE.INTRA.REPUL>
0

>  <SCORE.INTRA.REPUL.0>
0

>  <SCORE.INTRA.VDW>
0.619959

>  <SCORE.INTRA.VDW.0>
-1.98001

>  <SCORE.INTRA.norm>
-0.0513464

>  <SCORE.RESTR>
0

>  <SCORE.RESTR.CAVITY>
0

>  <SCORE.RESTR.norm>
0

>  <SCORE.SYSTEM>
2.20081

>  <SCORE.SYSTEM.CONST>
0

>  <SCORE.SYSTEM.DIHEDRAL>
1.8484

>  <SCORE.SYSTEM.VDW>
1.27661

>  <SCORE.SYSTEM.norm>
0.115832

>  <SCORE.heavy>
19

>  <SCORE.norm>
-0.839649

>  <SMILES>
CC(=O)N[C@H]1[C@H](O)O[C@H](COS(=O)(=O)[O-])[C@H](O)[C@@H]1O

>  <UniqueID>
199

$$$$
440235
  rDOCK(R)          3D
libRbt.so/2013.1/901 2013/11/27
 23 23  0  0  0  0  0  0  0  0999 V2000
   89.5911   18.3158 -107.0424 H   0  0  0  0  0  0
   89.8282   19.2172 -106.6458 O   0  0  0  0  0  0
   91.1464   19.5397 -106.3243 C   0  0  0  0  0  0
   91.4367   20.6838 -105.7803 N   0  0  0  0  0  0
   90.4598   21.7283 -105.4629 C   0  0  0  0  0  0
   90.2952   21.8156 -103.9320 C   0  0  0  0  0  0
   89.8345   20.5893 -103.4271 O   0  0  0  0  0  0
   90.5496   19.9189 -103.5865 H   0  0  0  0  0  0
   89.3771   22.8388 -103.5851 O   0  0  0  0  0  0
   89.8900   24.1109 -103.9450 C   0  0  0  0  0  0
   88.9386   25.1860 -103.4060 C   0  0  0  0  0  0
   87.6127   24.8250 -103.7111 O   0  0  0  0  0  0
   86.6119   26.1564 -103.4032 S   0  0  0  0  0  0
   85.2651   25.6917 -102.9234 O   0  0  0  0  0  0
   86.4349   26.9337 -104.6764 O   0  0  0  0  0  0
   87.3088   27.1598 -102.2483 O   0  5  0  0  0  0
   90.0288   24.2195 -105.4812 C   0  0  0  0  0  0
   90.5859   25.4655 -105.8165 O   0  0  0  0  0  0
   91.4778   25.5103 -105.3827 H   0  0  0  0  0  0
   90.9359   23.0893 -106.0059 C   0  0  0  0  0  0
   90.9068   23.0712 -107.4101 O   0  0  0  0  0  0
   91.6817   22.5279 -107.7099 H   0  0  0  0  0  0
   92.2420   18.5688 -106.6259 C   0  0  0  0  0  0
  1  2  1  0  0  0
  2  3  1  0  0  0
  3  4  2  0  0  0
  3 23  1  0  0  0
  4  5  1  0  0  0
  5  6  1  0  0  0
  6  7  1  0  0  0
  6  9  1  0  0  0
  7  8  1  0  0  0
  9 10  1  0  0  0
 10 11  1  0  0  0
 10 17  1  0  0  0
 11 12  1  0  0  0
 12 13  1  0  0  0
 13 14  2  0  0  0
 13 15  2  0  0  0
 13 16  1  0  0  0
 17 18  1  0  0  0
 17 20  1  0  0  0
 18 19  1  0  0  0
 20 21  1  0  0  0
 20  5  1  0  0  0
 21 22  1  0  0  0
M  END
>  <CHROM.0>
-179.73870893,153.95258178,-61.89258454

>  <CHROM.1>
-178.01098058,109.19749646,65.25486846,-46.28841893,-168.38443372,-146.78744489
60.18576584,-74.96719264,89.21017723,23.41849313,-104.68804277,0.73401086
-0.76006886,2.90886974

>  <Energy>
27.401679440570252

>  <Genealogy>
CC(=O)N[C@H]1[C@H](O)O[C@H](COS(=O)(=O)[O-])[C@@H](O)[C@@H]1O (protonated)
CC(O)=N[C@H]1[C@H](O)O[C@H](COS(=O)(=O)[O-])[C@@H](O)[C@@H]1O (tautomer)
C/C(O)=N\[C@H]1[C@H](O)O[C@H](COS(=O)(=O)[O-])[C@@H](O)[C@@H]1O (cis-trans isomerization)
C/C(O)=N\[C@H]1[C@H](O)O[C@H](COS(=O)(=O)[O-])[C@@H](O)[C@@H]1O (3D coordinates assigned)
C/C(O)=N\[C@H]1[C@H](O)O[C@H](COS(=O)(=O)[O-])[C@@H](O)[C@@H]1O (nonaromatic ring conformer: 27.401679440570252 kcal/mol)

>  <Name>
440235

>  <RI>
3.62712e+07

>  <Rbt.Current_Directory>
/home/edward/Documentos/Virtual_Screening/rDock/3

>  <Rbt.Executable>
rbdock ($Id: //depot/dev/client3/rdock/2013.1/src/exe/rbdock.cxx#4 $)

>  <Rbt.Library>
libRbt.so (2013.1, Build901 2013/11/27)

>  <Rbt.Parameter_File>
/home/edward/anaconda3/envs/MD/share/rdock-2013.1-1/data/scripts/dock.prm

>  <Rbt.Receptor>
parameters.prm

>  <SCORE>
-15.7695

>  <SCORE.INTER>
-16.0883

>  <SCORE.INTER.CONST>
1

>  <SCORE.INTER.POLAR>
-4.23345

>  <SCORE.INTER.REPUL>
0.103084

>  <SCORE.INTER.ROT>
4

>  <SCORE.INTER.VDW>
-11.61

>  <SCORE.INTER.norm>
-0.846755

>  <SCORE.INTRA>
-1.45542

>  <SCORE.INTRA.DIHEDRAL>
-3.97081

>  <SCORE.INTRA.DIHEDRAL.0>
7.41514

>  <SCORE.INTRA.POLAR>
0

>  <SCORE.INTRA.POLAR.0>
0

>  <SCORE.INTRA.REPUL>
0

>  <SCORE.INTRA.REPUL.0>
0

>  <SCORE.INTRA.VDW>
0.529984

>  <SCORE.INTRA.VDW.0>
-1.80908

>  <SCORE.INTRA.norm>
-0.0766012

>  <SCORE.RESTR>
0

>  <SCORE.RESTR.CAVITY>
0

>  <SCORE.RESTR.norm>
0

>  <SCORE.SYSTEM>
1.77422

>  <SCORE.SYSTEM.CONST>
0

>  <SCORE.SYSTEM.DIHEDRAL>
3.26168

>  <SCORE.SYSTEM.VDW>
0.14338

>  <SCORE.SYSTEM.norm>
0.0933801

>  <SCORE.heavy>
19

>  <SCORE.norm>
-0.829976

>  <SMILES>
C/C(O)=N\[C@H]1[C@H](O)O[C@H](COS(=O)(=O)[O-])[C@@H](O)[C@@H]1O

>  <UniqueID>
202

$$$$
440049
  rDOCK(R)          3D
libRbt.so/2013.1/901 2013/11/27
 19 19  0  0  0  0  0  0  0  0999 V2000
   93.2772   17.4350 -105.3229 N   0  3  0  0  0  0
   92.0181   17.5138 -106.0833 C   0  0  0  0  0  0
   91.2379   18.8076 -105.7439 C   0  0  0  0  0  0
   92.0536   19.9329 -105.9361 O   0  0  0  0  0  0
   90.8138   18.7854 -104.3927 O   0  0  0  0  0  0
   89.8511   17.7632 -104.1860 C   0  0  0  0  0  0
   89.2899   17.9073 -102.7653 C   0  0  0  0  0  0
   88.3019   16.9417 -102.5288 O   0  0  0  0  0  0
   90.4766   16.3625 -104.4139 C   0  0  0  0  0  0
   89.4871   15.3689 -104.3116 O   0  0  0  0  0  0
   91.1006   16.2942 -105.8178 C   0  0  0  0  0  0
   91.8059   15.0883 -105.9625 O   0  0  0  0  0  0
   93.1109   17.7264 -104.3328 H   0  0  0  0  0  0
   93.6634   16.4640 -105.3255 H   0  0  0  0  0  0
   93.9864   18.0892 -105.7246 H   0  0  0  0  0  0
   92.8079   19.8548 -105.2949 H   0  0  0  0  0  0
   87.9922   17.0873 -101.5973 H   0  0  0  0  0  0
   89.0203   15.5070 -103.4464 H   0  0  0  0  0  0
   91.1639   14.3568 -105.7659 H   0  0  0  0  0  0
  1  2  1  0  0  0
  1 13  1  0  0  0
  1 14  1  0  0  0
  1 15  1  0  0  0
  2  3  1  0  0  0
  3  4  1  0  0  0
  3  5  1  0  0  0
  4 16  1  0  0  0
  5  6  1  0  0  0
  6  7  1  0  0  0
  6  9  1  0  0  0
  7  8  1  0  0  0
  8 17  1  0  0  0
  9 10  1  0  0  0
  9 11  1  0  0  0
 10 18  1  0  0  0
 11 12  1  0  0  0
 11  2  1  0  0  0
 12 19  1  0  0  0
M  END
>  <CHROM.0>
-179.08493149,153.24180859,-65.72151987

>  <CHROM.1>
42.85046527,-62.99184457,178.16207661,179.49581452,-52.57040964,179.17007272
90.82229068,17.32994121,-104.75553993,-0.22392878,-0.69945065,-2.99801111

>  <Energy>
23.84533324025274

>  <Genealogy>
[NH3+][C@@H]1C(O)O[C@H](CO)[C@@H](O)[C@@H]1O (protonated)
[NH3+][C@@H]1[C@H](O)O[C@H](CO)[C@@H](O)[C@@H]1O (chirality)
[NH3+][C@@H]1[C@H](O)O[C@H](CO)[C@@H](O)[C@@H]1O (3D coordinates assigned)
[NH3+][C@@H]1[C@H](O)O[C@H](CO)[C@@H](O)[C@@H]1O (nonaromatic ring conformer: 23.84533324025274 kcal/mol)

>  <Name>
440049

>  <RI>
3.62712e+07

>  <Rbt.Current_Directory>
/home/edward/Documentos/Virtual_Screening/rDock/3

>  <Rbt.Executable>
rbdock ($Id: //depot/dev/client3/rdock/2013.1/src/exe/rbdock.cxx#4 $)

>  <Rbt.Library>
libRbt.so (2013.1, Build901 2013/11/27)

>  <Rbt.Parameter_File>
/home/edward/anaconda3/envs/MD/share/rdock-2013.1-1/data/scripts/dock.prm

>  <Rbt.Receptor>
parameters.prm

>  <SCORE>
-19.085

>  <SCORE.INTER>
-17.6372

>  <SCORE.INTER.CONST>
1

>  <SCORE.INTER.POLAR>
-4.054

>  <SCORE.INTER.REPUL>
0

>  <SCORE.INTER.ROT>
1

>  <SCORE.INTER.VDW>
-10.2536

>  <SCORE.INTER.norm>
-1.46977

>  <SCORE.INTRA>
-3.71294

>  <SCORE.INTRA.DIHEDRAL>
-4.56374

>  <SCORE.INTRA.DIHEDRAL.0>
5.57585

>  <SCORE.INTRA.POLAR>
-0.76833

>  <SCORE.INTRA.POLAR.0>
0

>  <SCORE.INTRA.REPUL>
0

>  <SCORE.INTRA.REPUL.0>
0

>  <SCORE.INTRA.VDW>
1.18125

>  <SCORE.INTRA.VDW.0>
-1.24841

>  <SCORE.INTRA.norm>
-0.309412

>  <SCORE.RESTR>
0.526285

>  <SCORE.RESTR.CAVITY>
0.526285

>  <SCORE.RESTR.norm>
0.0438571

>  <SCORE.SYSTEM>
1.73886

>  <SCORE.SYSTEM.CONST>
0

>  <SCORE.SYSTEM.DIHEDRAL>
3.31337

>  <SCORE.SYSTEM.VDW>
0.0821722

>  <SCORE.SYSTEM.norm>
0.144905

>  <SCORE.heavy>
12

>  <SCORE.norm>
-1.59042

>  <SMILES>
[NH3+][C@@H]1[C@H](O)O[C@H](CO)[C@@H](O)[C@@H]1O

>  <UniqueID>
206

$$$$
439281
  rDOCK(R)          3D
libRbt.so/2013.1/901 2013/11/27
 20 20  0  0  0  0  0  0  0  0999 V2000
   83.3471   18.9413 -104.6729 C   0  0  0  0  0  0
   84.3241   18.2766 -103.7577 C   0  0  0  0  0  0
   84.0852   18.2588 -102.3837 O   0  0  0  0  0  0
   85.3697   17.6884 -104.2577 N   0  0  0  0  0  0
   86.3992   17.0011 -103.4725 C   0  0  0  0  0  0
   87.7971   17.5719 -103.7833 C   0  0  0  0  0  0
   87.8197   18.9349 -103.4577 O   0  0  0  0  0  0
   88.7929   16.9120 -103.0164 O   0  0  0  0  0  0
   88.8856   15.5240 -103.3098 C   0  0  0  0  0  0
   89.5541   15.2580 -104.6746 C   0  0  0  0  0  0
   89.8455   13.8936 -104.8057 O   0  0  0  0  0  0
   87.5407   14.7802 -103.0975 C   0  0  0  0  0  0
   87.2879   14.6993 -101.7168 O   0  0  0  0  0  0
   86.3674   15.4969 -103.7928 C   0  0  0  0  0  0
   86.4339   15.2771 -105.1804 O   0  0  0  0  0  0
   83.2800   18.7268 -101.9854 H   0  0  0  0  0  0
   87.1556   19.3772 -104.0484 H   0  0  0  0  0  0
   90.4993   13.6803 -104.0900 H   0  0  0  0  0  0
   87.2704   15.6295 -101.3696 H   0  0  0  0  0  0
   86.4017   14.2954 -105.3246 H   0  0  0  0  0  0
  1  2  1  0  0  0
  2  3  1  0  0  0
  2  4  2  0  0  0
  3 16  1  0  0  0
  4  5  1  0  0  0
  5  6  1  0  0  0
  6  7  1  0  0  0
  6  8  1  0  0  0
  7 17  1  0  0  0
  8  9  1  0  0  0
  9 10  1  0  0  0
  9 12  1  0  0  0
 10 11  1  0  0  0
 11 18  1  0  0  0
 12 13  1  0  0  0
 12 14  1  0  0  0
 13 19  1  0  0  0
 14 15  1  0  0  0
 14  5  1  0  0  0
 15 20  1  0  0  0
M  END
>  <CHROM.0>
78.72068053,154.19170038,-66.53601110

>  <CHROM.1>
-2.87380889,-124.68011082,-62.74210308,169.09541630,-62.96928026,58.10822369
-179.51908690,86.94431500,16.55607412,-103.67869986,2.48212901,-0.02882734
0.10088932

>  <Energy>
29.410638179091375

>  <Genealogy>
CC(O)=N[C@@H]1C(O)O[C@H](CO)[C@@H](O)[C@@H]1O (tautomer)
CC(O)=N[C@@H]1[C@@H](O)O[C@H](CO)[C@@H](O)[C@@H]1O (chirality)
CC(O)=N[C@@H]1[C@@H](O)O[C@H](CO)[C@@H](O)[C@@H]1O (3D coordinates assigned)
CC(O)=N[C@@H]1[C@@H](O)O[C@H](CO)[C@@H](O)[C@@H]1O (nonaromatic ring conformer: 29.410638179091375 kcal/mol)

>  <Name>
439281

>  <RI>
3.62712e+07

>  <Rbt.Current_Directory>
/home/edward/Documentos/Virtual_Screening/rDock/3

>  <Rbt.Executable>
rbdock ($Id: //depot/dev/client3/rdock/2013.1/src/exe/rbdock.cxx#4 $)

>  <Rbt.Library>
libRbt.so (2013.1, Build901 2013/11/27)

>  <Rbt.Parameter_File>
/home/edward/anaconda3/envs/MD/share/rdock-2013.1-1/data/scripts/dock.prm

>  <Rbt.Receptor>
parameters.prm

>  <SCORE>
-16.5323

>  <SCORE.INTER>
-17.3067

>  <SCORE.INTER.CONST>
1

>  <SCORE.INTER.POLAR>
-3.87246

>  <SCORE.INTER.REPUL>
0.162622

>  <SCORE.INTER.ROT>
2

>  <SCORE.INTER.VDW>
-12.3534

>  <SCORE.INTER.norm>
-1.15378

>  <SCORE.INTRA>
-2.35711

>  <SCORE.INTRA.DIHEDRAL>
-6.15929

>  <SCORE.INTRA.DIHEDRAL.0>
7.0136

>  <SCORE.INTRA.POLAR>
-0.00339275

>  <SCORE.INTRA.POLAR.0>
0

>  <SCORE.INTRA.REPUL>
0

>  <SCORE.INTRA.REPUL.0>
0

>  <SCORE.INTRA.VDW>
0.734071

>  <SCORE.INTRA.VDW.0>
-1.6329

>  <SCORE.INTRA.norm>
-0.157141

>  <SCORE.RESTR>
0

>  <SCORE.RESTR.CAVITY>
0

>  <SCORE.RESTR.norm>
0

>  <SCORE.SYSTEM>
3.13142

>  <SCORE.SYSTEM.CONST>
0

>  <SCORE.SYSTEM.DIHEDRAL>
4.7193

>  <SCORE.SYSTEM.VDW>
0.77177

>  <SCORE.SYSTEM.norm>
0.208761

>  <SCORE.heavy>
15

>  <SCORE.norm>
-1.10216

>  <SMILES>
CC(O)=N[C@@H]1[C@@H](O)O[C@H](CO)[C@@H](O)[C@@H]1O

>  <UniqueID>
210

$$$$
439213
  rDOCK(R)          3D
libRbt.so/2013.1/901 2013/11/27
 18 18  0  0  0  0  0  0  0  0999 V2000
   92.6668   17.6418 -105.5166 N   0  0  0  0  0  0
   91.4457   17.2819 -104.7886 C   0  0  0  0  0  0
   90.3524   18.3537 -105.0143 C   0  0  0  0  0  0
   90.7838   19.5835 -104.4903 O   0  0  0  0  0  0
   89.1612   17.9909 -104.3399 O   0  0  0  0  0  0
   88.6053   16.8132 -104.8985 C   0  0  0  0  0  0
   87.2253   16.5793 -104.2692 C   0  0  0  0  0  0
   86.4850   15.6685 -105.0356 O   0  0  0  0  0  0
   89.5468   15.6117 -104.6609 C   0  0  0  0  0  0
   89.0046   14.4613 -105.2585 O   0  0  0  0  0  0
   90.9282   15.9083 -105.2689 C   0  0  0  0  0  0
   91.8235   14.8958 -104.8808 O   0  0  0  0  0  0
   93.0208   18.5526 -105.1448 H   0  0  0  0  0  0
   93.4124   16.9472 -105.2831 H   0  0  0  0  0  0
   90.0481   20.2374 -104.6209 H   0  0  0  0  0  0
   87.0272   14.8383 -105.0759 H   0  0  0  0  0  0
   89.6086   13.7067 -105.0322 H   0  0  0  0  0  0
   92.7039   15.1093 -105.2867 H   0  0  0  0  0  0
  1  2  1  0  0  0
  1 13  1  0  0  0
  1 14  1  0  0  0
  2  3  1  0  0  0
  3  4  1  0  0  0
  3  5  1  0  0  0
  4 15  1  0  0  0
  5  6  1  0  0  0
  6  7  1  0  0  0
  6  9  1  0  0  0
  7  8  1  0  0  0
  8 16  1  0  0  0
  9 10  1  0  0  0
  9 11  1  0  0  0
 10 17  1  0  0  0
 11 12  1  0  0  0
 11  2  1  0  0  0
 12 18  1  0  0  0
M  END
>  <CHROM.0>
179.02441249,151.17817172,-68.19768546

>  <CHROM.1>
61.61448180,-177.91982192,163.46906707,57.97160007,-176.42467275,-58.97939000
89.84298421,16.71332325,-104.87002553,-0.45477069,-0.09685939,-3.02166948

>  <Energy>
21.721951505646086

>  <Genealogy>
N[C@H]1[C@H](O)O[C@H](CO)[C@@H](O)[C@@H]1O (chirality)
N[C@H]1[C@H](O)O[C@H](CO)[C@@H](O)[C@@H]1O (3D coordinates assigned)
N[C@H]1[C@H](O)O[C@H](CO)[C@@H](O)[C@@H]1O (nonaromatic ring conformer: 21.721951505646086 kcal/mol)

>  <Name>
439213

>  <RI>
3.62712e+07

>  <Rbt.Current_Directory>
/home/edward/Documentos/Virtual_Screening/rDock/3

>  <Rbt.Executable>
rbdock ($Id: //depot/dev/client3/rdock/2013.1/src/exe/rbdock.cxx#4 $)

>  <Rbt.Library>
libRbt.so (2013.1, Build901 2013/11/27)

>  <Rbt.Parameter_File>
/home/edward/anaconda3/envs/MD/share/rdock-2013.1-1/data/scripts/dock.prm

>  <Rbt.Receptor>
parameters.prm

>  <SCORE>
-23.3808

>  <SCORE.INTER>
-18.5571

>  <SCORE.INTER.CONST>
1

>  <SCORE.INTER.POLAR>
-4.31482

>  <SCORE.INTER.REPUL>
0.036399

>  <SCORE.INTER.ROT>
2

>  <SCORE.INTER.VDW>
-11.4687

>  <SCORE.INTER.norm>
-1.54642

>  <SCORE.INTRA>
-6.58616

>  <SCORE.INTRA.DIHEDRAL>
-9.89595

>  <SCORE.INTRA.DIHEDRAL.0>
10.9731

>  <SCORE.INTRA.POLAR>
-0.679185

>  <SCORE.INTRA.POLAR.0>
0

>  <SCORE.INTRA.REPUL>
0

>  <SCORE.INTRA.REPUL.0>
0

>  <SCORE.INTRA.VDW>
0.67105

>  <SCORE.INTRA.VDW.0>
-0.964046

>  <SCORE.INTRA.norm>
-0.548846

>  <SCORE.RESTR>
0.015542

>  <SCORE.RESTR.CAVITY>
0.015542

>  <SCORE.RESTR.norm>
0.00129517

>  <SCORE.SYSTEM>
1.7469

>  <SCORE.SYSTEM.CONST>
0

>  <SCORE.SYSTEM.DIHEDRAL>
3.67671

>  <SCORE.SYSTEM.VDW>
-0.0914551

>  <SCORE.SYSTEM.norm>
0.145575

>  <SCORE.heavy>
12

>  <SCORE.norm>
-1.9484

>  <SMILES>
N[C@H]1[C@H](O)O[C@H](CO)[C@@H](O)[C@@H]1O

>  <UniqueID>
211

$$$$
439174
  rDOCK(R)          3D
libRbt.so/2013.1/901 2013/11/27
 20 20  0  0  0  0  0  0  0  0999 V2000
   92.6692   19.7215 -105.2278 H   0  0  0  0  0  0
   92.1532   19.9014 -106.0807 O   0  0  0  0  0  0
   90.7600   19.8782 -106.1005 C   0  0  0  0  0  0
   90.0712   19.7597 -105.0020 N   0  0  0  0  0  0
   90.5908   19.6541 -103.6315 C   0  0  0  0  0  0
   90.1332   20.8271 -102.7419 C   0  0  0  0  0  0
   90.5388   22.0311 -103.3343 O   0  0  0  0  0  0
   90.1114   22.0616 -104.2298 H   0  0  0  0  0  0
   90.7348   20.7201 -101.4631 O   0  0  0  0  0  0
   90.2684   19.5648 -100.7835 C   0  0  0  0  0  0
   90.8141   19.6131  -99.3461 C   0  0  0  0  0  0
   92.2088   19.4671  -99.3243 O   0  0  0  0  0  0
   92.4022   18.5366  -99.6116 H   0  0  0  0  0  0
   90.7317   18.2823 -101.5217 C   0  0  0  0  0  0
   90.2206   17.1470 -100.8705 O   0  0  0  0  0  0
   90.5550   16.3539 -101.3653 H   0  0  0  0  0  0
   90.2298   18.3071 -102.9795 C   0  0  0  0  0  0
   90.8253   17.2666 -103.7123 O   0  0  0  0  0  0
   91.8060   17.3406 -103.5769 H   0  0  0  0  0  0
   90.0410   19.9579 -107.4086 C   0  0  0  0  0  0
  1  2  1  0  0  0
  2  3  1  0  0  0
  3  4  2  0  0  0
  3 20  1  0  0  0
  4  5  1  0  0  0
  5  6  1  0  0  0
  6  7  1  0  0  0
  6  9  1  0  0  0
  7  8  1  0  0  0
  9 10  1  0  0  0
 10 11  1  0  0  0
 10 14  1  0  0  0
 11 12  1  0  0  0
 12 13  1  0  0  0
 14 15  1  0  0  0
 14 17  1  0  0  0
 15 16  1  0  0  0
 17 18  1  0  0  0
 17  5  1  0  0  0
 18 19  1  0  0  0
M  END
>  <CHROM.0>
-178.61582039,151.61377067,-66.22870460

>  <CHROM.1>
7.04813971,117.96578921,59.47421225,-67.05705224,-67.93765807,-178.97300387
68.23494514,90.73280881,19.47474597,-102.92935180,2.45065556,-1.51248967
-0.54191491

>  <Energy>
26.12495674624173

>  <Genealogy>
CC(O)=N[C@H]1C(O)O[C@H](CO)[C@@H](O)[C@@H]1O (tautomer)
CC(O)=N[C@H]1[C@H](O)O[C@H](CO)[C@@H](O)[C@@H]1O (chirality)
C/C(O)=N/[C@H]1[C@H](O)O[C@H](CO)[C@@H](O)[C@@H]1O (cis-trans isomerization)
C/C(O)=N/[C@H]1[C@H](O)O[C@H](CO)[C@@H](O)[C@@H]1O (3D coordinates assigned)
C/C(O)=N/[C@H]1[C@H](O)O[C@H](CO)[C@@H](O)[C@@H]1O (nonaromatic ring conformer: 26.12495674624173 kcal/mol)

>  <Name>
439174

>  <RI>
3.62712e+07

>  <Rbt.Current_Directory>
/home/edward/Documentos/Virtual_Screening/rDock/3

>  <Rbt.Executable>
rbdock ($Id: //depot/dev/client3/rdock/2013.1/src/exe/rbdock.cxx#4 $)

>  <Rbt.Library>
libRbt.so (2013.1, Build901 2013/11/27)

>  <Rbt.Parameter_File>
/home/edward/anaconda3/envs/MD/share/rdock-2013.1-1/data/scripts/dock.prm

>  <Rbt.Receptor>
parameters.prm

>  <SCORE>
-20.2943

>  <SCORE.INTER>
-18.6736

>  <SCORE.INTER.CONST>
1

>  <SCORE.INTER.POLAR>
-3.3601

>  <SCORE.INTER.REPUL>
0

>  <SCORE.INTER.ROT>
2

>  <SCORE.INTER.VDW>
-14.6493

>  <SCORE.INTER.norm>
-1.24491

>  <SCORE.INTRA>
-3.36072

>  <SCORE.INTRA.DIHEDRAL>
-7.74978

>  <SCORE.INTRA.DIHEDRAL.0>
9.0437

>  <SCORE.INTRA.POLAR>
-0.00419604

>  <SCORE.INTRA.POLAR.0>
0

>  <SCORE.INTRA.REPUL>
0

>  <SCORE.INTRA.REPUL.0>
0

>  <SCORE.INTRA.VDW>
0.528434

>  <SCORE.INTRA.VDW.0>
-1.51125

>  <SCORE.INTRA.norm>
-0.224048

>  <SCORE.RESTR>
0

>  <SCORE.RESTR.CAVITY>
0

>  <SCORE.RESTR.norm>
0

>  <SCORE.SYSTEM>
1.74002

>  <SCORE.SYSTEM.CONST>
0

>  <SCORE.SYSTEM.DIHEDRAL>
3.61553

>  <SCORE.SYSTEM.VDW>
-0.0677461

>  <SCORE.SYSTEM.norm>
0.116001

>  <SCORE.heavy>
15

>  <SCORE.norm>
-1.35295

>  <SMILES>
C/C(O)=N/[C@H]1[C@H](O)O[C@H](CO)[C@@H](O)[C@@H]1O

>  <UniqueID>
215

$$$$
433580
  rDOCK(R)          3D
libRbt.so/2013.1/901 2013/11/27
 23 23  0  0  0  0  0  0  0  0999 V2000
   89.5426   21.3700 -105.8560 C   0  0  0  0  0  0
   89.3606   20.1576 -104.9387 C   0  0  0  0  0  0
   90.0457   19.0322 -105.4646 O   0  0  0  0  0  0
   89.9362   17.8884 -104.6279 C   0  0  0  0  0  0
   90.8482   16.7600 -105.1675 C   0  0  0  0  0  0
   92.2663   17.1235 -105.0358 N   0  3  0  0  0  0
   90.5469   15.4438 -104.4122 C   0  0  0  0  0  0
   91.3257   14.4115 -104.9540 O   0  0  0  0  0  0
   89.1800   15.0977 -104.5531 O   0  0  0  0  0  0
   88.3526   16.0563 -103.9173 C   0  0  0  0  0  0
   86.9052   15.5427 -103.9482 C   0  0  0  0  0  0
   86.5023   15.2923 -105.2678 O   0  0  0  0  0  0
   88.4713   17.4194 -104.6376 C   0  0  0  0  0  0
   87.6796   18.3820 -103.9871 O   0  0  0  0  0  0
   89.9319   20.4684 -103.5880 C   0  0  0  0  0  0
   91.1729   20.6294 -103.4458 O   0  0  0  0  0  0
   89.0995   20.5418 -102.4774 O   0  5  0  0  0  0
   92.4516   17.5530 -104.1000 H   0  0  0  0  0  0
   92.5333   17.7985 -105.7879 H   0  0  0  0  0  0
   92.8689   16.2766 -105.1485 H   0  0  0  0  0  0
   91.0168   14.2879 -105.8893 H   0  0  0  0  0  0
   86.9755   14.4692 -105.5581 H   0  0  0  0  0  0
   86.7311   18.1201 -104.1179 H   0  0  0  0  0  0
  1  2  1  0  0  0
  2  3  1  0  0  0
  2 15  1  0  0  0
  3  4  1  0  0  0
  4  5  1  0  0  0
  5  6  1  0  0  0
  5  7  1  0  0  0
  6 18  1  0  0  0
  6 19  1  0  0  0
  6 20  1  0  0  0
  7  8  1  0  0  0
  7  9  1  0  0  0
  8 21  1  0  0  0
  9 10  1  0  0  0
 10 11  1  0  0  0
 10 13  1  0  0  0
 11 12  1  0  0  0
 12 22  1  0  0  0
 13 14  1  0  0  0
 13  4  1  0  0  0
 14 23  1  0  0  0
 15 16  2  0  0  0
 15 17  1  0  0  0
M  END
>  <CHROM.0>
-179.79373723,156.63382458,-173.82820969

>  <CHROM.1>
178.41324760,-67.11270790,-172.88941703,43.64441933,-64.72258904,-56.92003232
72.76105367,172.23810112,89.48649197,17.70761004,-104.50140801,1.38108241
0.12698324,0.11841137

>  <Energy>
30.867644097560653

>  <Genealogy>
CC(OC1C([NH3+])C(O)OC(CO)C1O)C(=O)[O-] (protonated)
C[C@@H](O[C@H]1[C@H](O)[C@@H](CO)O[C@@H](O)[C@@H]1[NH3+])C(=O)[O-] (chirality)
C[C@@H](O[C@H]1[C@H](O)[C@@H](CO)O[C@@H](O)[C@@H]1[NH3+])C(=O)[O-] (3D coordinates assigned)
C[C@@H](O[C@H]1[C@H](O)[C@@H](CO)O[C@@H](O)[C@@H]1[NH3+])C(=O)[O-] (nonaromatic ring conformer: 30.867644097560653 kcal/mol)

>  <Name>
433580

>  <RI>
3.62712e+07

>  <Rbt.Current_Directory>
/home/edward/Documentos/Virtual_Screening/rDock/3

>  <Rbt.Executable>
rbdock ($Id: //depot/dev/client3/rdock/2013.1/src/exe/rbdock.cxx#4 $)

>  <Rbt.Library>
libRbt.so (2013.1, Build901 2013/11/27)

>  <Rbt.Parameter_File>
/home/edward/anaconda3/envs/MD/share/rdock-2013.1-1/data/scripts/dock.prm

>  <Rbt.Receptor>
parameters.prm

>  <SCORE>
-19.0042

>  <SCORE.INTER>
-18.2333

>  <SCORE.INTER.CONST>
1

>  <SCORE.INTER.POLAR>
-4.1194

>  <SCORE.INTER.REPUL>
0.00282552

>  <SCORE.INTER.ROT>
4

>  <SCORE.INTER.VDW>
-13.6414

>  <SCORE.INTER.norm>
-1.07254

>  <SCORE.INTRA>
-4.42994

>  <SCORE.INTRA.DIHEDRAL>
-13.6937

>  <SCORE.INTRA.DIHEDRAL.0>
16.849

>  <SCORE.INTRA.POLAR>
-0.00436257

>  <SCORE.INTRA.POLAR.0>
0

>  <SCORE.INTRA.REPUL>
0

>  <SCORE.INTRA.REPUL.0>
0

>  <SCORE.INTRA.VDW>
2.43175

>  <SCORE.INTRA.VDW.0>
-2.11885

>  <SCORE.INTRA.norm>
-0.260585

>  <SCORE.RESTR>
0

>  <SCORE.RESTR.CAVITY>
0

>  <SCORE.RESTR.norm>
0

>  <SCORE.SYSTEM>
3.65898

>  <SCORE.SYSTEM.CONST>
0

>  <SCORE.SYSTEM.DIHEDRAL>
3.12949

>  <SCORE.SYSTEM.VDW>
2.09423

>  <SCORE.SYSTEM.norm>
0.215234

>  <SCORE.heavy>
17

>  <SCORE.norm>
-1.11789

>  <SMILES>
C[C@@H](O[C@H]1[C@H](O)[C@@H](CO)O[C@@H](O)[C@@H]1[NH3+])C(=O)[O-]

>  <UniqueID>
218

$$$$
408523
  rDOCK(R)          3D
libRbt.so/2013.1/901 2013/11/27
 27 27  0  0  0  0  0  0  0  0999 V2000
   90.4512   21.1656  -99.7256 C   0  0  0  0  0  0
   91.0159   19.7989  -99.9134 C   0  0  0  0  0  0
   92.1186   19.4992  -99.3801 O   0  0  0  0  0  0
   90.2952   18.8516 -100.6445 O   0  0  0  0  0  0
   90.7443   17.5110 -100.8234 C   0  0  0  0  0  0
   89.9203   16.8061 -101.9083 C   0  0  0  0  0  0
   88.5392   16.9720 -101.6231 O   0  0  0  0  0  0
   87.7303   16.2052 -102.5046 C   0  0  0  0  0  0
   87.9766   14.8050 -102.3456 O   0  0  0  0  0  0
   88.1979   14.2049 -101.1028 C   0  0  0  0  0  0
   88.5292   12.7532 -101.0394 C   0  0  0  0  0  0
   88.0829   14.8676 -100.0362 O   0  0  0  0  0  0
   87.9322   16.6432 -103.9750 C   0  0  0  0  0  0
   87.1013   15.8485 -104.8896 N   0  3  0  0  0  0
   89.4239   16.5772 -104.3678 C   0  0  0  0  0  0
   89.8474   15.2134 -104.4490 O   0  0  0  0  0  0
   91.0377   14.8067 -105.0603 C   0  0  0  0  0  0
   91.2828   13.3549 -105.2915 C   0  0  0  0  0  0
   91.9173   15.6484 -105.3886 O   0  0  0  0  0  0
   90.2640   17.3362 -103.3202 C   0  0  0  0  0  0
   89.9881   18.7372 -103.3932 O   0  0  0  0  0  0
   90.3192   19.5348 -104.4934 C   0  0  0  0  0  0
   89.9920   20.9886 -104.4684 C   0  0  0  0  0  0
   90.8610   19.0342 -105.5161 O   0  0  0  0  0  0
   86.0861   16.0642 -104.7628 H   0  0  0  0  0  0
   87.2582   14.8297 -104.7129 H   0  0  0  0  0  0
   87.3713   16.0543 -105.8790 H   0  0  0  0  0  0
  1  2  1  0  0  0
  2  3  2  0  0  0
  2  4  1  0  0  0
  4  5  1  0  0  0
  5  6  1  0  0  0
  6  7  1  0  0  0
  7  8  1  0  0  0
  8  9  1  0  0  0
  8 13  1  0  0  0
  9 10  1  0  0  0
 10 11  1  0  0  0
 10 12  2  0  0  0
 13 14  1  0  0  0
 13 15  1  0  0  0
 14 25  1  0  0  0
 14 26  1  0  0  0
 14 27  1  0  0  0
 15 16  1  0  0  0
 15 20  1  0  0  0
 16 17  1  0  0  0
 17 18  1  0  0  0
 17 19  2  0  0  0
 20 21  1  0  0  0
 20  6  1  0  0  0
 21 22  1  0  0  0
 22 23  1  0  0  0
 22 24  2  0  0  0
M  END
>  <CHROM.0>
-179.77584266,153.94102704,54.39359185

>  <CHROM.1>
-177.51486381,-167.52393501,-51.01463263,38.95266917,-176.27073144,68.68765964
165.29336501,-170.01701004,173.31242967,-179.78222060,89.72331677,16.96112218
-102.73996240,0.83126630,1.17041822,1.11844106

>  <Energy>
29.333860935431186

>  <Genealogy>
CC(=O)OCC1OC(OC(C)=O)C([NH3+])C(OC(C)=O)C1OC(C)=O (protonated)
CC(=O)OC[C@H]1O[C@H](OC(C)=O)[C@H]([NH3+])[C@H](OC(C)=O)[C@H]1OC(C)=O (chirality)
CC(=O)OC[C@H]1O[C@H](OC(C)=O)[C@H]([NH3+])[C@H](OC(C)=O)[C@H]1OC(C)=O (3D coordinates assigned)
CC(=O)OC[C@H]1O[C@H](OC(C)=O)[C@H]([NH3+])[C@H](OC(C)=O)[C@H]1OC(C)=O (nonaromatic ring conformer: 29.333860935431186 kcal/mol)

>  <Name>
408523

>  <RI>
3.62712e+07

>  <Rbt.Current_Directory>
/home/edward/Documentos/Virtual_Screening/rDock/3

>  <Rbt.Executable>
rbdock ($Id: //depot/dev/client3/rdock/2013.1/src/exe/rbdock.cxx#4 $)

>  <Rbt.Library>
libRbt.so (2013.1, Build901 2013/11/27)

>  <Rbt.Parameter_File>
/home/edward/anaconda3/envs/MD/share/rdock-2013.1-1/data/scripts/dock.prm

>  <Rbt.Receptor>
parameters.prm

>  <SCORE>
-9.70683

>  <SCORE.INTER>
-11.1746

>  <SCORE.INTER.CONST>
1

>  <SCORE.INTER.POLAR>
-2.0652

>  <SCORE.INTER.REPUL>
0

>  <SCORE.INTER.ROT>
9

>  <SCORE.INTER.VDW>
-18.5529

>  <SCORE.INTER.norm>
-0.465607

>  <SCORE.INTRA>
-0.951413

>  <SCORE.INTRA.DIHEDRAL>
2.43671

>  <SCORE.INTRA.DIHEDRAL.0>
3.07713

>  <SCORE.INTRA.POLAR>
-0.00418842

>  <SCORE.INTRA.POLAR.0>
0

>  <SCORE.INTRA.REPUL>
-0.454047

>  <SCORE.INTRA.REPUL.0>
0.487326

>  <SCORE.INTRA.VDW>
0.114706

>  <SCORE.INTRA.VDW.0>
-3.89389

>  <SCORE.INTRA.norm>
-0.0396422

>  <SCORE.RESTR>
0.0170543

>  <SCORE.RESTR.CAVITY>
0.0170543

>  <SCORE.RESTR.norm>
0.000710596

>  <SCORE.SYSTEM>
2.40211

>  <SCORE.SYSTEM.CONST>
0

>  <SCORE.SYSTEM.DIHEDRAL>
3.18203

>  <SCORE.SYSTEM.VDW>
0.811099

>  <SCORE.SYSTEM.norm>
0.100088

>  <SCORE.heavy>
24

>  <SCORE.norm>
-0.404451

>  <SMILES>
CC(=O)OC[C@H]1O[C@H](OC(C)=O)[C@H]([NH3+])[C@H](OC(C)=O)[C@H]1OC(C)=O

>  <UniqueID>
220

$$$$
312829
  rDOCK(R)          3D
libRbt.so/2013.1/901 2013/11/27
 28 28  0  0  0  0  0  0  0  0999 V2000
   85.9767   26.9508 -105.3748 H   0  0  0  0  0  0
   85.3051   27.2946 -104.6989 O   0  0  0  0  0  0
   84.9923   26.5613 -103.5546 C   0  0  0  0  0  0
   85.6494   25.4797 -103.2605 N   0  0  0  0  0  0
   86.7212   24.9116 -104.0813 C   0  0  0  0  0  0
   86.6736   23.3655 -104.0553 C   0  0  0  0  0  0
   86.6346   22.8768 -102.7111 O   0  0  0  0  0  0
   86.7243   21.5186 -102.3911 C   0  0  0  0  0  0
   86.9049   20.6538 -103.2908 O   0  0  0  0  0  0
   86.5865   21.0874 -100.9715 C   0  0  0  0  0  0
   87.7626   22.8049 -104.7746 O   0  0  0  0  0  0
   89.0058   23.1757 -104.2001 C   0  0  0  0  0  0
   90.1238   22.3756 -104.8811 C   0  0  0  0  0  0
   89.8788   20.9751 -104.7552 O   0  0  0  0  0  0
   90.7523   19.9926 -105.2353 C   0  0  0  0  0  0
   91.8305   20.3095 -105.8074 O   0  0  0  0  0  0
   90.3791   18.5551 -105.1114 C   0  0  0  0  0  0
   89.2246   24.7014 -104.3176 C   0  0  0  0  0  0
   89.2201   25.1120 -105.6888 O   0  0  0  0  0  0
   89.4279   26.4294 -106.1138 C   0  0  0  0  0  0
   89.6502   27.3521 -105.2837 O   0  0  0  0  0  0
   89.4331   26.7345 -107.5725 C   0  0  0  0  0  0
   88.0833   25.4261 -103.5790 C   0  0  0  0  0  0
   88.1860   25.2135 -102.1677 O   0  0  0  0  0  0
   87.5984   26.0484 -101.2117 C   0  0  0  0  0  0
   87.0512   27.1333 -101.5488 O   0  0  0  0  0  0
   87.5713   25.6190  -99.7848 C   0  0  0  0  0  0
   83.9184   27.0428 -102.6334 C   0  0  0  0  0  0
  1  2  1  0  0  0
  2  3  1  0  0  0
  3  4  2  0  0  0
  3 28  1  0  0  0
  4  5  1  0  0  0
  5  6  1  0  0  0
  6  7  1  0  0  0
  6 11  1  0  0  0
  7  8  1  0  0  0
  8  9  2  0  0  0
  8 10  1  0  0  0
 11 12  1  0  0  0
 12 13  1  0  0  0
 12 18  1  0  0  0
 13 14  1  0  0  0
 14 15  1  0  0  0
 15 16  2  0  0  0
 15 17  1  0  0  0
 18 19  1  0  0  0
 18 23  1  0  0  0
 19 20  1  0  0  0
 20 21  2  0  0  0
 20 22  1  0  0  0
 23 24  1  0  0  0
 23  5  1  0  0  0
 24 25  1  0  0  0
 25 26  2  0  0  0
 25 27  1  0  0  0
M  END
>  <CHROM.0>
179.30928805,154.26733490,57.32924486

>  <CHROM.1>
6.72164771,-143.43919414,-173.29906715,3.13171350,-57.01689096,-177.58824836
0.58040998,-178.32876392,0.71133466,-80.03991326,-7.56238207,87.97945221
24.02376889,-103.84868867,-2.36470566,-0.79657468,2.80649931

>  <Energy>
31.630035146206392

>  <Genealogy>
CC(=O)OCC1OC(OC(C)=O)C(N=C(C)O)C(OC(C)=O)C1OC(C)=O (tautomer)
CC(=O)OC[C@@H]1O[C@@H](OC(C)=O)[C@@H](N=C(C)O)[C@@H](OC(C)=O)[C@@H]1OC(C)=O (chirality)
CC(=O)OC[C@@H]1O[C@@H](OC(C)=O)[C@@H](/N=C(/C)O)[C@@H](OC(C)=O)[C@@H]1OC(C)=O (cis-trans isomerization)
CC(=O)OC[C@@H]1O[C@@H](OC(C)=O)[C@@H](/N=C(/C)O)[C@@H](OC(C)=O)[C@@H]1OC(C)=O (3D coordinates assigned)
CC(=O)OC[C@@H]1O[C@@H](OC(C)=O)[C@@H](/N=C(/C)O)[C@@H](OC(C)=O)[C@@H]1OC(C)=O (nonaromatic ring conformer: 31.630035146206392 kcal/mol)

>  <Name>
312829

>  <RI>
3.62712e+07

>  <Rbt.Current_Directory>
/home/edward/Documentos/Virtual_Screening/rDock/3

>  <Rbt.Executable>
rbdock ($Id: //depot/dev/client3/rdock/2013.1/src/exe/rbdock.cxx#4 $)

>  <Rbt.Library>
libRbt.so (2013.1, Build901 2013/11/27)

>  <Rbt.Parameter_File>
/home/edward/anaconda3/envs/MD/share/rdock-2013.1-1/data/scripts/dock.prm

>  <Rbt.Receptor>
parameters.prm

>  <SCORE>
-9.60278

>  <SCORE.INTER>
-7.48632

>  <SCORE.INTER.CONST>
1

>  <SCORE.INTER.POLAR>
-2.44423

>  <SCORE.INTER.REPUL>
0

>  <SCORE.INTER.ROT>
10

>  <SCORE.INTER.VDW>
-14.5759

>  <SCORE.INTER.norm>
-0.277271

>  <SCORE.INTRA>
-4.57313

>  <SCORE.INTRA.DIHEDRAL>
-5.84333

>  <SCORE.INTRA.DIHEDRAL.0>
9.75454

>  <SCORE.INTRA.POLAR>
0

>  <SCORE.INTRA.POLAR.0>
0

>  <SCORE.INTRA.REPUL>
-0.336884

>  <SCORE.INTRA.REPUL.0>
0.336884

>  <SCORE.INTRA.VDW>
0.0329589

>  <SCORE.INTRA.VDW.0>
-4.76447

>  <SCORE.INTRA.norm>
-0.169375

>  <SCORE.RESTR>
0

>  <SCORE.RESTR.CAVITY>
0

>  <SCORE.RESTR.norm>
0

>  <SCORE.SYSTEM>
2.45666

>  <SCORE.SYSTEM.CONST>
0

>  <SCORE.SYSTEM.DIHEDRAL>
3.18428

>  <SCORE.SYSTEM.VDW>
0.864523

>  <SCORE.SYSTEM.norm>
0.0909875

>  <SCORE.heavy>
27

>  <SCORE.norm>
-0.355659

>  <SMILES>
CC(=O)OC[C@@H]1O[C@@H](OC(C)=O)[C@@H](/N=C(/C)O)[C@@H](OC(C)=O)[C@@H]1OC(C)=O

>  <UniqueID>
225

$$$$
254124
  rDOCK(R)          3D
libRbt.so/2013.1/901 2013/11/27
 20 20  0  0  0  0  0  0  0  0999 V2000
   89.6532   18.8817 -101.7050 C   0  0  0  0  0  0
   89.5774   19.1279 -103.0928 O   0  0  0  0  0  0
   90.6225   18.4646 -103.7854 C   0  0  0  0  0  0
   90.6959   19.0180 -105.0889 O   0  0  0  0  0  0
   91.7880   18.4736 -105.8135 C   0  0  0  0  0  0
   91.9355   19.2537 -107.1284 C   0  0  0  0  0  0
   92.1938   20.6112 -106.8821 O   0  0  0  0  0  0
   91.5763   16.9594 -106.0612 C   0  0  0  0  0  0
   92.6985   16.4111 -106.7063 O   0  0  0  0  0  0
   91.3782   16.2419 -104.7174 C   0  0  0  0  0  0
   91.0209   14.9033 -104.9481 O   0  0  0  0  0  0
   90.3044   16.9535 -103.8684 C   0  0  0  0  0  0
   88.9664   16.7436 -104.4380 N   0  0  0  0  0  0
   87.8462   16.3127 -103.6523 C   0  0  0  0  0  0
   86.5348   16.0418 -104.3142 C   0  0  0  0  0  0
   87.9642   16.1352 -102.4096 O   0  0  0  0  0  0
   92.4124   21.0272 -107.7563 H   0  0  0  0  0  0
   93.4394   16.3986 -106.0458 H   0  0  0  0  0  0
   91.7288   14.5143 -105.5254 H   0  0  0  0  0  0
   88.8416   16.8127 -105.4737 H   0  0  0  0  0  0
  1  2  1  0  0  0
  2  3  1  0  0  0
  3  4  1  0  0  0
  4  5  1  0  0  0
  5  6  1  0  0  0
  5  8  1  0  0  0
  6  7  1  0  0  0
  7 17  1  0  0  0
  8  9  1  0  0  0
  8 10  1  0  0  0
  9 18  1  0  0  0
 10 11  1  0  0  0
 10 12  1  0  0  0
 11 19  1  0  0  0
 12 13  1  0  0  0
 12  3  1  0  0  0
 13 14  1  0  0  0
 13 20  1  0  0  0
 14 15  1  0  0  0
 14 16  2  0  0  0
M  END
>  <CHROM.0>
-72.80679376,151.78364135,-68.91142487

>  <CHROM.1>
-165.26250534,60.77183192,171.67117792,70.56921182,55.31287931,-107.45337971
90.32384738,17.54822970,-104.68971820,2.91076594,-0.75013455,-2.90706986

>  <Energy>
30.106972036154314

>  <Genealogy>
CO[C@@H]1O[C@H](CO)[C@@H](O)[C@H](O)[C@@H]1NC(C)=O (chirality)
CO[C@@H]1O[C@H](CO)[C@@H](O)[C@H](O)[C@@H]1NC(C)=O (3D coordinates assigned)
CO[C@@H]1O[C@H](CO)[C@@H](O)[C@H](O)[C@@H]1NC(C)=O (nonaromatic ring conformer: 30.106972036154314 kcal/mol)

>  <Name>
254124

>  <RI>
3.62712e+07

>  <Rbt.Current_Directory>
/home/edward/Documentos/Virtual_Screening/rDock/3

>  <Rbt.Executable>
rbdock ($Id: //depot/dev/client3/rdock/2013.1/src/exe/rbdock.cxx#4 $)

>  <Rbt.Library>
libRbt.so (2013.1, Build901 2013/11/27)

>  <Rbt.Parameter_File>
/home/edward/anaconda3/envs/MD/share/rdock-2013.1-1/data/scripts/dock.prm

>  <Rbt.Receptor>
parameters.prm

>  <SCORE>
-18.3543

>  <SCORE.INTER>
-17.3327

>  <SCORE.INTER.CONST>
1

>  <SCORE.INTER.POLAR>
-3.66659

>  <SCORE.INTER.REPUL>
0.00470991

>  <SCORE.INTER.ROT>
3

>  <SCORE.INTER.VDW>
-13.2898

>  <SCORE.INTER.norm>
-1.08329

>  <SCORE.INTRA>
-4.32635

>  <SCORE.INTRA.DIHEDRAL>
-11.7081

>  <SCORE.INTRA.DIHEDRAL.0>
15.0949

>  <SCORE.INTRA.POLAR>
0

>  <SCORE.INTRA.POLAR.0>
0

>  <SCORE.INTRA.REPUL>
0

>  <SCORE.INTRA.REPUL.0>
0

>  <SCORE.INTRA.VDW>
1.52772

>  <SCORE.INTRA.VDW.0>
-2.2975

>  <SCORE.INTRA.norm>
-0.270397

>  <SCORE.RESTR>
0.00265918

>  <SCORE.RESTR.CAVITY>
0.00265918

>  <SCORE.RESTR.norm>
0.000166198

>  <SCORE.SYSTEM>
3.30208

>  <SCORE.SYSTEM.CONST>
0

>  <SCORE.SYSTEM.DIHEDRAL>
4.3363

>  <SCORE.SYSTEM.VDW>
1.13393

>  <SCORE.SYSTEM.norm>
0.20638

>  <SCORE.heavy>
16

>  <SCORE.norm>
-1.14714

>  <SMILES>
CO[C@@H]1O[C@H](CO)[C@@H](O)[C@H](O)[C@@H]1NC(C)=O

>  <UniqueID>
228

$$$$
202260
  rDOCK(R)          3D
libRbt.so/2013.1/901 2013/11/27
 26 26  0  0  0  0  0  0  0  0999 V2000
   91.0213   23.4564 -106.2409 C   0  0  0  0  0  0
   90.7982   22.0880 -105.6930 C   0  0  0  0  0  0
   91.7082   21.2203 -105.7892 O   0  0  0  0  0  0
   89.5642   21.7687 -105.1209 O   0  0  0  0  0  0
   89.2815   20.4858 -104.5682 C   0  0  0  0  0  0
   90.1551   20.2319 -103.3336 C   0  0  0  0  0  0
   89.7392   21.1067 -102.3000 O   0  0  0  0  0  0
   90.6292   21.0435 -101.2006 C   0  0  0  0  0  0
   90.2248   22.0427 -100.2619 O   0  0  0  0  0  0
   90.0962   23.4034 -100.5676 C   0  0  0  0  0  0
   89.6381   24.3506  -99.5116 C   0  0  0  0  0  0
   90.3242   23.8319 -101.7314 O   0  0  0  0  0  0
   90.5658   19.6412 -100.5452 C   0  0  0  0  0  0
   91.4986   19.5599  -99.4170 N   0  0  0  0  0  0
   90.9078   18.5658 -101.6016 C   0  0  0  0  0  0
   90.6546   17.2605 -101.0751 O   0  0  0  0  0  0
   89.4128   16.8379 -100.5862 C   0  0  0  0  0  0
   89.2559   15.4348 -100.1093 C   0  0  0  0  0  0
   88.4418   17.6378 -100.5008 O   0  0  0  0  0  0
   90.0519   18.7646 -102.8651 C   0  0  0  0  0  0
   90.5164   17.9017 -103.9067 O   0  0  0  0  0  0
   90.2305   16.5332 -103.9695 C   0  0  0  0  0  0
   90.8292   15.7100 -105.0580 C   0  0  0  0  0  0
   89.4337   15.9991 -103.1512 O   0  0  0  0  0  0
   91.5891   18.5598  -99.1287 H   0  0  0  0  0  0
   91.0605   20.0273  -98.5916 H   0  0  0  0  0  0
  1  2  1  0  0  0
  2  3  2  0  0  0
  2  4  1  0  0  0
  4  5  1  0  0  0
  5  6  1  0  0  0
  6  7  1  0  0  0
  7  8  1  0  0  0
  8  9  1  0  0  0
  8 13  1  0  0  0
  9 10  1  0  0  0
 10 11  1  0  0  0
 10 12  2  0  0  0
 13 14  1  0  0  0
 13 15  1  0  0  0
 14 25  1  0  0  0
 14 26  1  0  0  0
 15 16  1  0  0  0
 15 20  1  0  0  0
 16 17  1  0  0  0
 17 18  1  0  0  0
 17 19  2  0  0  0
 20 21  1  0  0  0
 20  6  1  0  0  0
 21 22  1  0  0  0
 22 23  1  0  0  0
 22 24  2  0  0  0
M  END
>  <CHROM.0>
178.37706440,155.15365016,-65.17510692

>  <CHROM.1>
-179.51123204,65.79173724,68.52266952,-56.14125667,178.71371178,-167.86768729
57.45600879,177.68375828,-161.92894736,-176.55670100,90.20446568,19.79066680
-102.45698168,-0.93771180,-1.45229962,-2.64441946

>  <Energy>
30.8731751307614

>  <Genealogy>
CC(=O)OC[C@H]1O[C@@H](OC(C)=O)[C@H](N)[C@@H](OC(C)=O)[C@@H]1OC(C)=O (3D coordinates assigned)
CC(=O)OC[C@H]1O[C@@H](OC(C)=O)[C@H](N)[C@@H](OC(C)=O)[C@@H]1OC(C)=O (nonaromatic ring conformer: 30.8731751307614 kcal/mol)

>  <Name>
202260

>  <RI>
3.62712e+07

>  <Rbt.Current_Directory>
/home/edward/Documentos/Virtual_Screening/rDock/3

>  <Rbt.Executable>
rbdock ($Id: //depot/dev/client3/rdock/2013.1/src/exe/rbdock.cxx#4 $)

>  <Rbt.Library>
libRbt.so (2013.1, Build901 2013/11/27)

>  <Rbt.Parameter_File>
/home/edward/anaconda3/envs/MD/share/rdock-2013.1-1/data/scripts/dock.prm

>  <Rbt.Receptor>
parameters.prm

>  <SCORE>
-10.6438

>  <SCORE.INTER>
-8.0967

>  <SCORE.INTER.CONST>
1

>  <SCORE.INTER.POLAR>
-1.66419

>  <SCORE.INTER.REPUL>
0.0144344

>  <SCORE.INTER.ROT>
10

>  <SCORE.INTER.VDW>
-17.9106

>  <SCORE.INTER.norm>
-0.337363

>  <SCORE.INTRA>
-4.3312

>  <SCORE.INTRA.DIHEDRAL>
-10.369

>  <SCORE.INTRA.DIHEDRAL.0>
13.1129

>  <SCORE.INTRA.POLAR>
0

>  <SCORE.INTRA.POLAR.0>
0

>  <SCORE.INTRA.REPUL>
0

>  <SCORE.INTRA.REPUL.0>
0

>  <SCORE.INTRA.VDW>
0.853277

>  <SCORE.INTRA.VDW.0>
-3.66203

>  <SCORE.INTRA.norm>
-0.180467

>  <SCORE.RESTR>
0

>  <SCORE.RESTR.CAVITY>
0

>  <SCORE.RESTR.norm>
0

>  <SCORE.SYSTEM>
1.7841

>  <SCORE.SYSTEM.CONST>
0

>  <SCORE.SYSTEM.DIHEDRAL>
2.97996

>  <SCORE.SYSTEM.VDW>
0.294123

>  <SCORE.SYSTEM.norm>
0.0743375

>  <SCORE.heavy>
24

>  <SCORE.norm>
-0.443492

>  <SMILES>
CC(=O)OC[C@H]1O[C@@H](OC(C)=O)[C@H](N)[C@@H](OC(C)=O)[C@@H]1OC(C)=O

>  <UniqueID>
230

$$$$
198515
  rDOCK(R)          3D
libRbt.so/2013.1/901 2013/11/27
 29 29  0  0  0  0  0  0  0  0999 V2000
   84.3544   27.7414 -103.3903 C   0  0  0  0  0  0
   85.3256   26.7884 -102.7809 C   0  0  0  0  0  0
   84.9626   25.6099 -102.5167 O   0  0  0  0  0  0
   86.6407   27.2053 -102.5499 O   0  0  0  0  0  0
   87.6418   26.3845 -101.9483 C   0  0  0  0  0  0
   87.8542   25.0708 -102.7228 C   0  0  0  0  0  0
   88.5354   25.3359 -103.9365 O   0  0  0  0  0  0
   88.5371   24.1858 -104.7668 C   0  0  0  0  0  0
   89.1640   24.5139 -106.0043 O   0  0  0  0  0  0
   88.7161   25.5452 -106.8354 C   0  0  0  0  0  0
   89.4190   25.8068 -108.1234 C   0  0  0  0  0  0
   87.7022   26.2292 -106.5268 O   0  0  0  0  0  0
   89.3219   23.0346 -104.1063 C   0  0  0  0  0  0
   89.2564   21.8436 -104.9585 N   0  0  0  0  0  0
   90.3609   21.3879 -105.7537 C   0  0  0  0  0  0
   91.4680   21.9893 -105.7182 O   0  0  0  0  0  0
   90.2204   20.1627 -106.5981 C   0  0  0  0  0  0
   90.7176   18.6029 -105.5656 Br  0  0  0  0  0  0
   88.7411   22.7259 -102.7097 C   0  0  0  0  0  0
   89.5783   21.7962 -102.0182 O   0  0  0  0  0  0
   89.6773   20.4389 -102.3434 C   0  0  0  0  0  0
   90.5949   19.5650 -101.5600 C   0  0  0  0  0  0
   88.9662   19.9360 -103.2554 O   0  0  0  0  0  0
   88.6324   24.0262 -101.8913 C   0  0  0  0  0  0
   89.9371   24.5304 -101.5882 O   0  0  0  0  0  0
   90.2143   25.4012 -100.5293 C   0  0  0  0  0  0
   91.5703   26.0098 -100.4230 C   0  0  0  0  0  0
   89.3204   25.7157  -99.6975 O   0  0  0  0  0  0
   88.3375   21.3544 -105.0565 H   0  0  0  0  0  0
  1  2  1  0  0  0
  2  3  2  0  0  0
  2  4  1  0  0  0
  4  5  1  0  0  0
  5  6  1  0  0  0
  6  7  1  0  0  0
  7  8  1  0  0  0
  8  9  1  0  0  0
  8 13  1  0  0  0
  9 10  1  0  0  0
 10 11  1  0  0  0
 10 12  2  0  0  0
 13 14  1  0  0  0
 13 19  1  0  0  0
 14 15  1  0  0  0
 14 29  1  0  0  0
 15 16  2  0  0  0
 15 17  1  0  0  0
 17 18  1  0  0  0
 19 20  1  0  0  0
 19 24  1  0  0  0
 20 21  1  0  0  0
 21 22  1  0  0  0
 21 23  2  0  0  0
 24 25  1  0  0  0
 24  6  1  0  0  0
 25 26  1  0  0  0
 26 27  1  0  0  0
 26 28  2  0  0  0
M  END
>  <CHROM.0>
-178.47423180,153.95009296,-65.36369317

>  <CHROM.1>
178.69809183,57.18235177,72.79813105,-57.53915198,-179.06971998,105.32478135
-89.30792202,-72.21392301,179.39259096,82.53942852,-171.52644377,89.09465888
23.12553560,-103.87182213,2.63126845,-1.08931321,1.33933263

>  <Energy>
29.871165526885463

>  <Genealogy>
CC(=O)OC[C@H]1O[C@@H](OC(C)=O)[C@H](NC(=O)CBr)[C@@H](OC(C)=O)[C@H]1OC(C)=O (3D coordinates assigned)
CC(=O)OC[C@H]1O[C@@H](OC(C)=O)[C@H](NC(=O)CBr)[C@@H](OC(C)=O)[C@H]1OC(C)=O (nonaromatic ring conformer: 29.871165526885463 kcal/mol)

>  <Name>
198515

>  <RI>
3.62712e+07

>  <Rbt.Current_Directory>
/home/edward/Documentos/Virtual_Screening/rDock/3

>  <Rbt.Executable>
rbdock ($Id: //depot/dev/client3/rdock/2013.1/src/exe/rbdock.cxx#4 $)

>  <Rbt.Library>
libRbt.so (2013.1, Build901 2013/11/27)

>  <Rbt.Parameter_File>
/home/edward/anaconda3/envs/MD/share/rdock-2013.1-1/data/scripts/dock.prm

>  <Rbt.Receptor>
parameters.prm

>  <SCORE>
-5.56464

>  <SCORE.INTER>
-7.23549

>  <SCORE.INTER.CONST>
1

>  <SCORE.INTER.POLAR>
-2.37042

>  <SCORE.INTER.REPUL>
0

>  <SCORE.INTER.ROT>
11

>  <SCORE.INTER.VDW>
-15.5761

>  <SCORE.INTER.norm>
-0.25841

>  <SCORE.INTRA>
-0.0710597

>  <SCORE.INTRA.DIHEDRAL>
-4.52892

>  <SCORE.INTRA.DIHEDRAL.0>
10.9635

>  <SCORE.INTRA.POLAR>
0

>  <SCORE.INTRA.POLAR.0>
0

>  <SCORE.INTRA.REPUL>
0

>  <SCORE.INTRA.REPUL.0>
0

>  <SCORE.INTRA.VDW>
2.1934

>  <SCORE.INTRA.VDW.0>
-7.07204

>  <SCORE.INTRA.norm>
-0.00253785

>  <SCORE.RESTR>
0

>  <SCORE.RESTR.CAVITY>
0

>  <SCORE.RESTR.norm>
0

>  <SCORE.SYSTEM>
1.74191

>  <SCORE.SYSTEM.CONST>
0

>  <SCORE.SYSTEM.DIHEDRAL>
3.19525

>  <SCORE.SYSTEM.VDW>
0.144284

>  <SCORE.SYSTEM.norm>
0.062211

>  <SCORE.heavy>
28

>  <SCORE.norm>
-0.198737

>  <SMILES>
CC(=O)OC[C@H]1O[C@@H](OC(C)=O)[C@H](NC(=O)CBr)[C@@H](OC(C)=O)[C@H]1OC(C)=O

>  <UniqueID>
232

$$$$
198514
  rDOCK(R)          3D
libRbt.so/2013.1/901 2013/11/27
 30 30  0  0  0  0  0  0  0  0999 V2000
   91.0174   22.2108 -105.5792 H   0  0  0  0  0  0
   91.3230   21.2775 -105.8211 O   0  0  0  0  0  0
   90.5637   20.1428 -105.5315 C   0  0  0  0  0  0
   90.9889   18.9489 -105.9462 C   0  0  0  0  0  0
   92.6264   18.7462 -106.9132 Br  0  0  0  0  0  0
   89.3235   20.2438 -104.8118 N   0  0  0  0  0  0
   88.6083   19.4904 -104.9371 H   0  0  0  0  0  0
   89.0336   21.3106 -103.8492 C   0  0  0  0  0  0
   88.2463   22.4340 -104.5421 C   0  0  0  0  0  0
   89.0414   22.9705 -105.5967 O   0  0  0  0  0  0
   88.5758   23.9493 -106.4795 C   0  0  0  0  0  0
   87.4095   24.4161 -106.3689 O   0  0  0  0  0  0
   89.4520   24.4073 -107.5951 C   0  0  0  0  0  0
   87.9550   23.4655 -103.6169 O   0  0  0  0  0  0
   87.0621   23.0033 -102.6177 C   0  0  0  0  0  0
   86.6567   24.2143 -101.7584 C   0  0  0  0  0  0
   85.7586   25.0807 -102.4514 O   0  0  0  0  0  0
   86.1474   25.9195 -103.5010 C   0  0  0  0  0  0
   87.3442   25.9485 -103.8971 O   0  0  0  0  0  0
   85.1208   26.7519 -104.1900 C   0  0  0  0  0  0
   87.7374   21.9032 -101.7615 C   0  0  0  0  0  0
   86.7969   21.3974 -100.8111 O   0  0  0  0  0  0
   86.5289   22.0006  -99.5779 C   0  0  0  0  0  0
   87.1682   23.0204  -99.2021 O   0  0  0  0  0  0
   85.4235   21.4673  -98.7325 C   0  0  0  0  0  0
   88.2178   20.7531 -102.6670 C   0  0  0  0  0  0
   89.0272   19.8607 -101.8981 O   0  0  0  0  0  0
   90.1766   20.2500 -101.2011 C   0  0  0  0  0  0
   90.6169   21.4287 -101.2817 O   0  0  0  0  0  0
   90.8943   19.2552 -100.3553 C   0  0  0  0  0  0
  1  2  1  0  0  0
  2  3  1  0  0  0
  3  4  2  0  0  0
  3  6  1  0  0  0
  4  5  1  0  0  0
  6  7  1  0  0  0
  6  8  1  0  0  0
  8  9  1  0  0  0
  9 10  1  0  0  0
  9 14  1  0  0  0
 10 11  1  0  0  0
 11 12  2  0  0  0
 11 13  1  0  0  0
 14 15  1  0  0  0
 15 16  1  0  0  0
 15 21  1  0  0  0
 16 17  1  0  0  0
 17 18  1  0  0  0
 18 19  2  0  0  0
 18 20  1  0  0  0
 21 22  1  0  0  0
 21 26  1  0  0  0
 22 23  1  0  0  0
 23 24  2  0  0  0
 23 25  1  0  0  0
 26 27  1  0  0  0
 26  8  1  0  0  0
 27 28  1  0  0  0
 28 29  2  0  0  0
 28 30  1  0  0  0
M  END
>  <CHROM.0>
-179.71880427,154.50809329,-65.70363193

>  <CHROM.1>
176.17310092,95.98864874,175.56081104,0.60710672,73.13906919,-72.97852993
0.12740368,-83.51104880,-3.40920206,63.91350982,-4.38140422,88.98685562,21.83782786
-103.81775527,0.19426823,0.84992222,-1.03807152

>  <Energy>
31.575836598958155

>  <Genealogy>
CC(=O)OC[C@H]1O[C@@H](OC(C)=O)[C@H](NC(O)=CBr)[C@@H](OC(C)=O)[C@@H]1OC(C)=O (tautomer)
CC(=O)OC[C@H]1O[C@@H](OC(C)=O)[C@H](N/C(O)=C\Br)[C@@H](OC(C)=O)[C@@H]1OC(C)=O (cis-trans isomerization)
CC(=O)OC[C@H]1O[C@@H](OC(C)=O)[C@H](N/C(O)=C\Br)[C@@H](OC(C)=O)[C@@H]1OC(C)=O (3D coordinates assigned)
CC(=O)OC[C@H]1O[C@@H](OC(C)=O)[C@H](N/C(O)=C\Br)[C@@H](OC(C)=O)[C@@H]1OC(C)=O (nonaromatic ring conformer: 31.575836598958155 kcal/mol)

>  <Name>
198514

>  <RI>
3.62712e+07

>  <Rbt.Current_Directory>
/home/edward/Documentos/Virtual_Screening/rDock/3

>  <Rbt.Executable>
rbdock ($Id: //depot/dev/client3/rdock/2013.1/src/exe/rbdock.cxx#4 $)

>  <Rbt.Library>
libRbt.so (2013.1, Build901 2013/11/27)

>  <Rbt.Parameter_File>
/home/edward/anaconda3/envs/MD/share/rdock-2013.1-1/data/scripts/dock.prm

>  <Rbt.Receptor>
parameters.prm

>  <SCORE>
-8.42026

>  <SCORE.INTER>
-7.80451

>  <SCORE.INTER.CONST>
1

>  <SCORE.INTER.POLAR>
-1.8261

>  <SCORE.INTER.REPUL>
0

>  <SCORE.INTER.ROT>
10

>  <SCORE.INTER.VDW>
-16.9958

>  <SCORE.INTER.norm>
-0.278733

>  <SCORE.INTRA>
-2.36842

>  <SCORE.INTRA.DIHEDRAL>
-3.61722

>  <SCORE.INTRA.DIHEDRAL.0>
10.2226

>  <SCORE.INTRA.POLAR>
-0.553513

>  <SCORE.INTRA.POLAR.0>
0

>  <SCORE.INTRA.REPUL>
0

>  <SCORE.INTRA.REPUL.0>
0

>  <SCORE.INTRA.VDW>
1.32214

>  <SCORE.INTRA.VDW.0>
-5.73228

>  <SCORE.INTRA.norm>
-0.0845864

>  <SCORE.RESTR>
0

>  <SCORE.RESTR.CAVITY>
0

>  <SCORE.RESTR.norm>
0

>  <SCORE.SYSTEM>
1.75267

>  <SCORE.SYSTEM.CONST>
0

>  <SCORE.SYSTEM.DIHEDRAL>
3.07678

>  <SCORE.SYSTEM.VDW>
0.214278

>  <SCORE.SYSTEM.norm>
0.0625953

>  <SCORE.heavy>
28

>  <SCORE.norm>
-0.300724

>  <SMILES>
CC(=O)OC[C@H]1O[C@@H](OC(C)=O)[C@H](N/C(O)=C\Br)[C@@H](OC(C)=O)[C@@H]1OC(C)=O

>  <UniqueID>
235

$$$$
193108
  rDOCK(R)          3D
libRbt.so/2013.1/901 2013/11/27
 21 21  0  0  0  0  0  0  0  0999 V2000
   84.5501   14.8968 -103.3317 O   0  0  0  0  0  0
   84.8672   16.0791 -103.0299 C   0  0  0  0  0  0
   83.8063   17.0330 -102.5844 C   0  0  0  0  0  0
   83.8257   18.6009 -103.7183 Br  0  0  0  0  0  0
   86.2261   16.5240 -103.1515 N   0  0  0  0  0  0
   87.3252   15.6295 -103.5275 C   0  0  0  0  0  0
   87.5838   15.7185 -105.0455 C   0  0  0  0  0  0
   86.4398   15.2785 -105.7257 O   0  0  0  0  0  0
   88.6805   14.8949 -105.4115 O   0  0  0  0  0  0
   89.8797   15.3738 -104.8234 C   0  0  0  0  0  0
   91.0669   14.5984 -105.4050 C   0  0  0  0  0  0
   90.8662   13.2243 -105.2220 O   0  0  0  0  0  0
   89.8194   15.2276 -103.2863 C   0  0  0  0  0  0
   89.7030   13.8677 -102.9444 O   0  0  0  0  0  0
   88.6061   16.0201 -102.7591 C   0  0  0  0  0  0
   88.4516   15.8527 -101.3706 O   0  0  0  0  0  0
   86.4582   17.4963 -102.8445 H   0  0  0  0  0  0
   86.3900   14.2970 -105.5848 H   0  0  0  0  0  0
   90.9100   13.0673 -104.2431 H   0  0  0  0  0  0
   88.8340   13.5506 -103.3050 H   0  0  0  0  0  0
   88.2516   14.8963 -101.1965 H   0  0  0  0  0  0
  1  2  2  0  0  0
  2  3  1  0  0  0
  2  5  1  0  0  0
  3  4  1  0  0  0
  5  6  1  0  0  0
  5 17  1  0  0  0
  6  7  1  0  0  0
  7  8  1  0  0  0
  7  9  1  0  0  0
  8 18  1  0  0  0
  9 10  1  0  0  0
 10 11  1  0  0  0
 10 13  1  0  0  0
 11 12  1  0  0  0
 12 19  1  0  0  0
 13 14  1  0  0  0
 13 15  1  0  0  0
 14 20  1  0  0  0
 15 16  1  0  0  0
 15  6  1  0  0  0
 16 21  1  0  0  0
M  END
>  <CHROM.0>
-179.23094657,153.44701756,-66.87635723

>  <CHROM.1>
-123.87369529,95.37991031,-70.96509058,-55.22931260,-67.01022841,-63.95300401
60.24813339,86.80689245,16.16661447,-103.81267403,-2.98945473,0.53247867
-1.63679990

>  <Energy>
23.86379133153751

>  <Genealogy>
O=C(CBr)N[C@H]1[C@H](O)O[C@H](CO)[C@H](O)[C@@H]1O (3D coordinates assigned)
O=C(CBr)N[C@H]1[C@H](O)O[C@H](CO)[C@H](O)[C@@H]1O (nonaromatic ring conformer: 23.86379133153751 kcal/mol)

>  <Name>
193108

>  <RI>
3.62712e+07

>  <Rbt.Current_Directory>
/home/edward/Documentos/Virtual_Screening/rDock/3

>  <Rbt.Executable>
rbdock ($Id: //depot/dev/client3/rdock/2013.1/src/exe/rbdock.cxx#4 $)

>  <Rbt.Library>
libRbt.so (2013.1, Build901 2013/11/27)

>  <Rbt.Parameter_File>
/home/edward/anaconda3/envs/MD/share/rdock-2013.1-1/data/scripts/dock.prm

>  <Rbt.Receptor>
parameters.prm

>  <SCORE>
-18.0358

>  <SCORE.INTER>
-18.0618

>  <SCORE.INTER.CONST>
1

>  <SCORE.INTER.POLAR>
-3.4389

>  <SCORE.INTER.REPUL>
0

>  <SCORE.INTER.ROT>
3

>  <SCORE.INTER.VDW>
-14.7695

>  <SCORE.INTER.norm>
-1.12886

>  <SCORE.INTRA>
-1.70888

>  <SCORE.INTRA.DIHEDRAL>
-2.51006

>  <SCORE.INTRA.DIHEDRAL.0>
6.33929

>  <SCORE.INTRA.POLAR>
-0.32983

>  <SCORE.INTRA.POLAR.0>
0

>  <SCORE.INTRA.REPUL>
0

>  <SCORE.INTRA.REPUL.0>
0

>  <SCORE.INTRA.VDW>
0.667568

>  <SCORE.INTRA.VDW.0>
-2.35064

>  <SCORE.INTRA.norm>
-0.106805

>  <SCORE.RESTR>
0

>  <SCORE.RESTR.CAVITY>
0

>  <SCORE.RESTR.norm>
0

>  <SCORE.SYSTEM>
1.73483

>  <SCORE.SYSTEM.CONST>
0

>  <SCORE.SYSTEM.DIHEDRAL>
3.26062

>  <SCORE.SYSTEM.VDW>
0.104521

>  <SCORE.SYSTEM.norm>
0.108427

>  <SCORE.heavy>
16

>  <SCORE.norm>
-1.12724

>  <SMILES>
O=C(CBr)N[C@H]1[C@H](O)O[C@H](CO)[C@H](O)[C@@H]1O

>  <UniqueID>
238

$$$$
129618
  rDOCK(R)          3D
libRbt.so/2013.1/901 2013/11/27
 30 30  0  0  0  0  0  0  0  0999 V2000
   86.3288   19.6881 -101.9961 H   0  0  0  0  0  0
   87.0307   19.0629 -101.6167 O   0  0  0  0  0  0
   88.3935   19.3663 -101.6515 C   0  0  0  0  0  0
   89.2552   18.5900 -100.9797 C   0  0  0  0  0  0
   90.9890   18.8813 -100.9354 Cl  0  0  0  0  0  0
   88.8433   20.5046 -102.4084 N   0  0  0  0  0  0
   89.8659   20.6656 -102.5501 H   0  0  0  0  0  0
   87.9150   21.3510 -103.1648 C   0  0  0  0  0  0
   87.2525   22.3786 -102.2304 C   0  0  0  0  0  0
   86.5164   21.6841 -101.2264 O   0  0  0  0  0  0
   85.9695   22.3218 -100.1083 C   0  0  0  0  0  0
   86.0677   23.5711  -99.9656 O   0  0  0  0  0  0
   85.3068   21.5079  -99.0499 C   0  0  0  0  0  0
   86.3633   23.1985 -102.9668 O   0  0  0  0  0  0
   87.0785   24.0009 -103.8912 C   0  0  0  0  0  0
   86.0966   25.0006 -104.5199 C   0  0  0  0  0  0
   85.2695   25.5913 -103.5180 O   0  0  0  0  0  0
   84.6329   26.8275 -103.6737 C   0  0  0  0  0  0
   84.8341   27.5338 -104.6988 O   0  0  0  0  0  0
   83.6621   27.2869 -102.6401 C   0  0  0  0  0  0
   87.7450   23.1098 -104.9682 C   0  0  0  0  0  0
   88.5231   23.9101 -105.8615 O   0  0  0  0  0  0
   89.6035   24.7060 -105.4631 C   0  0  0  0  0  0
   89.9828   24.7314 -104.2608 O   0  0  0  0  0  0
   90.2768   25.5774 -106.4670 C   0  0  0  0  0  0
   88.6690   22.0810 -104.2887 C   0  0  0  0  0  0
   89.1191   21.1190 -105.2452 O   0  0  0  0  0  0
   90.2453   20.3083 -105.0659 C   0  0  0  0  0  0
   90.8665   20.2946 -103.9686 O   0  0  0  0  0  0
   90.6753   19.4012 -106.1672 C   0  0  0  0  0  0
  1  2  1  0  0  0
  2  3  1  0  0  0
  3  4  2  0  0  0
  3  6  1  0  0  0
  4  5  1  0  0  0
  6  7  1  0  0  0
  6  8  1  0  0  0
  8  9  1  0  0  0
  9 10  1  0  0  0
  9 14  1  0  0  0
 10 11  1  0  0  0
 11 12  2  0  0  0
 11 13  1  0  0  0
 14 15  1  0  0  0
 15 16  1  0  0  0
 15 21  1  0  0  0
 16 17  1  0  0  0
 17 18  1  0  0  0
 18 19  2  0  0  0
 18 20  1  0  0  0
 21 22  1  0  0  0
 21 26  1  0  0  0
 22 23  1  0  0  0
 23 24  2  0  0  0
 23 25  1  0  0  0
 26 27  1  0  0  0
 26  8  1  0  0  0
 27 28  1  0  0  0
 28 29  2  0  0  0
 28 30  1  0  0  0
M  END
>  <CHROM.0>
-176.70215552,153.63857861,50.28761630

>  <CHROM.1>
171.18257969,82.16640467,169.92161344,2.58442836,45.20913795,156.71774182
-4.65188405,60.09907836,2.02439236,-78.63778692,6.89263701,87.90140556,22.47400568
-103.13676022,0.82279135,-0.69673958,2.37983891

>  <Energy>
32.059379892314006

>  <Genealogy>
CC(=O)OC[C@H]1O[C@@H](OC(C)=O)[C@H](NC(O)=CCl)[C@@H](OC(C)=O)[C@@H]1OC(C)=O (tautomer)
CC(=O)OC[C@H]1O[C@@H](OC(C)=O)[C@H](N/C(O)=C/Cl)[C@@H](OC(C)=O)[C@@H]1OC(C)=O (cis-trans isomerization)
CC(=O)OC[C@H]1O[C@@H](OC(C)=O)[C@H](N/C(O)=C/Cl)[C@@H](OC(C)=O)[C@@H]1OC(C)=O (3D coordinates assigned)
CC(=O)OC[C@H]1O[C@@H](OC(C)=O)[C@H](N/C(O)=C/Cl)[C@@H](OC(C)=O)[C@@H]1OC(C)=O (nonaromatic ring conformer: 32.059379892314006 kcal/mol)

>  <Name>
129618

>  <RI>
3.62712e+07

>  <Rbt.Current_Directory>
/home/edward/Documentos/Virtual_Screening/rDock/3

>  <Rbt.Executable>
rbdock ($Id: //depot/dev/client3/rdock/2013.1/src/exe/rbdock.cxx#4 $)

>  <Rbt.Library>
libRbt.so (2013.1, Build901 2013/11/27)

>  <Rbt.Parameter_File>
/home/edward/anaconda3/envs/MD/share/rdock-2013.1-1/data/scripts/dock.prm

>  <Rbt.Receptor>
parameters.prm

>  <SCORE>
-6.51196

>  <SCORE.INTER>
-5.60281

>  <SCORE.INTER.CONST>
1

>  <SCORE.INTER.POLAR>
-1.68098

>  <SCORE.INTER.REPUL>
0.0684451

>  <SCORE.INTER.ROT>
10

>  <SCORE.INTER.VDW>
-15.6297

>  <SCORE.INTER.norm>
-0.2001

>  <SCORE.INTRA>
-3.32578

>  <SCORE.INTRA.DIHEDRAL>
-3.87209

>  <SCORE.INTRA.DIHEDRAL.0>
12.2413

>  <SCORE.INTRA.POLAR>
-0.656388

>  <SCORE.INTRA.POLAR.0>
0

>  <SCORE.INTRA.REPUL>
0

>  <SCORE.INTRA.REPUL.0>
0

>  <SCORE.INTRA.VDW>
0.841986

>  <SCORE.INTRA.VDW.0>
-4.74664

>  <SCORE.INTRA.norm>
-0.118778

>  <SCORE.RESTR>
0

>  <SCORE.RESTR.CAVITY>
0

>  <SCORE.RESTR.norm>
0

>  <SCORE.SYSTEM>
2.41663

>  <SCORE.SYSTEM.CONST>
0

>  <SCORE.SYSTEM.DIHEDRAL>
3.26584

>  <SCORE.SYSTEM.VDW>
0.783712

>  <SCORE.SYSTEM.norm>
0.0863083

>  <SCORE.heavy>
28

>  <SCORE.norm>
-0.23257

>  <SMILES>
CC(=O)OC[C@H]1O[C@@H](OC(C)=O)[C@H](N/C(O)=C/Cl)[C@@H](OC(C)=O)[C@@H]1OC(C)=O

>  <UniqueID>
242

$$$$
127132
  rDOCK(R)          3D
libRbt.so/2013.1/901 2013/11/27
 28 28  0  0  0  0  0  0  0  0999 V2000
   86.0209   17.0814 -103.9673 C   0  0  0  0  0  0
   86.9120   17.9482 -103.1393 C   0  0  0  0  0  0
   87.7808   17.4178 -102.3952 O   0  0  0  0  0  0
   86.7805   19.3752 -103.2052 N   0  0  0  0  0  0
   87.6872   20.2897 -102.4984 C   0  0  0  0  0  0
   86.8789   21.4378 -101.8545 C   0  0  0  0  0  0
   87.6881   22.2184 -100.9677 O   0  0  0  0  0  0
   87.2276   23.3553 -100.2949 C   0  0  0  0  0  0
   88.1586   24.1063  -99.4059 C   0  0  0  0  0  0
   86.0529   23.7792 -100.4695 O   0  0  0  0  0  0
   86.2900   22.2640 -102.8457 O   0  0  0  0  0  0
   87.2712   22.9004 -103.6517 C   0  0  0  0  0  0
   86.5531   23.8722 -104.6002 C   0  0  0  0  0  0
   85.7326   24.7795 -103.8654 O   0  0  0  0  0  0
   86.2333   25.6718 -102.9108 C   0  0  0  0  0  0
   85.2922   26.5656 -102.1779 C   0  0  0  0  0  0
   87.4641   25.7042 -102.6380 O   0  0  0  0  0  0
   88.0965   21.8561 -104.4422 C   0  0  0  0  0  0
   89.1301   22.5059 -105.1870 O   0  0  0  0  0  0
   90.1957   23.2038 -104.6069 C   0  0  0  0  0  0
   91.1943   23.8740 -105.4868 C   0  0  0  0  0  0
   90.2971   23.3114 -103.3546 O   0  0  0  0  0  0
   88.7433   20.8616 -103.4610 C   0  0  0  0  0  0
   89.3659   19.7903 -104.1743 O   0  0  0  0  0  0
   90.1821   18.8231 -103.5773 C   0  0  0  0  0  0
   90.7489   17.7276 -104.4134 C   0  0  0  0  0  0
   90.4028   18.8372 -102.3359 O   0  0  0  0  0  0
   86.0747   19.7725 -103.8666 H   0  0  0  0  0  0
  1  2  1  0  0  0
  2  3  2  0  0  0
  2  4  1  0  0  0
  4  5  1  0  0  0
  4 28  1  0  0  0
  5  6  1  0  0  0
  6  7  1  0  0  0
  6 11  1  0  0  0
  7  8  1  0  0  0
  8  9  1  0  0  0
  8 10  2  0  0  0
 11 12  1  0  0  0
 12 13  1  0  0  0
 12 18  1  0  0  0
 13 14  1  0  0  0
 14 15  1  0  0  0
 15 16  1  0  0  0
 15 17  2  0  0  0
 18 19  1  0  0  0
 18 23  1  0  0  0
 19 20  1  0  0  0
 20 21  1  0  0  0
 20 22  2  0  0  0
 23 24  1  0  0  0
 23  5  1  0  0  0
 24 25  1  0  0  0
 25 26  1  0  0  0
 25 27  2  0  0  0
M  END
>  <CHROM.0>
179.40059174,153.76934309,-65.34691335

>  <CHROM.1>
-137.60201850,177.12082204,-179.26359672,54.66220319,60.91088764,-178.97207808
64.42312841,-178.30436631,-66.70440513,178.30093085,87.94097262,21.84779743
-103.02793411,1.21213763,-0.63568220,3.09447821

>  <Energy>
33.513370168899094

>  <Genealogy>
CC(=O)N[C@@H]1[C@@H](OC(C)=O)O[C@H](COC(C)=O)[C@@H](OC(C)=O)[C@@H]1OC(C)=O (chirality)
CC(=O)N[C@@H]1[C@@H](OC(C)=O)O[C@H](COC(C)=O)[C@@H](OC(C)=O)[C@@H]1OC(C)=O (3D coordinates assigned)
CC(=O)N[C@@H]1[C@@H](OC(C)=O)O[C@H](COC(C)=O)[C@@H](OC(C)=O)[C@@H]1OC(C)=O (nonaromatic ring conformer: 33.513370168899094 kcal/mol)

>  <Name>
127132

>  <RI>
3.62712e+07

>  <Rbt.Current_Directory>
/home/edward/Documentos/Virtual_Screening/rDock/3

>  <Rbt.Executable>
rbdock ($Id: //depot/dev/client3/rdock/2013.1/src/exe/rbdock.cxx#4 $)

>  <Rbt.Library>
libRbt.so (2013.1, Build901 2013/11/27)

>  <Rbt.Parameter_File>
/home/edward/anaconda3/envs/MD/share/rdock-2013.1-1/data/scripts/dock.prm

>  <Rbt.Receptor>
parameters.prm

>  <SCORE>
-10.3885

>  <SCORE.INTER>
-5.98864

>  <SCORE.INTER.CONST>
1

>  <SCORE.INTER.POLAR>
-1.94298

>  <SCORE.INTER.REPUL>
0

>  <SCORE.INTER.ROT>
10

>  <SCORE.INTER.VDW>
-14.7825

>  <SCORE.INTER.norm>
-0.221801

>  <SCORE.INTRA>
-6.13623

>  <SCORE.INTRA.DIHEDRAL>
-9.90617

>  <SCORE.INTRA.DIHEDRAL.0>
11.546

>  <SCORE.INTRA.POLAR>
0

>  <SCORE.INTRA.POLAR.0>
0

>  <SCORE.INTRA.REPUL>
0

>  <SCORE.INTRA.REPUL.0>
0

>  <SCORE.INTRA.VDW>
-1.18315

>  <SCORE.INTRA.VDW.0>
-4.74886

>  <SCORE.INTRA.norm>
-0.227268

>  <SCORE.RESTR>
0

>  <SCORE.RESTR.CAVITY>
0

>  <SCORE.RESTR.norm>
0

>  <SCORE.SYSTEM>
1.73636

>  <SCORE.SYSTEM.CONST>
0

>  <SCORE.SYSTEM.DIHEDRAL>
3.21908

>  <SCORE.SYSTEM.VDW>
0.126814

>  <SCORE.SYSTEM.norm>
0.0643095

>  <SCORE.heavy>
27

>  <SCORE.norm>
-0.38476

>  <SMILES>
CC(=O)N[C@@H]1[C@@H](OC(C)=O)O[C@H](COC(C)=O)[C@@H](OC(C)=O)[C@@H]1OC(C)=O

>  <UniqueID>
246

$$$$
122253
  rDOCK(R)          3D
libRbt.so/2013.1/901 2013/11/27
 26 27  0  0  0  0  0  0  0  0999 V2000
   91.6082   15.0017 -105.5965 C   0  0  0  0  0  0
   90.3797   14.5032 -104.9088 C   0  0  0  0  0  0
   90.2261   13.2653 -104.7285 O   0  0  0  0  0  0
   89.3706   15.4308 -104.4877 N   0  0  0  0  0  0
   88.1657   15.0071 -103.7640 C   0  0  0  0  0  0
   88.3472   15.2455 -102.2476 C   0  0  0  0  0  0
   88.7267   16.5920 -102.0104 O   0  0  0  0  0  0
   89.0748   16.7735 -100.6548 C   0  0  0  0  0  0
   89.5971   18.1686 -100.4778 C   0  0  0  0  0  0
   88.7545   19.2715 -100.6957 C   0  0  0  0  0  0
   89.2540   20.5724 -100.5779 C   0  0  0  0  0  0
   90.5978   20.7805 -100.2569 C   0  0  0  0  0  0
   91.4460   19.6884 -100.0592 C   0  0  0  0  0  0
   90.9507   18.3857 -100.1759 C   0  0  0  0  0  0
   87.1687   14.9018 -101.5286 O   0  0  0  0  0  0
   86.0635   15.6984 -101.9273 C   0  0  0  0  0  0
   84.8768   15.4308 -100.9876 C   0  0  0  0  0  0
   83.7749   16.2383 -101.3092 O   0  0  0  0  0  0
   85.7035   15.4374 -103.4073 C   0  0  0  0  0  0
   85.3357   14.0922 -103.5964 O   0  0  0  0  0  0
   86.9217   15.7615 -104.2836 C   0  0  0  0  0  0
   86.6473   15.3931 -105.6116 O   0  0  0  0  0  0
   89.5183   16.4453 -104.6933 H   0  0  0  0  0  0
   83.4700   15.9630 -102.2133 H   0  0  0  0  0  0
   84.4846   13.9481 -103.1065 H   0  0  0  0  0  0
   86.5325   14.4069 -105.6230 H   0  0  0  0  0  0
  1  2  1  0  0  0
  2  3  2  0  0  0
  2  4  1  0  0  0
  4  5  1  0  0  0
  4 23  1  0  0  0
  5  6  1  0  0  0
  6  7  1  0  0  0
  6 15  1  0  0  0
  7  8  1  0  0  0
  8  9  1  0  0  0
  9 10  2  0  0  0
 10 11  1  0  0  0
 11 12  2  0  0  0
 12 13  1  0  0  0
 13 14  2  0  0  0
 14  9  1  0  0  0
 15 16  1  0  0  0
 16 17  1  0  0  0
 16 19  1  0  0  0
 17 18  1  0  0  0
 18 24  1  0  0  0
 19 20  1  0  0  0
 19 21  1  0  0  0
 20 25  1  0  0  0
 21 22  1  0  0  0
 21  5  1  0  0  0
 22 26  1  0  0  0
M  END
>  <CHROM.0>
-178.68239898,151.68689578,-64.69123346

>  <CHROM.1>
98.81524290,-171.87019517,174.45746102,64.22548511,177.56125418,64.93001435
66.78123065,56.86323400,88.21605925,16.33000046,-102.49735282,-2.10870789
0.25114296,0.78603334

>  <Energy>
41.67887685826665

>  <Genealogy>
CC(=O)N[C@H]1[C@@H](OCc2ccccc2)O[C@H](CO)[C@H](O)[C@@H]1O (3D coordinates assigned)
CC(=O)N[C@H]1[C@@H](OCc2ccccc2)O[C@H](CO)[C@H](O)[C@@H]1O (nonaromatic ring conformer: 41.67887685826665 kcal/mol)

>  <Name>
122253

>  <RI>
3.62712e+07

>  <Rbt.Current_Directory>
/home/edward/Documentos/Virtual_Screening/rDock/3

>  <Rbt.Executable>
rbdock ($Id: //depot/dev/client3/rdock/2013.1/src/exe/rbdock.cxx#4 $)

>  <Rbt.Library>
libRbt.so (2013.1, Build901 2013/11/27)

>  <Rbt.Parameter_File>
/home/edward/anaconda3/envs/MD/share/rdock-2013.1-1/data/scripts/dock.prm

>  <Rbt.Receptor>
parameters.prm

>  <SCORE>
-17.5306

>  <SCORE.INTER>
-15.3315

>  <SCORE.INTER.CONST>
1

>  <SCORE.INTER.POLAR>
-2.09628

>  <SCORE.INTER.REPUL>
0.117292

>  <SCORE.INTER.ROT>
5

>  <SCORE.INTER.VDW>
-19.1906

>  <SCORE.INTER.norm>
-0.696887

>  <SCORE.INTRA>
-3.94487

>  <SCORE.INTRA.DIHEDRAL>
-10.1388

>  <SCORE.INTRA.DIHEDRAL.0>
13.0127

>  <SCORE.INTRA.POLAR>
-0.00249231

>  <SCORE.INTRA.POLAR.0>
0

>  <SCORE.INTRA.REPUL>
0

>  <SCORE.INTRA.REPUL.0>
0

>  <SCORE.INTRA.VDW>
1.13302

>  <SCORE.INTRA.VDW.0>
-2.71892

>  <SCORE.INTRA.norm>
-0.179312

>  <SCORE.RESTR>
0

>  <SCORE.RESTR.CAVITY>
0

>  <SCORE.RESTR.norm>
0

>  <SCORE.SYSTEM>
1.74579

>  <SCORE.SYSTEM.CONST>
0

>  <SCORE.SYSTEM.DIHEDRAL>
3.62425

>  <SCORE.SYSTEM.VDW>
-0.0663306

>  <SCORE.SYSTEM.norm>
0.0793543

>  <SCORE.heavy>
22

>  <SCORE.norm>
-0.796845

>  <SMILES>
CC(=O)N[C@H]1[C@@H](OCc2ccccc2)O[C@H](CO)[C@H](O)[C@@H]1O

>  <UniqueID>
247

$$$$
118328
  rDOCK(R)          3D
libRbt.so/2013.1/901 2013/11/27
 31 33  0  0  0  0  0  0  0  0999 V2000
   85.5761   28.5865 -103.6233 H   0  0  0  0  0  0
   85.8586   27.6964 -103.2321 O   0  0  0  0  0  0
   84.9191   26.7914 -102.7380 C   0  0  0  0  0  0
   85.2972   25.6587 -102.2254 N   0  0  0  0  0  0
   86.6940   25.2406 -102.0807 C   0  0  0  0  0  0
   87.2605   25.6953 -100.7128 C   0  0  0  0  0  0
   88.6604   25.5695 -100.7049 O   0  0  0  0  0  0
   88.8697   24.6609 -101.0460 H   0  0  0  0  0  0
   86.6691   24.8554  -99.5679 C   0  0  0  0  0  0
   85.3201   25.2086  -99.3847 O   0  0  0  0  0  0
   84.9936   24.7205  -98.5847 H   0  0  0  0  0  0
   86.8003   23.3506  -99.9052 C   0  0  0  0  0  0
   86.2293   22.4542  -98.7933 C   0  0  0  0  0  0
   86.3912   21.0933  -99.0946 O   0  0  0  0  0  0
   85.9793   20.5826  -98.3495 H   0  0  0  0  0  0
   86.1544   23.0461 -101.1314 O   0  0  0  0  0  0
   86.7753   23.7078 -102.2252 C   0  0  0  0  0  0
   88.1363   23.2933 -102.3849 O   0  0  0  0  0  0
   88.6264   22.0092 -102.1006 C   0  0  0  0  0  0
   88.0407   20.9202 -102.7531 C   0  0  0  0  0  0
   88.4895   19.6185 -102.5170 C   0  0  0  0  0  0
   89.5425   19.3827 -101.6126 C   0  0  0  0  0  0
   90.0384   18.0884 -101.3355 C   0  0  0  0  0  0
   89.4707   16.8574 -101.9932 C   0  0  0  0  0  0
   91.0898   17.9537 -100.4186 C   0  0  0  0  0  0
   91.6174   19.0925  -99.8064 C   0  0  0  0  0  0
   92.5601   18.9811  -98.9793 O   0  0  0  0  0  0
   91.1310   20.2951 -100.0884 O   0  0  0  0  0  0
   90.1354   20.4837 -100.9490 C   0  0  0  0  0  0
   89.6776   21.7830 -101.1934 C   0  0  0  0  0  0
   83.4600   27.1003 -102.8330 C   0  0  0  0  0  0
  1  2  1  0  0  0
  2  3  1  0  0  0
  3  4  2  0  0  0
  3 31  1  0  0  0
  4  5  1  0  0  0
  5  6  1  0  0  0
  6  7  1  0  0  0
  6  9  1  0  0  0
  7  8  1  0  0  0
  9 10  1  0  0  0
  9 12  1  0  0  0
 10 11  1  0  0  0
 12 13  1  0  0  0
 12 16  1  0  0  0
 13 14  1  0  0  0
 14 15  1  0  0  0
 16 17  1  0  0  0
 17 18  1  0  0  0
 17  5  1  0  0  0
 18 19  1  0  0  0
 19 20  2  0  0  0
 20 21  1  0  0  0
 21 22  2  0  0  0
 22 23  1  0  0  0
 23 24  1  0  0  0
 23 25  2  0  0  0
 25 26  1  0  0  0
 26 27  2  0  0  0
 26 28  1  0  0  0
 28 29  1  0  0  0
 29 30  2  0  0  0
 29 22  1  0  0  0
 30 19  1  0  0  0
M  END
>  <CHROM.0>
-179.59245252,134.46112371,59.16744827

>  <CHROM.1>
-179.24900145,89.99061375,-48.60759736,-174.35839657,-178.22291268,-178.45537709
157.49632373,57.14553714,87.90507524,22.54664201,-101.10472513,2.98565189
-0.96272459,1.22778390

>  <Energy>
53.96771474724043

>  <Genealogy>
CC(O)=NC1C(Oc2ccc3c(C)cc(=O)oc3c2)OC(CO)C(O)C1O (tautomer)
CC(O)=N[C@H]1[C@H](O)[C@@H](O)[C@@H](CO)O[C@@H]1Oc1ccc2c(C)cc(=O)oc2c1 (chirality)
C/C(O)=N\[C@H]1[C@H](O)[C@@H](O)[C@@H](CO)O[C@@H]1Oc1ccc2c(C)cc(=O)oc2c1 (cis-trans isomerization)
C/C(O)=N\[C@H]1[C@H](O)[C@@H](O)[C@@H](CO)O[C@@H]1Oc1ccc2c(C)cc(=O)oc2c1 (3D coordinates assigned)
C/C(O)=N\[C@H]1[C@H](O)[C@@H](O)[C@@H](CO)O[C@@H]1Oc1ccc2c(C)cc(=O)oc2c1 (nonaromatic ring conformer: 53.96771474724043 kcal/mol)

>  <Name>
118328

>  <RI>
3.62712e+07

>  <Rbt.Current_Directory>
/home/edward/Documentos/Virtual_Screening/rDock/3

>  <Rbt.Executable>
rbdock ($Id: //depot/dev/client3/rdock/2013.1/src/exe/rbdock.cxx#4 $)

>  <Rbt.Library>
libRbt.so (2013.1, Build901 2013/11/27)

>  <Rbt.Parameter_File>
/home/edward/anaconda3/envs/MD/share/rdock-2013.1-1/data/scripts/dock.prm

>  <Rbt.Receptor>
parameters.prm

>  <SCORE>
-19.6713

>  <SCORE.INTER>
-18.8226

>  <SCORE.INTER.CONST>
1

>  <SCORE.INTER.POLAR>
-2.56183

>  <SCORE.INTER.REPUL>
0.00015361

>  <SCORE.INTER.ROT>
4

>  <SCORE.INTER.VDW>
-19.5131

>  <SCORE.INTER.norm>
-0.697132

>  <SCORE.INTRA>
-4.04828

>  <SCORE.INTRA.DIHEDRAL>
-2.75456

>  <SCORE.INTRA.DIHEDRAL.0>
10.4603

>  <SCORE.INTRA.POLAR>
-0.737083

>  <SCORE.INTRA.POLAR.0>
0

>  <SCORE.INTRA.REPUL>
0

>  <SCORE.INTRA.REPUL.0>
0

>  <SCORE.INTRA.VDW>
-0.164922

>  <SCORE.INTRA.VDW.0>
-2.46728

>  <SCORE.INTRA.norm>
-0.149936

>  <SCORE.RESTR>
0

>  <SCORE.RESTR.CAVITY>
0

>  <SCORE.RESTR.norm>
0

>  <SCORE.SYSTEM>
3.19955

>  <SCORE.SYSTEM.CONST>
0

>  <SCORE.SYSTEM.DIHEDRAL>
6.64218

>  <SCORE.SYSTEM.VDW>
-0.121539

>  <SCORE.SYSTEM.norm>
0.118502

>  <SCORE.heavy>
27

>  <SCORE.norm>
-0.728566

>  <SMILES>
C/C(O)=N\[C@H]1[C@H](O)[C@@H](O)[C@@H](CO)O[C@@H]1Oc1ccc2c(C)cc(=O)oc2c1

>  <UniqueID>
250

$$$$
112106
  rDOCK(R)          3D
libRbt.so/2013.1/901 2013/11/27
 29 31  0  0  0  0  0  0  0  0999 V2000
   91.7922   13.3703 -105.3421 C   0  0  0  0  0  0
   91.0966   14.6472 -105.6843 C   0  0  0  0  0  0
   89.8435   14.6539 -105.8236 O   0  0  0  0  0  0
   91.8596   15.8459 -105.8822 N   0  0  0  0  0  0
   91.2362   17.1636 -106.0417 C   0  0  0  0  0  0
   91.2251   17.9056 -104.6942 C   0  0  0  0  0  0
   90.4604   17.1457 -103.7599 O   0  0  0  0  0  0
   90.2375   17.4970 -102.4169 C   0  0  0  0  0  0
   90.6857   18.7235 -101.8869 C   0  0  0  0  0  0
   90.4495   19.0486 -100.5502 C   0  0  0  0  0  0
   89.7676   18.1609  -99.7185 C   0  0  0  0  0  0
   89.3145   16.9332 -100.2195 C   0  0  0  0  0  0
   88.6311   16.0358  -99.3839 C   0  0  0  0  0  0
   88.1822   14.8120  -99.8849 C   0  0  0  0  0  0
   88.4104   14.4736 -101.2199 C   0  0  0  0  0  0
   89.0887   15.3565 -102.0642 C   0  0  0  0  0  0
   89.5487   16.5951 -101.5777 C   0  0  0  0  0  0
   90.6299   19.1828 -104.8476 O   0  0  0  0  0  0
   91.4292   20.0100 -105.6775 C   0  0  0  0  0  0
   90.8549   21.4354 -105.6460 C   0  0  0  0  0  0
   91.5658   22.2902 -106.5019 O   0  0  0  0  0  0
   91.4807   19.4417 -107.1185 C   0  0  0  0  0  0
   92.3333   20.2200 -107.9204 O   0  0  0  0  0  0
   92.0144   17.9974 -107.0790 C   0  0  0  0  0  0
   91.9514   17.4035 -108.3524 O   0  0  0  0  0  0
   92.8955   15.7986 -105.7481 H   0  0  0  0  0  0
   91.1731   23.1955 -106.3933 H   0  0  0  0  0  0
   92.0769   21.1692 -107.7840 H   0  0  0  0  0  0
   92.3009   16.4776 -108.2721 H   0  0  0  0  0  0
  1  2  1  0  0  0
  2  3  2  0  0  0
  2  4  1  0  0  0
  4  5  1  0  0  0
  4 26  1  0  0  0
  5  6  1  0  0  0
  6  7  1  0  0  0
  6 18  1  0  0  0
  7  8  1  0  0  0
  8  9  2  0  0  0
  9 10  1  0  0  0
 10 11  2  0  0  0
 11 12  1  0  0  0
 12 13  2  0  0  0
 13 14  1  0  0  0
 14 15  2  0  0  0
 15 16  1  0  0  0
 16 17  2  0  0  0
 17  8  1  0  0  0
 17 12  1  0  0  0
 18 19  1  0  0  0
 19 20  1  0  0  0
 19 22  1  0  0  0
 20 21  1  0  0  0
 21 27  1  0  0  0
 22 23  1  0  0  0
 22 24  1  0  0  0
 23 28  1  0  0  0
 24 25  1  0  0  0
 24  5  1  0  0  0
 25 29  1  0  0  0
M  END
>  <CHROM.0>
-175.50304285,154.94626811,49.94586361

>  <CHROM.1>
96.83515434,179.22961311,4.89699086,-177.10565178,-177.05056574,-48.88673360
-56.53879467,90.62837187,17.52205979,-104.15788152,-2.91187820,1.21907633
0.25531145

>  <Energy>
47.44340627773158

>  <Genealogy>
CC(=O)N[C@H]1[C@H](Oc2cccc3ccccc23)O[C@H](CO)[C@@H](O)[C@@H]1O (3D coordinates assigned)
CC(=O)N[C@H]1[C@H](Oc2cccc3ccccc23)O[C@H](CO)[C@@H](O)[C@@H]1O (nonaromatic ring conformer: 47.44340627773158 kcal/mol)

>  <Name>
112106

>  <RI>
3.62712e+07

>  <Rbt.Current_Directory>
/home/edward/Documentos/Virtual_Screening/rDock/3

>  <Rbt.Executable>
rbdock ($Id: //depot/dev/client3/rdock/2013.1/src/exe/rbdock.cxx#4 $)

>  <Rbt.Library>
libRbt.so (2013.1, Build901 2013/11/27)

>  <Rbt.Parameter_File>
/home/edward/anaconda3/envs/MD/share/rdock-2013.1-1/data/scripts/dock.prm

>  <Rbt.Receptor>
parameters.prm

>  <SCORE>
-18.0736

>  <SCORE.INTER>
-16.4503

>  <SCORE.INTER.CONST>
1

>  <SCORE.INTER.POLAR>
-1.50462

>  <SCORE.INTER.REPUL>
0.0678011

>  <SCORE.INTER.ROT>
4

>  <SCORE.INTER.VDW>
-21.0736

>  <SCORE.INTER.norm>
-0.658011

>  <SCORE.INTRA>
-4.46369

>  <SCORE.INTRA.DIHEDRAL>
-5.24966

>  <SCORE.INTRA.DIHEDRAL.0>
6.99285

>  <SCORE.INTRA.POLAR>
-0.818326

>  <SCORE.INTRA.POLAR.0>
0

>  <SCORE.INTRA.REPUL>
0

>  <SCORE.INTRA.REPUL.0>
0

>  <SCORE.INTRA.VDW>
0.943445

>  <SCORE.INTRA.VDW.0>
-2.52615

>  <SCORE.INTRA.norm>
-0.178548

>  <SCORE.RESTR>
0.358827

>  <SCORE.RESTR.CAVITY>
0.358827

>  <SCORE.RESTR.norm>
0.0143531

>  <SCORE.SYSTEM>
2.48158

>  <SCORE.SYSTEM.CONST>
0

>  <SCORE.SYSTEM.DIHEDRAL>
3.0731

>  <SCORE.SYSTEM.VDW>
0.945033

>  <SCORE.SYSTEM.norm>
0.0992633

>  <SCORE.heavy>
25

>  <SCORE.norm>
-0.722943

>  <SMILES>
CC(=O)N[C@H]1[C@H](Oc2cccc3ccccc23)O[C@H](CO)[C@@H](O)[C@@H]1O

>  <UniqueID>
253

$$$$
102416
  rDOCK(R)          3D
libRbt.so/2013.1/901 2013/11/27
 28 29  0  0  0  0  0  0  0  0999 V2000
   93.6226   16.7017 -105.6711 H   0  0  0  0  0  0
   93.0184   17.4652 -105.9513 O   0  0  0  0  0  0
   91.7048   17.5637 -105.4990 C   0  0  0  0  0  0
   91.2821   16.6544 -104.6635 N   0  0  0  0  0  0
   89.9823   16.4522 -104.0021 C   0  0  0  0  0  0
   89.4642   17.6912 -103.2471 C   0  0  0  0  0  0
   90.4709   18.1348 -102.3388 O   0  0  0  0  0  0
   90.4652   19.3730 -101.6779 C   0  0  0  0  0  0
   90.0173   20.4963 -102.3805 C   0  0  0  0  0  0
   89.9897   21.7537 -101.7707 C   0  0  0  0  0  0
   90.4120   21.9099 -100.4395 C   0  0  0  0  0  0
   90.3830   23.2056  -99.8134 N   0  3  0  0  0  0
   90.7571   23.3503  -98.6309 O   0  0  0  0  0  0
   89.9419   24.3085 -100.5085 O   0  5  0  0  0  0
   90.8618   20.7802  -99.7326 C   0  0  0  0  0  0
   90.8884   19.5232 -100.3439 C   0  0  0  0  0  0
   88.3020   17.3410 -102.5167 O   0  0  0  0  0  0
   87.2424   17.0115 -103.4026 C   0  0  0  0  0  0
   85.9622   16.8221 -102.5763 C   0  0  0  0  0  0
   85.6321   18.0091 -101.9064 O   0  0  0  0  0  0
   85.4399   18.6866 -102.6064 H   0  0  0  0  0  0
   87.5797   15.7244 -104.1958 C   0  0  0  0  0  0
   86.5447   15.4452 -105.1044 O   0  0  0  0  0  0
   86.7525   14.5663 -105.5164 H   0  0  0  0  0  0
   88.9068   15.9038 -104.9607 C   0  0  0  0  0  0
   89.3127   14.6626 -105.4779 O   0  0  0  0  0  0
   90.1947   14.8055 -105.9111 H   0  0  0  0  0  0
   90.8781   18.7338 -105.9553 C   0  0  0  0  0  0
  1  2  1  0  0  0
  2  3  1  0  0  0
  3  4  2  0  0  0
  3 28  1  0  0  0
  4  5  1  0  0  0
  5  6  1  0  0  0
  6  7  1  0  0  0
  6 17  1  0  0  0
  7  8  1  0  0  0
  8  9  2  0  0  0
  9 10  1  0  0  0
 10 11  2  0  0  0
 11 12  1  0  0  0
 11 15  1  0  0  0
 12 13  2  0  0  0
 12 14  1  0  0  0
 15 16  2  0  0  0
 16  8  1  0  0  0
 17 18  1  0  0  0
 18 19  1  0  0  0
 18 22  1  0  0  0
 19 20  1  0  0  0
 20 21  1  0  0  0
 22 23  1  0  0  0
 22 25  1  0  0  0
 23 24  1  0  0  0
 25 26  1  0  0  0
 25  5  1  0  0  0
 26 27  1  0  0  0
M  END
>  <CHROM.0>
-75.78512918,152.40473615,-64.66228992

>  <CHROM.1>
1.95216996,-52.87912220,166.89438548,-38.42555554,61.18622344,63.39129493
-173.92369301,-56.32108362,89.54598010,18.63800140,-102.83837943,-1.78275770
0.37324397,0.70689416

>  <Energy>
45.91974172792962

>  <Genealogy>
CC(O)=N[C@H]1[C@H](Oc2ccc([N+](=O)[O-])cc2)O[C@H](CO)[C@@H](O)[C@@H]1O (tautomer)
C/C(O)=N\[C@H]1[C@H](Oc2ccc([N+](=O)[O-])cc2)O[C@H](CO)[C@@H](O)[C@@H]1O (cis-trans isomerization)
C/C(O)=N\[C@H]1[C@H](Oc2ccc([N+](=O)[O-])cc2)O[C@H](CO)[C@@H](O)[C@@H]1O (3D coordinates assigned)
C/C(O)=N\[C@H]1[C@H](Oc2ccc([N+](=O)[O-])cc2)O[C@H](CO)[C@@H](O)[C@@H]1O (nonaromatic ring conformer: 45.91974172792962 kcal/mol)

>  <Name>
102416

>  <RI>
3.62712e+07

>  <Rbt.Current_Directory>
/home/edward/Documentos/Virtual_Screening/rDock/3

>  <Rbt.Executable>
rbdock ($Id: //depot/dev/client3/rdock/2013.1/src/exe/rbdock.cxx#4 $)

>  <Rbt.Library>
libRbt.so (2013.1, Build901 2013/11/27)

>  <Rbt.Parameter_File>
/home/edward/anaconda3/envs/MD/share/rdock-2013.1-1/data/scripts/dock.prm

>  <Rbt.Receptor>
parameters.prm

>  <SCORE>
-19.0113

>  <SCORE.INTER>
-21.174

>  <SCORE.INTER.CONST>
1

>  <SCORE.INTER.POLAR>
-3.64106

>  <SCORE.INTER.REPUL>
0.0128153

>  <SCORE.INTER.ROT>
4

>  <SCORE.INTER.VDW>
-18.2584

>  <SCORE.INTER.norm>
-0.882248

>  <SCORE.INTRA>
-1.08466

>  <SCORE.INTRA.DIHEDRAL>
-2.03839

>  <SCORE.INTRA.DIHEDRAL.0>
7.30471

>  <SCORE.INTRA.POLAR>
-0.00761452

>  <SCORE.INTRA.POLAR.0>
0

>  <SCORE.INTRA.REPUL>
0

>  <SCORE.INTRA.REPUL.0>
0

>  <SCORE.INTRA.VDW>
-0.0395721

>  <SCORE.INTRA.VDW.0>
-1.90992

>  <SCORE.INTRA.norm>
-0.045194

>  <SCORE.RESTR>
0

>  <SCORE.RESTR.CAVITY>
0

>  <SCORE.RESTR.norm>
0

>  <SCORE.SYSTEM>
3.24734

>  <SCORE.SYSTEM.CONST>
0

>  <SCORE.SYSTEM.DIHEDRAL>
4.64325

>  <SCORE.SYSTEM.VDW>
0.92572

>  <SCORE.SYSTEM.norm>
0.135306

>  <SCORE.heavy>
24

>  <SCORE.norm>
-0.792136

>  <SMILES>
C/C(O)=N\[C@H]1[C@H](Oc2ccc([N+](=O)[O-])cc2)O[C@H](CO)[C@@H](O)[C@@H]1O

>  <UniqueID>
258

$$$$
99461
  rDOCK(R)          3D
libRbt.so/2013.1/901 2013/11/27
 28 28  0  0  0  0  0  0  0  0999 V2000
   91.0747   19.1489 -108.7047 C   0  0  0  0  0  0
   91.3930   19.2740 -107.2508 C   0  0  0  0  0  0
   92.3776   19.9734 -106.8893 O   0  0  0  0  0  0
   90.6098   18.5592 -106.2840 N   0  0  0  0  0  0
   90.9163   18.5577 -104.8502 C   0  0  0  0  0  0
   90.2539   19.7721 -104.1758 C   0  0  0  0  0  0
   90.7803   20.9632 -104.7560 O   0  0  0  0  0  0
   90.3398   22.2418 -104.4006 C   0  0  0  0  0  0
   90.8584   23.4284 -105.1389 C   0  0  0  0  0  0
   89.4773   22.3983 -103.4938 O   0  0  0  0  0  0
   90.5344   19.7752 -102.7870 O   0  0  0  0  0  0
   89.9310   18.6580 -102.1570 C   0  0  0  0  0  0
   90.0994   18.8051 -100.6401 C   0  0  0  0  0  0
   89.3511   19.9207 -100.1639 O   0  0  0  0  0  0
   89.7625   21.2420 -100.3559 C   0  0  0  0  0  0
   88.8494   22.3578  -99.9772 C   0  0  0  0  0  0
   90.8786   21.4996 -100.8836 O   0  0  0  0  0  0
   90.5629   17.3421 -102.6679 C   0  0  0  0  0  0
   89.9064   16.2315 -102.0514 O   0  0  0  0  0  0
   88.5296   15.9960 -102.1363 C   0  0  0  0  0  0
   87.9469   14.8089 -101.4491 C   0  0  0  0  0  0
   87.7858   16.7421 -102.8292 O   0  0  0  0  0  0
   90.4110   17.2562 -104.1978 C   0  0  0  0  0  0
   91.1642   16.1426 -104.6823 O   0  0  0  0  0  0
   90.6583   14.8417 -104.7820 C   0  0  0  0  0  0
   91.5146   13.7661 -105.3561 C   0  0  0  0  0  0
   89.5081   14.5582 -104.3500 O   0  0  0  0  0  0
   89.8394   17.9412 -106.6279 H   0  0  0  0  0  0
  1  2  1  0  0  0
  2  3  2  0  0  0
  2  4  1  0  0  0
  4  5  1  0  0  0
  4 28  1  0  0  0
  5  6  1  0  0  0
  6  7  1  0  0  0
  6 11  1  0  0  0
  7  8  1  0  0  0
  8  9  1  0  0  0
  8 10  2  0  0  0
 11 12  1  0  0  0
 12 13  1  0  0  0
 12 18  1  0  0  0
 13 14  1  0  0  0
 14 15  1  0  0  0
 15 16  1  0  0  0
 15 17  2  0  0  0
 18 19  1  0  0  0
 18 23  1  0  0  0
 19 20  1  0  0  0
 20 21  1  0  0  0
 20 22  2  0  0  0
 23 24  1  0  0  0
 23  5  1  0  0  0
 24 25  1  0  0  0
 25 26  1  0  0  0
 25 27  2  0  0  0
M  END
>  <CHROM.0>
177.32246640,149.68303350,-65.52006048

>  <CHROM.1>
86.57884479,177.19261739,-174.74672331,66.44163521,-75.26763089,172.59894577
57.36962172,-179.72360775,-151.10206086,177.42186974,90.19745793,18.68560017
-103.60140184,-1.59545389,1.22295126,0.27386252

>  <Energy>
28.868587458382756

>  <Genealogy>
CC(=O)N[C@H]1[C@H](OC(C)=O)O[C@H](COC(C)=O)[C@@H](OC(C)=O)[C@@H]1OC(C)=O (3D coordinates assigned)
CC(=O)N[C@H]1[C@H](OC(C)=O)O[C@H](COC(C)=O)[C@@H](OC(C)=O)[C@@H]1OC(C)=O (nonaromatic ring conformer: 28.868587458382756 kcal/mol)

>  <Name>
99461

>  <RI>
3.62712e+07

>  <Rbt.Current_Directory>
/home/edward/Documentos/Virtual_Screening/rDock/3

>  <Rbt.Executable>
rbdock ($Id: //depot/dev/client3/rdock/2013.1/src/exe/rbdock.cxx#4 $)

>  <Rbt.Library>
libRbt.so (2013.1, Build901 2013/11/27)

>  <Rbt.Parameter_File>
/home/edward/anaconda3/envs/MD/share/rdock-2013.1-1/data/scripts/dock.prm

>  <Rbt.Receptor>
parameters.prm

>  <SCORE>
-7.15262

>  <SCORE.INTER>
-8.74677

>  <SCORE.INTER.CONST>
1

>  <SCORE.INTER.POLAR>
-1.54707

>  <SCORE.INTER.REPUL>
0.00421563

>  <SCORE.INTER.ROT>
10

>  <SCORE.INTER.VDW>
-18.9078

>  <SCORE.INTER.norm>
-0.323954

>  <SCORE.INTRA>
-0.280294

>  <SCORE.INTRA.DIHEDRAL>
-0.696543

>  <SCORE.INTRA.DIHEDRAL.0>
7.34291

>  <SCORE.INTRA.POLAR>
0

>  <SCORE.INTRA.POLAR.0>
0

>  <SCORE.INTRA.REPUL>
0

>  <SCORE.INTRA.REPUL.0>
0

>  <SCORE.INTRA.VDW>
0.0679773

>  <SCORE.INTRA.VDW.0>
-4.79421

>  <SCORE.INTRA.norm>
-0.0103813

>  <SCORE.RESTR>
0.0783129

>  <SCORE.RESTR.CAVITY>
0.0783129

>  <SCORE.RESTR.norm>
0.00290048

>  <SCORE.SYSTEM>
1.79613

>  <SCORE.SYSTEM.CONST>
0

>  <SCORE.SYSTEM.DIHEDRAL>
4.01351

>  <SCORE.SYSTEM.VDW>
-0.210628

>  <SCORE.SYSTEM.norm>
0.0665233

>  <SCORE.heavy>
27

>  <SCORE.norm>
-0.264912

>  <SMILES>
CC(=O)N[C@H]1[C@H](OC(C)=O)O[C@H](COC(C)=O)[C@@H](OC(C)=O)[C@@H]1OC(C)=O

>  <UniqueID>
259

$$$$
96523
  rDOCK(R)          3D
libRbt.so/2013.1/901 2013/11/27
 20 20  0  0  0  0  0  0  0  0999 V2000
   83.6620   15.5603 -101.1931 H   0  0  0  0  0  0
   83.6109   16.4910 -101.5895 O   0  0  0  0  0  0
   84.6569   17.0261 -102.3372 C   0  0  0  0  0  0
   85.7266   16.3028 -102.5075 N   0  0  0  0  0  0
   86.9401   16.6837 -103.2387 C   0  0  0  0  0  0
   88.0607   17.0733 -102.2518 C   0  0  0  0  0  0
   88.2625   16.0378 -101.3010 O   0  0  0  0  0  0
   89.1123   16.4864 -100.2680 C   0  0  0  0  0  0
   89.2588   17.3824 -102.9516 O   0  0  0  0  0  0
   89.7587   16.2618 -103.6664 C   0  0  0  0  0  0
   91.1110   16.6598 -104.2746 C   0  0  0  0  0  0
   91.7253   15.5515 -104.8724 O   0  0  0  0  0  0
   92.6677   15.8148 -105.0380 H   0  0  0  0  0  0
   88.7526   15.8226 -104.7588 C   0  0  0  0  0  0
   89.2198   14.6715 -105.4174 O   0  0  0  0  0  0
   90.1505   14.8565 -105.7089 H   0  0  0  0  0  0
   87.3943   15.5058 -104.1120 C   0  0  0  0  0  0
   86.4318   15.2733 -105.1087 O   0  0  0  0  0  0
   86.6909   14.4334 -105.5703 H   0  0  0  0  0  0
   84.5070   18.3968 -102.9406 C   0  0  0  0  0  0
  1  2  1  0  0  0
  2  3  1  0  0  0
  3  4  2  0  0  0
  3 20  1  0  0  0
  4  5  1  0  0  0
  5  6  1  0  0  0
  6  7  1  0  0  0
  6  9  1  0  0  0
  7  8  1  0  0  0
  9 10  1  0  0  0
 10 11  1  0  0  0
 10 14  1  0  0  0
 11 12  1  0  0  0
 12 13  1  0  0  0
 14 15  1  0  0  0
 14 17  1  0  0  0
 15 16  1  0  0  0
 17 18  1  0  0  0
 17  5  1  0  0  0
 18 19  1  0  0  0
M  END
>  <CHROM.0>
177.43488105,153.55153328,-67.57167891

>  <CHROM.1>
-0.82044683,102.62939536,-169.73084102,173.61220804,-166.25887502,-51.49248709
-172.20405731,87.81710396,16.31400374,-103.24601748,2.74884152,-0.04240269
1.20821608

>  <Energy>
32.04337113203077

>  <Genealogy>
CO[C@H]1O[C@H](CO)[C@@H](O)[C@H](O)[C@H]1N=C(C)O (tautomer)
CO[C@H]1O[C@H](CO)[C@@H](O)[C@H](O)[C@H]1/N=C(\C)O (cis-trans isomerization)
CO[C@H]1O[C@H](CO)[C@@H](O)[C@H](O)[C@H]1/N=C(\C)O (3D coordinates assigned)
CO[C@H]1O[C@H](CO)[C@@H](O)[C@H](O)[C@H]1/N=C(\C)O (nonaromatic ring conformer: 32.04337113203077 kcal/mol)

>  <Name>
96523

>  <RI>
3.62712e+07

>  <Rbt.Current_Directory>
/home/edward/Documentos/Virtual_Screening/rDock/3

>  <Rbt.Executable>
rbdock ($Id: //depot/dev/client3/rdock/2013.1/src/exe/rbdock.cxx#4 $)

>  <Rbt.Library>
libRbt.so (2013.1, Build901 2013/11/27)

>  <Rbt.Parameter_File>
/home/edward/anaconda3/envs/MD/share/rdock-2013.1-1/data/scripts/dock.prm

>  <Rbt.Receptor>
parameters.prm

>  <SCORE>
-18.8126

>  <SCORE.INTER>
-15.2609

>  <SCORE.INTER.CONST>
1

>  <SCORE.INTER.POLAR>
-3.41903

>  <SCORE.INTER.REPUL>
0.0336508

>  <SCORE.INTER.ROT>
3

>  <SCORE.INTER.VDW>
-12.2045

>  <SCORE.INTER.norm>
-0.953808

>  <SCORE.INTRA>
-5.29997

>  <SCORE.INTRA.DIHEDRAL>
-7.61445

>  <SCORE.INTRA.DIHEDRAL.0>
10.3313

>  <SCORE.INTRA.POLAR>
-0.706106

>  <SCORE.INTRA.POLAR.0>
0

>  <SCORE.INTRA.REPUL>
0

>  <SCORE.INTRA.REPUL.0>
0

>  <SCORE.INTRA.VDW>
0.908017

>  <SCORE.INTRA.VDW.0>
-1.37951

>  <SCORE.INTRA.norm>
-0.331248

>  <SCORE.RESTR>
0

>  <SCORE.RESTR.CAVITY>
0

>  <SCORE.RESTR.norm>
0

>  <SCORE.SYSTEM>
1.74825

>  <SCORE.SYSTEM.CONST>
0

>  <SCORE.SYSTEM.DIHEDRAL>
3.26528

>  <SCORE.SYSTEM.VDW>
0.115608

>  <SCORE.SYSTEM.norm>
0.109265

>  <SCORE.heavy>
16

>  <SCORE.norm>
-1.17579

>  <SMILES>
CO[C@H]1O[C@H](CO)[C@@H](O)[C@H](O)[C@H]1/N=C(\C)O

>  <UniqueID>
263

$$$$
90220
  rDOCK(R)          3D
libRbt.so/2013.1/901 2013/11/27
 28 29  0  0  0  0  0  0  0  0999 V2000
   85.6149   14.7405 -105.4458 H   0  0  0  0  0  0
   86.5221   15.1492 -105.2565 O   0  0  0  0  0  0
   86.9761   15.3230 -103.9495 C   0  0  0  0  0  0
   88.1667   15.7871 -103.7160 N   0  0  0  0  0  0
   89.1388   16.1644 -104.7431 C   0  0  0  0  0  0
   89.2758   17.7061 -104.8002 C   0  0  0  0  0  0
   89.5906   18.2673 -103.5167 O   0  0  0  0  0  0
   89.7938   19.6262 -103.2187 C   0  0  0  0  0  0
   90.0547   19.9700 -101.8882 C   0  0  0  0  0  0
   90.2600   21.3029 -101.5216 C   0  0  0  0  0  0
   90.2118   22.3228 -102.4862 C   0  0  0  0  0  0
   90.4198   23.6955 -102.1065 N   0  3  0  0  0  0
   90.3766   24.6060 -102.9598 O   0  0  0  0  0  0
   90.6687   24.0281 -100.7945 O   0  5  0  0  0  0
   89.9582   21.9784 -103.8256 C   0  0  0  0  0  0
   89.7554   20.6444 -104.1913 C   0  0  0  0  0  0
   90.2564   18.0888 -105.7532 O   0  0  0  0  0  0
   91.5433   17.5999 -105.4048 C   0  0  0  0  0  0
   92.5804   18.1852 -106.3742 C   0  0  0  0  0  0
   92.6126   19.5833 -106.2685 O   0  0  0  0  0  0
   92.8671   19.7937 -105.3323 H   0  0  0  0  0  0
   91.5642   16.0554 -105.4300 C   0  0  0  0  0  0
   91.2844   15.5803 -106.7247 O   0  0  0  0  0  0
   91.9813   15.9482 -107.3283 H   0  0  0  0  0  0
   90.5078   15.5207 -104.4485 C   0  0  0  0  0  0
   90.4148   14.1238 -104.5579 O   0  0  0  0  0  0
   91.2321   13.7485 -104.1373 H   0  0  0  0  0  0
   86.0938   14.9551 -102.8007 C   0  0  0  0  0  0
  1  2  1  0  0  0
  2  3  1  0  0  0
  3  4  2  0  0  0
  3 28  1  0  0  0
  4  5  1  0  0  0
  5  6  1  0  0  0
  6  7  1  0  0  0
  6 17  1  0  0  0
  7  8  1  0  0  0
  8  9  2  0  0  0
  9 10  1  0  0  0
 10 11  2  0  0  0
 11 12  1  0  0  0
 11 15  1  0  0  0
 12 13  2  0  0  0
 12 14  1  0  0  0
 15 16  2  0  0  0
 16  8  1  0  0  0
 17 18  1  0  0  0
 18 19  1  0  0  0
 18 22  1  0  0  0
 19 20  1  0  0  0
 20 21  1  0  0  0
 22 23  1  0  0  0
 22 25  1  0  0  0
 23 24  1  0  0  0
 25 26  1  0  0  0
 25  5  1  0  0  0
 26 27  1  0  0  0
M  END
>  <CHROM.0>
179.15612702,154.64359100,53.54424083

>  <CHROM.1>
176.60454289,107.70722046,179.41812196,178.18312032,61.91241280,60.52639888
59.50985112,-165.58564536,89.93438155,18.54990418,-104.08033304,1.78288274
-0.59422596,-2.70927048

>  <Energy>
43.0574442712791

>  <Genealogy>
CC(O)=N[C@H]1[C@@H](Oc2ccc([N+](=O)[O-])cc2)O[C@H](CO)[C@H](O)[C@@H]1O (tautomer)
C/C(O)=N\[C@H]1[C@@H](Oc2ccc([N+](=O)[O-])cc2)O[C@H](CO)[C@H](O)[C@@H]1O (cis-trans isomerization)
C/C(O)=N\[C@H]1[C@@H](Oc2ccc([N+](=O)[O-])cc2)O[C@H](CO)[C@H](O)[C@@H]1O (3D coordinates assigned)
C/C(O)=N\[C@H]1[C@@H](Oc2ccc([N+](=O)[O-])cc2)O[C@H](CO)[C@H](O)[C@@H]1O (nonaromatic ring conformer: 43.0574442712791 kcal/mol)

>  <Name>
90220

>  <RI>
3.62712e+07

>  <Rbt.Current_Directory>
/home/edward/Documentos/Virtual_Screening/rDock/3

>  <Rbt.Executable>
rbdock ($Id: //depot/dev/client3/rdock/2013.1/src/exe/rbdock.cxx#4 $)

>  <Rbt.Library>
libRbt.so (2013.1, Build901 2013/11/27)

>  <Rbt.Parameter_File>
/home/edward/anaconda3/envs/MD/share/rdock-2013.1-1/data/scripts/dock.prm

>  <Rbt.Receptor>
parameters.prm

>  <SCORE>
-19.2188

>  <SCORE.INTER>
-17.8904

>  <SCORE.INTER.CONST>
1

>  <SCORE.INTER.POLAR>
-3.09889

>  <SCORE.INTER.REPUL>
0.0934057

>  <SCORE.INTER.ROT>
4

>  <SCORE.INTER.VDW>
-17.2212

>  <SCORE.INTER.norm>
-0.745434

>  <SCORE.INTRA>
-3.74199

>  <SCORE.INTRA.DIHEDRAL>
-9.30853

>  <SCORE.INTRA.DIHEDRAL.0>
10.6762

>  <SCORE.INTRA.POLAR>
0

>  <SCORE.INTRA.POLAR.0>
0

>  <SCORE.INTRA.REPUL>
0

>  <SCORE.INTRA.REPUL.0>
0

>  <SCORE.INTRA.VDW>
0.912278

>  <SCORE.INTRA.VDW.0>
-2.77799

>  <SCORE.INTRA.norm>
-0.155916

>  <SCORE.RESTR>
0

>  <SCORE.RESTR.CAVITY>
0

>  <SCORE.RESTR.norm>
0

>  <SCORE.SYSTEM>
2.4136

>  <SCORE.SYSTEM.CONST>
0

>  <SCORE.SYSTEM.DIHEDRAL>
3.04566

>  <SCORE.SYSTEM.VDW>
0.890775

>  <SCORE.SYSTEM.norm>
0.100567

>  <SCORE.heavy>
24

>  <SCORE.norm>
-0.800783

>  <SMILES>
C/C(O)=N\[C@H]1[C@@H](Oc2ccc([N+](=O)[O-])cc2)O[C@H](CO)[C@H](O)[C@@H]1O

>  <UniqueID>
267

$$$$
84265
  rDOCK(R)          3D
libRbt.so/2013.1/901 2013/11/27
 20 20  0  0  0  0  0  0  0  0999 V2000
   90.4064   19.9826 -101.5767 C   0  0  0  0  0  0
   89.6282   20.3807 -102.7939 C   0  0  0  0  0  0
   88.7457   21.2737 -102.6876 O   0  0  0  0  0  0
   89.8718   19.7887 -104.0802 N   0  0  0  0  0  0
   90.7777   18.6554 -104.3041 C   0  0  0  0  0  0
   90.0586   17.3286 -103.9796 C   0  0  0  0  0  0
   88.8367   17.2366 -104.6698 O   0  0  0  0  0  0
   90.8887   16.2075 -104.2532 O   0  0  0  0  0  0
   91.2408   16.1420 -105.6273 C   0  0  0  0  0  0
   91.9875   14.8256 -105.8766 C   0  0  0  0  0  0
   91.2060   13.7380 -105.4640 O   0  0  0  0  0  0
   92.0888   17.3714 -106.0337 C   0  0  0  0  0  0
   93.2890   17.4051 -105.2995 O   0  0  0  0  0  0
   91.2836   18.6504 -105.7610 C   0  0  0  0  0  0
   92.0959   19.7719 -105.9990 O   0  0  0  0  0  0
   89.2634   20.0977 -104.8727 H   0  0  0  0  0  0
   89.0635   17.1937 -105.6351 H   0  0  0  0  0  0
   91.2120   13.7555 -104.4718 H   0  0  0  0  0  0
   93.0441   17.3906 -104.3376 H   0  0  0  0  0  0
   92.8604   19.7141 -105.3685 H   0  0  0  0  0  0
  1  2  1  0  0  0
  2  3  2  0  0  0
  2  4  1  0  0  0
  4  5  1  0  0  0
  4 16  1  0  0  0
  5  6  1  0  0  0
  6  7  1  0  0  0
  6  8  1  0  0  0
  7 17  1  0  0  0
  8  9  1  0  0  0
  9 10  1  0  0  0
  9 12  1  0  0  0
 10 11  1  0  0  0
 11 18  1  0  0  0
 12 13  1  0  0  0
 12 14  1  0  0  0
 13 19  1  0  0  0
 14 15  1  0  0  0
 14  5  1  0  0  0
 15 20  1  0  0  0
M  END
>  <CHROM.0>
-179.20806902,152.18374189,-64.46492263

>  <CHROM.1>
82.21837530,65.28727756,55.99075333,-72.50622726,-55.73104931,60.02617273
90.83698298,17.88732178,-104.56731882,2.01051451,0.67703666,0.18440913

>  <Energy>
26.073296034015424

>  <Genealogy>
CC(=O)N[C@H]1[C@@H](O)O[C@H](CO)[C@H](O)[C@@H]1O (3D coordinates assigned)
CC(=O)N[C@H]1[C@@H](O)O[C@H](CO)[C@H](O)[C@@H]1O (nonaromatic ring conformer: 26.073296034015424 kcal/mol)

>  <Name>
84265

>  <RI>
3.62712e+07

>  <Rbt.Current_Directory>
/home/edward/Documentos/Virtual_Screening/rDock/3

>  <Rbt.Executable>
rbdock ($Id: //depot/dev/client3/rdock/2013.1/src/exe/rbdock.cxx#4 $)

>  <Rbt.Library>
libRbt.so (2013.1, Build901 2013/11/27)

>  <Rbt.Parameter_File>
/home/edward/anaconda3/envs/MD/share/rdock-2013.1-1/data/scripts/dock.prm

>  <Rbt.Receptor>
parameters.prm

>  <SCORE>
-18.4506

>  <SCORE.INTER>
-19.2376

>  <SCORE.INTER.CONST>
1

>  <SCORE.INTER.POLAR>
-3.84566

>  <SCORE.INTER.REPUL>
0

>  <SCORE.INTER.ROT>
2

>  <SCORE.INTER.VDW>
-13.5623

>  <SCORE.INTER.norm>
-1.28251

>  <SCORE.INTRA>
-1.50695

>  <SCORE.INTRA.DIHEDRAL>
-5.17848

>  <SCORE.INTRA.DIHEDRAL.0>
7.21632

>  <SCORE.INTRA.POLAR>
-0.00245537

>  <SCORE.INTRA.POLAR.0>
0

>  <SCORE.INTRA.REPUL>
0

>  <SCORE.INTRA.REPUL.0>
0

>  <SCORE.INTRA.VDW>
1.09064

>  <SCORE.INTRA.VDW.0>
-1.7955

>  <SCORE.INTRA.norm>
-0.100464

>  <SCORE.RESTR>
0.537343

>  <SCORE.RESTR.CAVITY>
0.537343

>  <SCORE.RESTR.norm>
0.0358229

>  <SCORE.SYSTEM>
1.75658

>  <SCORE.SYSTEM.CONST>
0

>  <SCORE.SYSTEM.DIHEDRAL>
3.53011

>  <SCORE.SYSTEM.VDW>
-0.00847284

>  <SCORE.SYSTEM.norm>
0.117105

>  <SCORE.heavy>
15

>  <SCORE.norm>
-1.23004

>  <SMILES>
CC(=O)N[C@H]1[C@@H](O)O[C@H](CO)[C@H](O)[C@@H]1O

>  <UniqueID>
269

$$$$
82398
  rDOCK(R)          3D
libRbt.so/2013.1/901 2013/11/27
 28 29  0  0  0  0  0  0  0  0999 V2000
   89.6802   22.5329 -102.2212 C   0  0  0  0  0  0
   90.3309   21.2111 -102.4670 C   0  0  0  0  0  0
   91.0322   20.6833 -101.5618 O   0  0  0  0  0  0
   90.1672   20.5592 -103.7340 N   0  0  0  0  0  0
   90.7340   19.2349 -104.0151 C   0  0  0  0  0  0
   89.7705   18.1329 -103.5308 C   0  0  0  0  0  0
   88.4656   18.3230 -104.0896 O   0  0  0  0  0  0
   87.3998   17.4178 -103.9718 C   0  0  0  0  0  0
   87.4146   16.1458 -104.5733 C   0  0  0  0  0  0
   86.3219   15.2854 -104.4314 C   0  0  0  0  0  0
   85.1969   15.6758 -103.6851 C   0  0  0  0  0  0
   84.0735   14.7873 -103.5416 N   0  3  0  0  0  0
   83.0710   15.1294 -102.8805 O   0  0  0  0  0  0
   84.0865   13.5430 -104.1295 O   0  5  0  0  0  0
   85.1891   16.9465 -103.0828 C   0  0  0  0  0  0
   86.2819   17.8059 -103.2268 C   0  0  0  0  0  0
   90.2799   16.8424 -103.8303 O   0  0  0  0  0  0
   90.4121   16.6432 -105.2294 C   0  0  0  0  0  0
   90.8342   15.1862 -105.4690 C   0  0  0  0  0  0
   89.7401   14.3253 -105.2988 O   0  0  0  0  0  0
   91.4494   17.6262 -105.8196 C   0  0  0  0  0  0
   91.5412   17.4599 -107.2127 O   0  0  0  0  0  0
   91.0189   19.0690 -105.5215 C   0  0  0  0  0  0
   92.0456   19.9434 -105.9160 O   0  0  0  0  0  0
   89.6066   21.0469 -104.4698 H   0  0  0  0  0  0
   89.4554   14.4107 -104.3514 H   0  0  0  0  0  0
   90.6140   17.4040 -107.5630 H   0  0  0  0  0  0
   92.8497   19.7062 -105.3848 H   0  0  0  0  0  0
  1  2  1  0  0  0
  2  3  2  0  0  0
  2  4  1  0  0  0
  4  5  1  0  0  0
  4 25  1  0  0  0
  5  6  1  0  0  0
  6  7  1  0  0  0
  6 17  1  0  0  0
  7  8  1  0  0  0
  8  9  2  0  0  0
  9 10  1  0  0  0
 10 11  2  0  0  0
 11 12  1  0  0  0
 11 15  1  0  0  0
 12 13  2  0  0  0
 12 14  1  0  0  0
 15 16  2  0  0  0
 16  8  1  0  0  0
 17 18  1  0  0  0
 18 19  1  0  0  0
 18 21  1  0  0  0
 19 20  1  0  0  0
 20 26  1  0  0  0
 21 22  1  0  0  0
 21 23  1  0  0  0
 22 27  1  0  0  0
 23 24  1  0  0  0
 23  5  1  0  0  0
 24 28  1  0  0  0
M  END
>  <CHROM.0>
178.07022628,154.26762906,-66.51272049

>  <CHROM.1>
85.29920950,172.49926843,-66.77378316,76.00481829,-62.87043790,45.31702244
60.10189037,88.65473487,17.51279471,-104.17050754,0.51016668,0.41984246,0.51976791

>  <Energy>
39.00161098360572

>  <Genealogy>
CC(=O)N[C@H]1[C@@H](Oc2ccc([N+](=O)[O-])cc2)O[C@H](CO)[C@@H](O)[C@@H]1O (3D coordinates assigned)
CC(=O)N[C@H]1[C@@H](Oc2ccc([N+](=O)[O-])cc2)O[C@H](CO)[C@@H](O)[C@@H]1O (nonaromatic ring conformer: 39.00161098360572 kcal/mol)

>  <Name>
82398

>  <RI>
3.62712e+07

>  <Rbt.Current_Directory>
/home/edward/Documentos/Virtual_Screening/rDock/3

>  <Rbt.Executable>
rbdock ($Id: //depot/dev/client3/rdock/2013.1/src/exe/rbdock.cxx#4 $)

>  <Rbt.Library>
libRbt.so (2013.1, Build901 2013/11/27)

>  <Rbt.Parameter_File>
/home/edward/anaconda3/envs/MD/share/rdock-2013.1-1/data/scripts/dock.prm

>  <Rbt.Receptor>
parameters.prm

>  <SCORE>
-20.211

>  <SCORE.INTER>
-21.4709

>  <SCORE.INTER.CONST>
1

>  <SCORE.INTER.POLAR>
-2.83397

>  <SCORE.INTER.REPUL>
0

>  <SCORE.INTER.ROT>
4

>  <SCORE.INTER.VDW>
-21.2355

>  <SCORE.INTER.norm>
-0.894623

>  <SCORE.INTRA>
-0.480012

>  <SCORE.INTRA.DIHEDRAL>
-1.67255

>  <SCORE.INTRA.DIHEDRAL.0>
9.13503

>  <SCORE.INTRA.POLAR>
0

>  <SCORE.INTRA.POLAR.0>
0

>  <SCORE.INTRA.REPUL>
0

>  <SCORE.INTRA.REPUL.0>
0

>  <SCORE.INTRA.VDW>
0.356261

>  <SCORE.INTRA.VDW.0>
-2.61743

>  <SCORE.INTRA.norm>
-0.0200005

>  <SCORE.RESTR>
0

>  <SCORE.RESTR.CAVITY>
0

>  <SCORE.RESTR.norm>
0

>  <SCORE.SYSTEM>
1.74

>  <SCORE.SYSTEM.CONST>
0

>  <SCORE.SYSTEM.DIHEDRAL>
3.12864

>  <SCORE.SYSTEM.VDW>
0.175685

>  <SCORE.SYSTEM.norm>
0.0725001

>  <SCORE.heavy>
24

>  <SCORE.norm>
-0.842123

>  <SMILES>
CC(=O)N[C@H]1[C@@H](Oc2ccc([N+](=O)[O-])cc2)O[C@H](CO)[C@@H](O)[C@@H]1O

>  <UniqueID>
271

$$$$
82313
  rDOCK(R)          3D
libRbt.so/2013.1/901 2013/11/27
 20 20  0  0  0  0  0  0  0  0999 V2000
   92.8269   17.3723 -106.0854 C   0  0  0  0  0  0
   91.8040   16.5119 -105.4185 C   0  0  0  0  0  0
   91.6979   15.3000 -105.7495 O   0  0  0  0  0  0
   90.9348   17.0742 -104.4261 N   0  0  0  0  0  0
   89.8564   16.3014 -103.7971 C   0  0  0  0  0  0
   89.0966   17.1616 -102.7581 C   0  0  0  0  0  0
   90.0051   17.9395 -102.0252 O   0  0  0  0  0  0
   88.1646   18.0097 -103.4049 O   0  0  0  0  0  0
   87.0958   17.2888 -104.0172 C   0  0  0  0  0  0
   85.8307   17.3696 -103.1504 C   0  0  0  0  0  0
   85.4462   18.7021 -102.9542 O   0  0  0  0  0  0
   87.4353   15.8262 -104.4298 C   0  0  0  0  0  0
   86.5789   15.4264 -105.4704 O   0  0  0  0  0  0
   88.9016   15.7582 -104.8919 C   0  0  0  0  0  0
   89.2513   14.4313 -105.1962 O   0  0  0  0  0  0
   91.0188   18.0953 -104.2162 H   0  0  0  0  0  0
   90.5879   17.3030 -101.5345 H   0  0  0  0  0  0
   85.2249   19.0602 -103.8528 H   0  0  0  0  0  0
   86.7030   14.4487 -105.5899 H   0  0  0  0  0  0
   90.2016   14.4381 -105.4833 H   0  0  0  0  0  0
  1  2  1  0  0  0
  2  3  2  0  0  0
  2  4  1  0  0  0
  4  5  1  0  0  0
  4 16  1  0  0  0
  5  6  1  0  0  0
  6  7  1  0  0  0
  6  8  1  0  0  0
  7 17  1  0  0  0
  8  9  1  0  0  0
  9 10  1  0  0  0
  9 12  1  0  0  0
 10 11  1  0  0  0
 11 18  1  0  0  0
 12 13  1  0  0  0
 12 14  1  0  0  0
 13 19  1  0  0  0
 14 15  1  0  0  0
 14  5  1  0  0  0
 15 20  1  0  0  0
M  END
>  <CHROM.0>
-177.26034008,152.50676888,-66.48143694

>  <CHROM.1>
179.41501800,-63.02364919,58.43038567,63.04310612,-169.51758526,-57.49813706
88.96770124,16.70416024,-104.24660913,-0.38573988,0.11807007,0.71900538

>  <Energy>
33.213812413900605

>  <Genealogy>
CC(=O)N[C@H]1[C@@H](O)O[C@H](CO)[C@@H](O)[C@@H]1O (3D coordinates assigned)
CC(=O)N[C@H]1[C@@H](O)O[C@H](CO)[C@@H](O)[C@@H]1O (nonaromatic ring conformer: 33.213812413900605 kcal/mol)

>  <Name>
82313

>  <RI>
3.62712e+07

>  <Rbt.Current_Directory>
/home/edward/Documentos/Virtual_Screening/rDock/3

>  <Rbt.Executable>
rbdock ($Id: //depot/dev/client3/rdock/2013.1/src/exe/rbdock.cxx#4 $)

>  <Rbt.Library>
libRbt.so (2013.1, Build901 2013/11/27)

>  <Rbt.Parameter_File>
/home/edward/anaconda3/envs/MD/share/rdock-2013.1-1/data/scripts/dock.prm

>  <Rbt.Receptor>
parameters.prm

>  <SCORE>
-21.2206

>  <SCORE.INTER>
-18.2444

>  <SCORE.INTER.CONST>
1

>  <SCORE.INTER.POLAR>
-3.6137

>  <SCORE.INTER.REPUL>
0.0154383

>  <SCORE.INTER.ROT>
2

>  <SCORE.INTER.VDW>
-13.435

>  <SCORE.INTER.norm>
-1.21629

>  <SCORE.INTRA>
-4.76197

>  <SCORE.INTRA.DIHEDRAL>
-4.84377

>  <SCORE.INTRA.DIHEDRAL.0>
6.93153

>  <SCORE.INTRA.POLAR>
-1

>  <SCORE.INTRA.POLAR.0>
0

>  <SCORE.INTRA.REPUL>
0

>  <SCORE.INTRA.REPUL.0>
0

>  <SCORE.INTRA.VDW>
1.05992

>  <SCORE.INTRA.VDW.0>
-1.9742

>  <SCORE.INTRA.norm>
-0.317464

>  <SCORE.RESTR>
0.0250844

>  <SCORE.RESTR.CAVITY>
0.0250844

>  <SCORE.RESTR.norm>
0.0016723

>  <SCORE.SYSTEM>
1.76069

>  <SCORE.SYSTEM.CONST>
0

>  <SCORE.SYSTEM.DIHEDRAL>
3.47328

>  <SCORE.SYSTEM.VDW>
0.0240468

>  <SCORE.SYSTEM.norm>
0.117379

>  <SCORE.heavy>
15

>  <SCORE.norm>
-1.41471

>  <SMILES>
CC(=O)N[C@H]1[C@@H](O)O[C@H](CO)[C@@H](O)[C@@H]1O

>  <UniqueID>
276

$$$$
35717
  rDOCK(R)          3D
libRbt.so/2013.1/901 2013/11/27
 20 20  0  0  0  0  0  0  0  0999 V2000
   89.0137   23.8633 -107.6135 C   0  0  0  0  0  0
   87.6142   24.3657 -107.4710 C   0  0  0  0  0  0
   86.7418   24.0265 -108.3158 O   0  0  0  0  0  0
   87.2639   25.2002 -106.3584 N   0  0  0  0  0  0
   85.9111   25.7459 -106.1810 C   0  0  0  0  0  0
   85.1351   24.9499 -105.1128 C   0  0  0  0  0  0
   85.0978   23.6002 -105.4909 O   0  0  0  0  0  0
   85.7573   25.0560 -103.8405 O   0  0  0  0  0  0
   85.7690   26.3913 -103.3513 C   0  0  0  0  0  0
   84.3656   26.8451 -102.8851 C   0  0  0  0  0  0
   83.8147   25.9065 -101.9975 O   0  0  0  0  0  0
   86.4944   27.3593 -104.3260 C   0  0  0  0  0  0
   86.3879   28.6862 -103.8784 O   0  0  0  0  0  0
   85.9816   27.2305 -105.7735 C   0  0  0  0  0  0
   84.7182   27.8325 -105.8964 O   0  0  0  0  0  0
   88.0012   25.4023 -105.6449 H   0  0  0  0  0  0
   84.6081   23.1203 -104.7728 H   0  0  0  0  0  0
   82.9091   26.2295 -101.7504 H   0  0  0  0  0  0
   85.4325   28.9433 -103.9641 H   0  0  0  0  0  0
   84.3942   27.6375 -106.8146 H   0  0  0  0  0  0
  1  2  1  0  0  0
  2  3  2  0  0  0
  2  4  1  0  0  0
  4  5  1  0  0  0
  4 16  1  0  0  0
  5  6  1  0  0  0
  6  7  1  0  0  0
  6  8  1  0  0  0
  7 17  1  0  0  0
  8  9  1  0  0  0
  9 10  1  0  0  0
  9 12  1  0  0  0
 10 11  1  0  0  0
 11 18  1  0  0  0
 12 13  1  0  0  0
 12 14  1  0  0  0
 13 19  1  0  0  0
 14 15  1  0  0  0
 14  5  1  0  0  0
 15 20  1  0  0  0
M  END
>  <CHROM.0>
-179.74186221,154.05722477,-61.40057842

>  <CHROM.1>
102.43251705,178.90194642,51.30647891,-178.37998990,-67.93373239,-52.20594975
85.95407322,25.80923454,-105.19732993,-0.71472621,0.91831061,0.25365574

>  <Energy>
29.734900029943017

>  <Genealogy>
CC(=O)N[C@H]1[C@@H](O)O[C@H](CO)[C@H](O)[C@@H]1O (chirality)
CC(=O)N[C@H]1[C@@H](O)O[C@H](CO)[C@H](O)[C@@H]1O (3D coordinates assigned)
CC(=O)N[C@H]1[C@@H](O)O[C@H](CO)[C@H](O)[C@@H]1O (nonaromatic ring conformer: 29.734900029943017 kcal/mol)

>  <Name>
35717

>  <RI>
3.62712e+07

>  <Rbt.Current_Directory>
/home/edward/Documentos/Virtual_Screening/rDock/3

>  <Rbt.Executable>
rbdock ($Id: //depot/dev/client3/rdock/2013.1/src/exe/rbdock.cxx#4 $)

>  <Rbt.Library>
libRbt.so (2013.1, Build901 2013/11/27)

>  <Rbt.Parameter_File>
/home/edward/anaconda3/envs/MD/share/rdock-2013.1-1/data/scripts/dock.prm

>  <Rbt.Receptor>
parameters.prm

>  <SCORE>
-21.6173

>  <SCORE.INTER>
-18.8672

>  <SCORE.INTER.CONST>
1

>  <SCORE.INTER.POLAR>
-4.33762

>  <SCORE.INTER.REPUL>
0

>  <SCORE.INTER.ROT>
2

>  <SCORE.INTER.VDW>
-11.5193

>  <SCORE.INTER.norm>
-1.25781

>  <SCORE.INTRA>
-4.53301

>  <SCORE.INTRA.DIHEDRAL>
-9.67315

>  <SCORE.INTRA.DIHEDRAL.0>
12.0534

>  <SCORE.INTRA.POLAR>
-0.0365316

>  <SCORE.INTRA.POLAR.0>
0

>  <SCORE.INTRA.REPUL>
0

>  <SCORE.INTRA.REPUL.0>
0

>  <SCORE.INTRA.VDW>
0.427775

>  <SCORE.INTRA.VDW.0>
-1.823

>  <SCORE.INTRA.norm>
-0.302201

>  <SCORE.RESTR>
0

>  <SCORE.RESTR.CAVITY>
0

>  <SCORE.RESTR.norm>
0

>  <SCORE.SYSTEM>
1.78286

>  <SCORE.SYSTEM.CONST>
0

>  <SCORE.SYSTEM.DIHEDRAL>
3.25731

>  <SCORE.SYSTEM.VDW>
0.154205

>  <SCORE.SYSTEM.norm>
0.118857

>  <SCORE.heavy>
15

>  <SCORE.norm>
-1.44116

>  <SMILES>
CC(=O)N[C@H]1[C@@H](O)O[C@H](CO)[C@H](O)[C@@H]1O

>  <UniqueID>
278

$$$$
29327
  rDOCK(R)          3D
libRbt.so/2013.1/901 2013/11/27
 23 23  0  0  0  0  0  0  0  0999 V2000
   88.4761   22.0670 -100.8438 C   0  0  0  0  0  0
   87.6587   21.3542 -101.8306 N   0  0  0  0  0  0
   87.1222   22.0415 -102.9345 N   0  0  0  0  0  0
   87.2955   21.6396 -104.1039 O   0  0  0  0  0  0
   87.5203   19.9225 -101.7607 C   0  0  0  0  0  0
   88.1137   19.2797 -100.8512 O   0  0  0  0  0  0
   86.7130   19.2194 -102.7214 N   0  0  0  0  0  0
   86.5815   17.7575 -102.7292 C   0  0  0  0  0  0
   85.2407   17.3300 -102.0998 C   0  0  0  0  0  0
   84.1551   17.9721 -102.7225 O   0  0  0  0  0  0
   85.0909   15.9178 -102.1364 O   0  0  0  0  0  0
   85.0562   15.4236 -103.4688 C   0  0  0  0  0  0
   84.7637   13.9149 -103.4006 C   0  0  0  0  0  0
   84.5738   13.3742 -104.6809 O   0  0  0  0  0  0
   86.3969   15.7090 -104.1927 C   0  0  0  0  0  0
   86.3321   15.2855 -105.5317 O   0  0  0  0  0  0
   86.6839   17.2204 -104.1677 C   0  0  0  0  0  0
   87.9466   17.4990 -104.7213 O   0  0  0  0  0  0
   86.3017   19.7524 -103.5196 H   0  0  0  0  0  0
   83.3974   17.9229 -102.0832 H   0  0  0  0  0  0
   83.7268   13.7572 -105.0293 H   0  0  0  0  0  0
   86.3238   14.2926 -105.5259 H   0  0  0  0  0  0
   87.9506   17.1582 -105.6541 H   0  0  0  0  0  0
  1  2  1  0  0  0
  2  3  1  0  0  0
  2  5  1  0  0  0
  3  4  2  0  0  0
  5  6  2  0  0  0
  5  7  1  0  0  0
  7  8  1  0  0  0
  7 19  1  0  0  0
  8  9  1  0  0  0
  9 10  1  0  0  0
  9 11  1  0  0  0
 10 20  1  0  0  0
 11 12  1  0  0  0
 12 13  1  0  0  0
 12 15  1  0  0  0
 13 14  1  0  0  0
 14 21  1  0  0  0
 15 16  1  0  0  0
 15 17  1  0  0  0
 16 22  1  0  0  0
 17 18  1  0  0  0
 17  8  1  0  0  0
 18 23  1  0  0  0
M  END
>  <CHROM.0>
177.45562365,153.84561276,-65.48533439

>  <CHROM.1>
127.26373049,101.77827303,-159.68371224,173.79909505,-67.87929598,-70.59017306
-178.30067830,86.40855625,17.90395475,-103.09629210,0.93209221,0.95527596
0.84305394

>  <Energy>
31.60248801215496

>  <Genealogy>
CN(N=O)C(=O)N[C@H]1[C@@H](O)O[C@H](CO)[C@@H](O)[C@@H]1O (3D coordinates assigned)
CN(N=O)C(=O)N[C@H]1[C@@H](O)O[C@H](CO)[C@@H](O)[C@@H]1O (nonaromatic ring conformer: 31.60248801215496 kcal/mol)

>  <Name>
29327

>  <RI>
3.62712e+07

>  <Rbt.Current_Directory>
/home/edward/Documentos/Virtual_Screening/rDock/3

>  <Rbt.Executable>
rbdock ($Id: //depot/dev/client3/rdock/2013.1/src/exe/rbdock.cxx#4 $)

>  <Rbt.Library>
libRbt.so (2013.1, Build901 2013/11/27)

>  <Rbt.Parameter_File>
/home/edward/anaconda3/envs/MD/share/rdock-2013.1-1/data/scripts/dock.prm

>  <Rbt.Receptor>
parameters.prm

>  <SCORE>
-16.6742

>  <SCORE.INTER>
-16.8847

>  <SCORE.INTER.CONST>
1

>  <SCORE.INTER.POLAR>
-4.53366

>  <SCORE.INTER.REPUL>
0.12079

>  <SCORE.INTER.ROT>
3

>  <SCORE.INTER.VDW>
-10.4742

>  <SCORE.INTER.norm>
-0.938038

>  <SCORE.INTRA>
-1.53896

>  <SCORE.INTRA.DIHEDRAL>
-0.244372

>  <SCORE.INTRA.DIHEDRAL.0>
8.26221

>  <SCORE.INTRA.POLAR>
-0.241519

>  <SCORE.INTRA.POLAR.0>
0

>  <SCORE.INTRA.REPUL>
0

>  <SCORE.INTRA.REPUL.0>
0

>  <SCORE.INTRA.VDW>
-0.595611

>  <SCORE.INTRA.VDW.0>
-0.880099

>  <SCORE.INTRA.norm>
-0.0854979

>  <SCORE.RESTR>
0

>  <SCORE.RESTR.CAVITY>
0

>  <SCORE.RESTR.norm>
0

>  <SCORE.SYSTEM>
1.74947

>  <SCORE.SYSTEM.CONST>
0

>  <SCORE.SYSTEM.DIHEDRAL>
3.23304

>  <SCORE.SYSTEM.VDW>
0.132956

>  <SCORE.SYSTEM.norm>
0.097193

>  <SCORE.heavy>
18

>  <SCORE.norm>
-0.926343

>  <SMILES>
CN(N=O)C(=O)N[C@H]1[C@@H](O)O[C@H](CO)[C@@H](O)[C@@H]1O

>  <UniqueID>
280

$$$$
24154
  rDOCK(R)          3D
libRbt.so/2013.1/901 2013/11/27
 19 19  0  0  0  0  0  0  0  0999 V2000
   92.4084   16.9632 -104.9110 N   0  3  0  0  0  0
   91.0869   16.5403 -104.4268 C   0  0  0  0  0  0
   90.0969   17.7307 -104.4026 C   0  0  0  0  0  0
   90.0361   18.3655 -105.6561 O   0  0  0  0  0  0
   88.8049   17.3227 -103.9725 O   0  0  0  0  0  0
   88.2452   16.3580 -104.8514 C   0  0  0  0  0  0
   86.7967   16.0770 -104.4259 C   0  0  0  0  0  0
   86.1572   15.2667 -105.3751 O   0  0  0  0  0  0
   89.0831   15.0617 -104.8458 C   0  0  0  0  0  0
   89.0843   14.4999 -103.5560 O   0  0  0  0  0  0
   90.5227   15.3901 -105.2865 C   0  0  0  0  0  0
   91.3419   14.2562 -105.1596 O   0  0  0  0  0  0
   92.8439   17.6507 -104.2541 H   0  0  0  0  0  0
   92.3158   17.4056 -105.8541 H   0  0  0  0  0  0
   93.0358   16.1315 -105.0035 H   0  0  0  0  0  0
   89.7731   17.6671 -106.3106 H   0  0  0  0  0  0
   86.6495   14.4046 -105.3915 H   0  0  0  0  0  0
   89.5104   13.6063 -103.6301 H   0  0  0  0  0  0
   90.9577   13.5585 -105.7523 H   0  0  0  0  0  0
  1  2  1  0  0  0
  1 13  1  0  0  0
  1 14  1  0  0  0
  1 15  1  0  0  0
  2  3  1  0  0  0
  3  4  1  0  0  0
  3  5  1  0  0  0
  4 16  1  0  0  0
  5  6  1  0  0  0
  6  7  1  0  0  0
  6  9  1  0  0  0
  7  8  1  0  0  0
  8 17  1  0  0  0
  9 10  1  0  0  0
  9 11  1  0  0  0
 10 18  1  0  0  0
 11 12  1  0  0  0
 11  2  1  0  0  0
 12 19  1  0  0  0
M  END
>  <CHROM.0>
-67.29406646,153.31807530,-66.98977608

>  <CHROM.1>
64.38881583,57.31168997,172.09150073,62.59698871,171.41988614,-178.05875329
89.49025789,16.12447606,-104.75560751,0.22633978,0.03010539,-0.06339097

>  <Energy>
24.02596367370196

>  <Genealogy>
[NH3+][C@H]1C(O)O[C@H](CO)[C@H](O)[C@@H]1O (protonated)
[NH3+][C@H]1[C@@H](O)O[C@H](CO)[C@H](O)[C@@H]1O (chirality)
[NH3+][C@H]1[C@@H](O)O[C@H](CO)[C@H](O)[C@@H]1O (3D coordinates assigned)
[NH3+][C@H]1[C@@H](O)O[C@H](CO)[C@H](O)[C@@H]1O (nonaromatic ring conformer: 24.02596367370196 kcal/mol)

>  <Name>
24154

>  <RI>
3.62712e+07

>  <Rbt.Current_Directory>
/home/edward/Documentos/Virtual_Screening/rDock/3

>  <Rbt.Executable>
rbdock ($Id: //depot/dev/client3/rdock/2013.1/src/exe/rbdock.cxx#4 $)

>  <Rbt.Library>
libRbt.so (2013.1, Build901 2013/11/27)

>  <Rbt.Parameter_File>
/home/edward/anaconda3/envs/MD/share/rdock-2013.1-1/data/scripts/dock.prm

>  <Rbt.Receptor>
parameters.prm

>  <SCORE>
-25.3673

>  <SCORE.INTER>
-27.6399

>  <SCORE.INTER.CONST>
1

>  <SCORE.INTER.POLAR>
-5.96623

>  <SCORE.INTER.REPUL>
0

>  <SCORE.INTER.ROT>
1

>  <SCORE.INTER.VDW>
-13.7547

>  <SCORE.INTER.norm>
-2.30333

>  <SCORE.INTRA>
-1.33768

>  <SCORE.INTRA.DIHEDRAL>
-4.30097

>  <SCORE.INTRA.DIHEDRAL.0>
5.12767

>  <SCORE.INTRA.POLAR>
0

>  <SCORE.INTRA.POLAR.0>
0

>  <SCORE.INTRA.REPUL>
0

>  <SCORE.INTRA.REPUL.0>
0

>  <SCORE.INTRA.VDW>
0.812804

>  <SCORE.INTRA.VDW.0>
-1.0973

>  <SCORE.INTRA.norm>
-0.111473

>  <SCORE.RESTR>
0

>  <SCORE.RESTR.CAVITY>
0

>  <SCORE.RESTR.norm>
0

>  <SCORE.SYSTEM>
3.61026

>  <SCORE.SYSTEM.CONST>
0

>  <SCORE.SYSTEM.DIHEDRAL>
3.53989

>  <SCORE.SYSTEM.VDW>
1.84031

>  <SCORE.SYSTEM.norm>
0.300855

>  <SCORE.heavy>
12

>  <SCORE.norm>
-2.11394

>  <SMILES>
[NH3+][C@H]1[C@@H](O)O[C@H](CO)[C@H](O)[C@@H]1O

>  <UniqueID>
285

$$$$
24139
  rDOCK(R)          3D
libRbt.so/2013.1/901 2013/11/27
 20 20  0  0  0  0  0  0  0  0999 V2000
   86.7458   21.6260 -102.0772 C   0  0  0  0  0  0
   86.6897   20.1400 -101.9352 C   0  0  0  0  0  0
   86.9286   19.6134 -100.8149 O   0  0  0  0  0  0
   86.3324   19.3282 -103.0628 N   0  0  0  0  0  0
   86.1765   17.8724 -102.9787 C   0  0  0  0  0  0
   84.7463   17.5205 -102.5173 C   0  0  0  0  0  0
   84.4984   18.0735 -101.2512 O   0  0  0  0  0  0
   84.5730   16.1140 -102.4552 O   0  0  0  0  0  0
   84.6820   15.5391 -103.7473 C   0  0  0  0  0  0
   84.3103   14.0500 -103.6561 C   0  0  0  0  0  0
   82.9397   13.8819 -103.4068 O   0  0  0  0  0  0
   86.1099   15.7330 -104.3124 C   0  0  0  0  0  0
   86.1784   15.1987 -105.6104 O   0  0  0  0  0  0
   86.4514   17.2349 -104.3507 C   0  0  0  0  0  0
   87.8059   17.4135 -104.6778 O   0  0  0  0  0  0
   86.0551   19.8089 -103.9491 H   0  0  0  0  0  0
   83.5160   18.0485 -101.1077 H   0  0  0  0  0  0
   82.4594   14.2217 -104.2064 H   0  0  0  0  0  0
   86.2507   14.2133 -105.5145 H   0  0  0  0  0  0
   87.9359   17.0391 -105.5880 H   0  0  0  0  0  0
  1  2  1  0  0  0
  2  3  2  0  0  0
  2  4  1  0  0  0
  4  5  1  0  0  0
  4 16  1  0  0  0
  5  6  1  0  0  0
  6  7  1  0  0  0
  6  8  1  0  0  0
  7 17  1  0  0  0
  8  9  1  0  0  0
  9 10  1  0  0  0
  9 12  1  0  0  0
 10 11  1  0  0  0
 11 18  1  0  0  0
 12 13  1  0  0  0
 12 14  1  0  0  0
 13 19  1  0  0  0
 14 15  1  0  0  0
 14  5  1  0  0  0
 15 20  1  0  0  0
M  END
>  <CHROM.0>
-74.51995136,154.53239280,54.64077492

>  <CHROM.1>
85.57807101,164.37772488,69.83405839,65.71781065,-77.82927088,-176.76559702
85.65439561,17.24960251,-103.13619730,-1.11116740,-0.69152859,-2.47734249

>  <Energy>
23.979540463943728

>  <Genealogy>
CC(=O)N[C@H]1[C@H](O)O[C@H](CO)[C@@H](O)[C@@H]1O (3D coordinates assigned)
CC(=O)N[C@H]1[C@H](O)O[C@H](CO)[C@@H](O)[C@@H]1O (nonaromatic ring conformer: 23.979540463943728 kcal/mol)

>  <Name>
24139

>  <RI>
3.62712e+07

>  <Rbt.Current_Directory>
/home/edward/Documentos/Virtual_Screening/rDock/3

>  <Rbt.Executable>
rbdock ($Id: //depot/dev/client3/rdock/2013.1/src/exe/rbdock.cxx#4 $)

>  <Rbt.Library>
libRbt.so (2013.1, Build901 2013/11/27)

>  <Rbt.Parameter_File>
/home/edward/anaconda3/envs/MD/share/rdock-2013.1-1/data/scripts/dock.prm

>  <Rbt.Receptor>
parameters.prm

>  <SCORE>
-19.1662

>  <SCORE.INTER>
-21.3883

>  <SCORE.INTER.CONST>
1

>  <SCORE.INTER.POLAR>
-5.11344

>  <SCORE.INTER.REPUL>
0

>  <SCORE.INTER.ROT>
2

>  <SCORE.INTER.VDW>
-11.4026

>  <SCORE.INTER.norm>
-1.42589

>  <SCORE.INTRA>
-1.70839

>  <SCORE.INTRA.DIHEDRAL>
-4.1771

>  <SCORE.INTRA.DIHEDRAL.0>
8.29295

>  <SCORE.INTRA.POLAR>
0

>  <SCORE.INTRA.POLAR.0>
0

>  <SCORE.INTRA.REPUL>
0

>  <SCORE.INTRA.REPUL.0>
0

>  <SCORE.INTRA.VDW>
0.380157

>  <SCORE.INTRA.VDW.0>
-1.81986

>  <SCORE.INTRA.norm>
-0.113893

>  <SCORE.RESTR>
0

>  <SCORE.RESTR.CAVITY>
0

>  <SCORE.RESTR.norm>
0

>  <SCORE.SYSTEM>
3.9305

>  <SCORE.SYSTEM.CONST>
0

>  <SCORE.SYSTEM.DIHEDRAL>
4.06831

>  <SCORE.SYSTEM.VDW>
1.89634

>  <SCORE.SYSTEM.norm>
0.262033

>  <SCORE.heavy>
15

>  <SCORE.norm>
-1.27775

>  <SMILES>
CC(=O)N[C@H]1[C@H](O)O[C@H](CO)[C@@H](O)[C@@H]1O

>  <UniqueID>
286

$$$$
18897
  rDOCK(R)          3D
libRbt.so/2013.1/901 2013/11/27
 18 18  0  0  0  0  0  0  0  0999 V2000
   92.5077   16.9134 -104.9279 N   0  0  0  0  0  0
   91.2372   16.5193 -104.3142 C   0  0  0  0  0  0
   90.8367   15.0990 -104.7677 C   0  0  0  0  0  0
   90.9254   15.0061 -106.1683 O   0  0  0  0  0  0
   89.4020   14.7640 -104.3089 C   0  0  0  0  0  0
   89.3738   14.4693 -102.9321 O   0  0  0  0  0  0
   88.4374   15.9191 -104.6840 C   0  0  0  0  0  0
   86.9981   15.6364 -104.2308 C   0  0  0  0  0  0
   86.1879   15.3064 -105.3256 O   0  0  0  0  0  0
   88.8707   17.1523 -104.1303 O   0  0  0  0  0  0
   90.1318   17.5455 -104.6554 C   0  0  0  0  0  0
   90.0601   17.7686 -106.0421 O   0  0  0  0  0  0
   92.9818   17.5976 -104.2941 H   0  0  0  0  0  0
   93.1304   16.0734 -104.9625 H   0  0  0  0  0  0
   90.4018   15.7629 -106.5412 H   0  0  0  0  0  0
   89.8478   13.6104 -102.7884 H   0  0  0  0  0  0
   86.4804   14.4059 -105.6231 H   0  0  0  0  0  0
   89.3124   18.4058 -106.1846 H   0  0  0  0  0  0
  1  2  1  0  0  0
  1 13  1  0  0  0
  1 14  1  0  0  0
  2  3  1  0  0  0
  3  4  1  0  0  0
  3  5  1  0  0  0
  4 15  1  0  0  0
  5  6  1  0  0  0
  5  7  1  0  0  0
  6 16  1  0  0  0
  7  8  1  0  0  0
  7 10  1  0  0  0
  8  9  1  0  0  0
  9 17  1  0  0  0
 10 11  1  0  0  0
 11 12  1  0  0  0
 11  2  1  0  0  0
 12 18  1  0  0  0
M  END
>  <CHROM.0>
173.03596490,155.88181788,-171.48802637

>  <CHROM.1>
-152.26786791,-52.21621383,-68.55420583,-106.08939495,70.75014803,177.90422514
89.56725182,16.00445495,-104.73557462,0.29600779,-0.01858969,-0.46313145

>  <Energy>
24.989025370335128

>  <Genealogy>
N[C@H]1[C@@H](O)O[C@H](CO)[C@H](O)[C@H]1O (chirality)
N[C@H]1[C@@H](O)O[C@H](CO)[C@H](O)[C@H]1O (3D coordinates assigned)
N[C@H]1[C@@H](O)O[C@H](CO)[C@H](O)[C@H]1O (nonaromatic ring conformer: 24.989025370335128 kcal/mol)

>  <Name>
18897

>  <RI>
3.62712e+07

>  <Rbt.Current_Directory>
/home/edward/Documentos/Virtual_Screening/rDock/3

>  <Rbt.Executable>
rbdock ($Id: //depot/dev/client3/rdock/2013.1/src/exe/rbdock.cxx#4 $)

>  <Rbt.Library>
libRbt.so (2013.1, Build901 2013/11/27)

>  <Rbt.Parameter_File>
/home/edward/anaconda3/envs/MD/share/rdock-2013.1-1/data/scripts/dock.prm

>  <Rbt.Receptor>
parameters.prm

>  <SCORE>
-17.2325

>  <SCORE.INTER>
-20.9382

>  <SCORE.INTER.CONST>
1

>  <SCORE.INTER.POLAR>
-5.12307

>  <SCORE.INTER.REPUL>
0

>  <SCORE.INTER.ROT>
2

>  <SCORE.INTER.VDW>
-10.9198

>  <SCORE.INTER.norm>
-1.74485

>  <SCORE.INTRA>
-0.051624

>  <SCORE.INTRA.DIHEDRAL>
3.9721

>  <SCORE.INTRA.DIHEDRAL.0>
2.85283

>  <SCORE.INTRA.POLAR>
-0.731508

>  <SCORE.INTRA.POLAR.0>
0

>  <SCORE.INTRA.REPUL>
0

>  <SCORE.INTRA.REPUL.0>
0

>  <SCORE.INTRA.VDW>
0.449456

>  <SCORE.INTRA.VDW.0>
-0.904043

>  <SCORE.INTRA.norm>
-0.004302

>  <SCORE.RESTR>
0

>  <SCORE.RESTR.CAVITY>
0

>  <SCORE.RESTR.norm>
0

>  <SCORE.SYSTEM>
3.75741

>  <SCORE.SYSTEM.CONST>
0

>  <SCORE.SYSTEM.DIHEDRAL>
3.6402

>  <SCORE.SYSTEM.VDW>
1.93731

>  <SCORE.SYSTEM.norm>
0.313117

>  <SCORE.heavy>
12

>  <SCORE.norm>
-1.43604

>  <SMILES>
N[C@H]1[C@@H](O)O[C@H](CO)[C@H](O)[C@H]1O

>  <UniqueID>
291

$$$$
5300
  rDOCK(R)          3D
libRbt.so/2013.1/901 2013/11/27
 23 23  0  0  0  0  0  0  0  0999 V2000
   82.6781   17.1837 -101.5204 H   0  0  0  0  0  0
   83.4135   16.4910 -101.5991 O   0  0  0  0  0  0
   84.6500   16.8154 -102.1489 C   0  0  0  0  0  0
   85.5643   15.8944 -102.2543 N   0  0  0  0  0  0
   86.8849   16.0622 -102.8697 C   0  0  0  0  0  0
   86.7569   16.2746 -104.3967 C   0  0  0  0  0  0
   85.9504   15.2732 -104.9679 O   0  0  0  0  0  0
   86.4175   14.4082 -104.8289 H   0  0  0  0  0  0
   88.1453   16.2423 -105.0550 C   0  0  0  0  0  0
   88.8554   17.3988 -104.6841 O   0  0  0  0  0  0
   88.3552   18.1777 -105.0428 H   0  0  0  0  0  0
   88.9057   14.9717 -104.6002 C   0  0  0  0  0  0
   90.3132   14.8957 -105.2122 C   0  0  0  0  0  0
   90.8432   13.6019 -105.0993 O   0  0  0  0  0  0
   90.9263   13.4125 -104.1283 H   0  0  0  0  0  0
   89.0252   14.9508 -103.1878 O   0  0  0  0  0  0
   87.7521   14.8176 -102.5794 C   0  0  0  0  0  0
   87.9448   14.6954 -101.1942 O   0  0  0  0  0  0
   87.0495   14.5694 -100.7835 H   0  0  0  0  0  0
   84.8814   18.1570 -102.6029 N   0  0  0  0  0  0
   85.6973   19.0320 -101.8655 N   0  0  0  0  0  0
   86.3903   18.6252 -100.9097 O   0  0  0  0  0  0
   84.0096   18.7175 -103.6272 C   0  0  0  0  0  0
  1  2  1  0  0  0
  2  3  1  0  0  0
  3  4  2  0  0  0
  3 20  1  0  0  0
  4  5  1  0  0  0
  5  6  1  0  0  0
  6  7  1  0  0  0
  6  9  1  0  0  0
  7  8  1  0  0  0
  9 10  1  0  0  0
  9 12  1  0  0  0
 10 11  1  0  0  0
 12 13  1  0  0  0
 12 16  1  0  0  0
 13 14  1  0  0  0
 14 15  1  0  0  0
 16 17  1  0  0  0
 17 18  1  0  0  0
 17  5  1  0  0  0
 18 19  1  0  0  0
 20 21  1  0  0  0
 20 23  1  0  0  0
 21 22  2  0  0  0
M  END
>  <CHROM.0>
-177.73823159,151.58519775,-66.39308444

>  <CHROM.1>
-178.88726752,-68.04252769,-63.49171575,-62.78404337,-163.83885031,-62.96156106
61.89334223,10.22535186,87.01997486,16.25426390,-103.25836731,-3.11004173
0.66787955,-0.94886728

>  <Energy>
35.06507588321634

>  <Genealogy>
CN(N=O)C(O)=NC1C(O)OC(CO)C(O)C1O (tautomer)
CN(N=O)C(O)=N[C@@H]1[C@H](O)[C@@H](O)[C@@H](CO)O[C@H]1O (chirality)
CN(N=O)/C(O)=N/[C@@H]1[C@H](O)[C@@H](O)[C@@H](CO)O[C@H]1O (cis-trans isomerization)
CN(N=O)/C(O)=N/[C@@H]1[C@H](O)[C@@H](O)[C@@H](CO)O[C@H]1O (3D coordinates assigned)
CN(N=O)/C(O)=N/[C@@H]1[C@H](O)[C@@H](O)[C@@H](CO)O[C@H]1O (nonaromatic ring conformer: 35.06507588321634 kcal/mol)

>  <Name>
5300

>  <RI>
3.62712e+07

>  <Rbt.Current_Directory>
/home/edward/Documentos/Virtual_Screening/rDock/3

>  <Rbt.Executable>
rbdock ($Id: //depot/dev/client3/rdock/2013.1/src/exe/rbdock.cxx#4 $)

>  <Rbt.Library>
libRbt.so (2013.1, Build901 2013/11/27)

>  <Rbt.Parameter_File>
/home/edward/anaconda3/envs/MD/share/rdock-2013.1-1/data/scripts/dock.prm

>  <Rbt.Receptor>
parameters.prm

>  <SCORE>
-18.8842

>  <SCORE.INTER>
-16.9213

>  <SCORE.INTER.CONST>
1

>  <SCORE.INTER.POLAR>
-3.51482

>  <SCORE.INTER.REPUL>
0.00077629

>  <SCORE.INTER.ROT>
3

>  <SCORE.INTER.VDW>
-13.3748

>  <SCORE.INTER.norm>
-0.940073

>  <SCORE.INTRA>
-3.71137

>  <SCORE.INTRA.DIHEDRAL>
-8.80555

>  <SCORE.INTRA.DIHEDRAL.0>
12.303

>  <SCORE.INTRA.POLAR>
-0.0134791

>  <SCORE.INTRA.POLAR.0>
0

>  <SCORE.INTRA.REPUL>
0

>  <SCORE.INTRA.REPUL.0>
0

>  <SCORE.INTRA.VDW>
0.73723

>  <SCORE.INTRA.VDW.0>
-2.30594

>  <SCORE.INTRA.norm>
-0.206187

>  <SCORE.RESTR>
0

>  <SCORE.RESTR.CAVITY>
0

>  <SCORE.RESTR.norm>
0

>  <SCORE.SYSTEM>
1.74848

>  <SCORE.SYSTEM.CONST>
0

>  <SCORE.SYSTEM.DIHEDRAL>
3.63473

>  <SCORE.SYSTEM.VDW>
-0.0688828

>  <SCORE.SYSTEM.norm>
0.0971378

>  <SCORE.heavy>
18

>  <SCORE.norm>
-1.04912

>  <SMILES>
CN(N=O)/C(O)=N/[C@@H]1[C@H](O)[C@@H](O)[C@@H](CO)O[C@H]1O

>  <UniqueID>
294

$$$$
899
  rDOCK(R)          3D
libRbt.so/2013.1/901 2013/11/27
 20 20  0  0  0  0  0  0  0  0999 V2000
   84.7722   12.7493 -103.1653 H   0  0  0  0  0  0
   84.5853   12.3477 -102.2545 O   0  0  0  0  0  0
   84.2962   13.1554 -101.1548 C   0  0  0  0  0  0
   84.2760   14.4497 -101.2700 N   0  0  0  0  0  0
   84.5095   15.1750 -102.5216 C   0  0  0  0  0  0
   83.6971   16.4873 -102.5421 C   0  0  0  0  0  0
   83.8955   17.2209 -101.3611 O   0  0  0  0  0  0
   83.3281   18.0320 -101.4355 H   0  0  0  0  0  0
   83.9576   17.2793 -103.6957 O   0  0  0  0  0  0
   85.3297   17.6176 -103.8763 C   0  0  0  0  0  0
   85.7901   18.7373 -102.9171 C   0  0  0  0  0  0
   84.9058   19.8261 -102.9709 O   0  0  0  0  0  0
   85.2538   20.5149 -102.3469 H   0  0  0  0  0  0
   86.2631   16.3777 -103.8797 C   0  0  0  0  0  0
   86.1373   15.6551 -105.0827 O   0  0  0  0  0  0
   86.6630   14.8180 -105.0001 H   0  0  0  0  0  0
   86.0085   15.4726 -102.6639 C   0  0  0  0  0  0
   86.7299   14.2759 -102.8163 O   0  0  0  0  0  0
   86.6126   13.7568 -101.9781 H   0  0  0  0  0  0
   84.0472   12.5319  -99.8195 C   0  0  0  0  0  0
  1  2  1  0  0  0
  2  3  1  0  0  0
  3  4  2  0  0  0
  3 20  1  0  0  0
  4  5  1  0  0  0
  5  6  1  0  0  0
  6  7  1  0  0  0
  6  9  1  0  0  0
  7  8  1  0  0  0
  9 10  1  0  0  0
 10 11  1  0  0  0
 10 14  1  0  0  0
 11 12  1  0  0  0
 12 13  1  0  0  0
 14 15  1  0  0  0
 14 17  1  0  0  0
 15 16  1  0  0  0
 17 18  1  0  0  0
 17  5  1  0  0  0
 18 19  1  0  0  0
M  END
>  <CHROM.0>
-179.97530018,153.13897920,-66.59029657

>  <CHROM.1>
-0.85242617,148.51743776,-178.53003662,-50.48135550,-179.37991890,-173.24705536
-63.76766066,84.97154240,15.79494254,-102.60552023,-1.72121391,0.88585481
-0.24435079

>  <Energy>
32.06582522986338

>  <Genealogy>
CC(O)=NC1C(O)OC(CO)C(O)C1O (tautomer)
CC(O)=N[C@H]1[C@@H](O)O[C@@H](CO)[C@H](O)[C@@H]1O (chirality)
C/C(O)=N\[C@H]1[C@@H](O)O[C@@H](CO)[C@H](O)[C@@H]1O (cis-trans isomerization)
C/C(O)=N\[C@H]1[C@@H](O)O[C@@H](CO)[C@H](O)[C@@H]1O (3D coordinates assigned)
C/C(O)=N\[C@H]1[C@@H](O)O[C@@H](CO)[C@H](O)[C@@H]1O (nonaromatic ring conformer: 32.06582522986338 kcal/mol)

>  <Name>
899

>  <RI>
3.62712e+07

>  <Rbt.Current_Directory>
/home/edward/Documentos/Virtual_Screening/rDock/3

>  <Rbt.Executable>
rbdock ($Id: //depot/dev/client3/rdock/2013.1/src/exe/rbdock.cxx#4 $)

>  <Rbt.Library>
libRbt.so (2013.1, Build901 2013/11/27)

>  <Rbt.Parameter_File>
/home/edward/anaconda3/envs/MD/share/rdock-2013.1-1/data/scripts/dock.prm

>  <Rbt.Receptor>
parameters.prm

>  <SCORE>
-17.1596

>  <SCORE.INTER>
-14.185

>  <SCORE.INTER.CONST>
1

>  <SCORE.INTER.POLAR>
-2.68524

>  <SCORE.INTER.REPUL>
0.00377346

>  <SCORE.INTER.ROT>
2

>  <SCORE.INTER.VDW>
-12.474

>  <SCORE.INTER.norm>
-0.945666

>  <SCORE.INTRA>
-4.70951

>  <SCORE.INTRA.DIHEDRAL>
-8.44047

>  <SCORE.INTRA.DIHEDRAL.0>
10.634

>  <SCORE.INTRA.POLAR>
-0.105796

>  <SCORE.INTRA.POLAR.0>
0

>  <SCORE.INTRA.REPUL>
0

>  <SCORE.INTRA.REPUL.0>
0

>  <SCORE.INTRA.VDW>
-0.129573

>  <SCORE.INTRA.VDW.0>
-1.50935

>  <SCORE.INTRA.norm>
-0.313968

>  <SCORE.RESTR>
0

>  <SCORE.RESTR.CAVITY>
0

>  <SCORE.RESTR.norm>
0

>  <SCORE.SYSTEM>
1.73492

>  <SCORE.SYSTEM.CONST>
0

>  <SCORE.SYSTEM.DIHEDRAL>
3.3176

>  <SCORE.SYSTEM.VDW>
0.0761252

>  <SCORE.SYSTEM.norm>
0.115662

>  <SCORE.heavy>
15

>  <SCORE.norm>
-1.14397

>  <SMILES>
C/C(O)=N\[C@H]1[C@@H](O)O[C@@H](CO)[C@H](O)[C@@H]1O

>  <UniqueID>
297

$$$$
739
  rDOCK(R)          3D
libRbt.so/2013.1/901 2013/11/27
 18 18  0  0  0  0  0  0  0  0999 V2000
   89.0094   14.5360 -105.1135 N   0  0  0  0  0  0
   88.7791   15.4892 -104.0221 C   0  0  0  0  0  0
   88.2799   14.7671 -102.7435 C   0  0  0  0  0  0
   88.3963   15.5949 -101.6115 O   0  0  0  0  0  0
   86.9455   14.3054 -102.8903 O   0  0  0  0  0  0
   86.0405   15.3781 -103.1021 C   0  0  0  0  0  0
   84.6096   14.8210 -103.0535 C   0  0  0  0  0  0
   84.3512   14.2149 -101.8146 O   0  0  0  0  0  0
   86.3342   16.0865 -104.4449 C   0  0  0  0  0  0
   86.1033   15.2062 -105.5160 O   0  0  0  0  0  0
   87.7907   16.5908 -104.4681 C   0  0  0  0  0  0
   87.9004   17.7041 -103.6166 O   0  0  0  0  0  0
   89.3075   15.0707 -105.9619 H   0  0  0  0  0  0
   89.7995   13.8960 -104.8712 H   0  0  0  0  0  0
   87.9589   16.4570 -101.8379 H   0  0  0  0  0  0
   84.4063   14.9286 -101.1270 H   0  0  0  0  0  0
   86.7823   14.4852 -105.4478 H   0  0  0  0  0  0
   88.7747   18.1327 -103.8114 H   0  0  0  0  0  0
  1  2  1  0  0  0
  1 13  1  0  0  0
  1 14  1  0  0  0
  2  3  1  0  0  0
  3  4  1  0  0  0
  3  5  1  0  0  0
  4 15  1  0  0  0
  5  6  1  0  0  0
  6  7  1  0  0  0
  6  9  1  0  0  0
  7  8  1  0  0  0
  8 16  1  0  0  0
  9 10  1  0  0  0
  9 11  1  0  0  0
 10 17  1  0  0  0
 11 12  1  0  0  0
 11  2  1  0  0  0
 12 18  1  0  0  0
M  END
>  <CHROM.0>
179.66707975,153.22738744,-65.06038775

>  <CHROM.1>
177.81770837,51.42419262,59.28565709,63.84449971,-66.23861228,70.65741742
87.04348139,15.38792875,-103.51266245,0.46292748,-0.25742293,-1.38116178

>  <Energy>
25.50597409867819

>  <Genealogy>
N[C@@H]1[C@@H](O)O[C@H](CO)[C@H](O)[C@H]1O (chirality)
N[C@@H]1[C@@H](O)O[C@H](CO)[C@H](O)[C@H]1O (3D coordinates assigned)
N[C@@H]1[C@@H](O)O[C@H](CO)[C@H](O)[C@H]1O (nonaromatic ring conformer: 25.50597409867819 kcal/mol)

>  <Name>
739

>  <RI>
3.62712e+07

>  <Rbt.Current_Directory>
/home/edward/Documentos/Virtual_Screening/rDock/3

>  <Rbt.Executable>
rbdock ($Id: //depot/dev/client3/rdock/2013.1/src/exe/rbdock.cxx#4 $)

>  <Rbt.Library>
libRbt.so (2013.1, Build901 2013/11/27)

>  <Rbt.Parameter_File>
/home/edward/anaconda3/envs/MD/share/rdock-2013.1-1/data/scripts/dock.prm

>  <Rbt.Receptor>
parameters.prm

>  <SCORE>
-16.4716

>  <SCORE.INTER>
-12.2667

>  <SCORE.INTER.CONST>
1

>  <SCORE.INTER.POLAR>
-3.36454

>  <SCORE.INTER.REPUL>
0

>  <SCORE.INTER.ROT>
2

>  <SCORE.INTER.VDW>
-8.22729

>  <SCORE.INTER.norm>
-1.02223

>  <SCORE.INTRA>
-5.94476

>  <SCORE.INTRA.DIHEDRAL>
-6.5704

>  <SCORE.INTRA.DIHEDRAL.0>
7.89198

>  <SCORE.INTRA.POLAR>
-0.985193

>  <SCORE.INTRA.POLAR.0>
0

>  <SCORE.INTRA.REPUL>
0

>  <SCORE.INTRA.REPUL.0>
0

>  <SCORE.INTRA.VDW>
0.690095

>  <SCORE.INTRA.VDW.0>
-1.04344

>  <SCORE.INTRA.norm>
-0.495397

>  <SCORE.RESTR>
0

>  <SCORE.RESTR.CAVITY>
0

>  <SCORE.RESTR.norm>
0

>  <SCORE.SYSTEM>
1.73989

>  <SCORE.SYSTEM.CONST>
0

>  <SCORE.SYSTEM.DIHEDRAL>
3.32266

>  <SCORE.SYSTEM.VDW>
0.0785576

>  <SCORE.SYSTEM.norm>
0.144991

>  <SCORE.heavy>
12

>  <SCORE.norm>
-1.37263

>  <SMILES>
N[C@@H]1[C@@H](O)O[C@H](CO)[C@H](O)[C@H]1O

>  <UniqueID>
300

$$$$
ZINC000001471333
  rDOCK(R)          3D
libRbt.so/2013.1/901 2013/11/27
 26 27  0  0  0  0  0  0  0  0999 V2000
   92.6920   19.7556 -105.2438 H   0  0  0  0  0  0
   92.2332   19.8827 -106.1379 O   0  0  0  0  0  0
   90.8488   19.7685 -106.2618 C   0  0  0  0  0  0
   90.1104   19.5070 -105.2251 N   0  0  0  0  0  0
   90.6321   19.2794 -103.8754 C   0  0  0  0  0  0
   90.1469   20.4015 -102.9413 C   0  0  0  0  0  0
   90.6352   21.6499 -103.4312 O   0  0  0  0  0  0
   90.1810   22.2872 -104.5963 C   0  0  0  0  0  0
   88.8158   22.2217 -104.8981 C   0  0  0  0  0  0
   88.3107   22.8396 -106.0458 C   0  0  0  0  0  0
   89.1666   23.5464 -106.9030 C   0  0  0  0  0  0
   88.6320   24.1756 -108.1552 C   0  0  0  0  0  0
   90.5380   23.6015 -106.6137 C   0  0  0  0  0  0
   91.0433   22.9836 -105.4657 C   0  0  0  0  0  0
   90.6484   20.1945 -101.6321 O   0  0  0  0  0  0
   90.0904   19.0232 -101.0605 C   0  0  0  0  0  0
   90.5318   18.9620  -99.5887 C   0  0  0  0  0  0
   91.8967   19.2551  -99.4538 O   0  0  0  0  0  0
   92.0841   20.0228 -100.0549 H   0  0  0  0  0  0
   90.5613   17.7752 -101.8509 C   0  0  0  0  0  0
   89.9844   16.6057 -101.3247 O   0  0  0  0  0  0
   89.0030   16.6749 -101.4584 H   0  0  0  0  0  0
   90.1668   17.9130 -103.3338 C   0  0  0  0  0  0
   88.7721   17.7955 -103.4825 O   0  0  0  0  0  0
   88.5732   17.8918 -104.4503 H   0  0  0  0  0  0
   90.2001   19.9887 -107.5901 C   0  0  0  0  0  0
  1  2  1  0  0  0
  2  3  1  0  0  0
  3  4  2  0  0  0
  3 26  1  0  0  0
  4  5  1  0  0  0
  5  6  1  0  0  0
  6  7  1  0  0  0
  6 15  1  0  0  0
  7  8  1  0  0  0
  8  9  2  0  0  0
  9 10  1  0  0  0
 10 11  2  0  0  0
 11 12  1  0  0  0
 11 13  1  0  0  0
 13 14  2  0  0  0
 14  8  1  0  0  0
 15 16  1  0  0  0
 16 17  1  0  0  0
 16 20  1  0  0  0
 17 18  1  0  0  0
 18 19  1  0  0  0
 20 21  1  0  0  0
 20 23  1  0  0  0
 21 22  1  0  0  0
 23 24  1  0  0  0
 23  5  1  0  0  0
 24 25  1  0  0  0
M  END
>  <CHROM.0>
-179.76656888,151.89203165,-68.46596512

>  <CHROM.1>
0.63858896,114.96827198,70.87080288,37.81137119,-44.94636539,42.29544870
63.90033307,58.79425390,90.21479640,20.34522787,-104.00194779,2.77257907
-1.44463795,0.28502577

>  <Energy>
38.672288406561556

>  <Genealogy>
CC(O)=N[C@H]1[C@H](Oc2ccc(C)cc2)O[C@H](CO)[C@@H](O)[C@H]1O (tautomer)
C/C(O)=N/[C@H]1[C@H](Oc2ccc(C)cc2)O[C@H](CO)[C@@H](O)[C@H]1O (cis-trans isomerization)
C/C(O)=N/[C@H]1[C@H](Oc2ccc(C)cc2)O[C@H](CO)[C@@H](O)[C@H]1O (3D coordinates assigned)
C/C(O)=N/[C@H]1[C@H](Oc2ccc(C)cc2)O[C@H](CO)[C@@H](O)[C@H]1O (nonaromatic ring conformer: 38.672288406561556 kcal/mol)

>  <Name>
ZINC000001471333

>  <RI>
3.62712e+07

>  <Rbt.Current_Directory>
/home/edward/Documentos/Virtual_Screening/rDock/3

>  <Rbt.Executable>
rbdock ($Id: //depot/dev/client3/rdock/2013.1/src/exe/rbdock.cxx#4 $)

>  <Rbt.Library>
libRbt.so (2013.1, Build901 2013/11/27)

>  <Rbt.Parameter_File>
/home/edward/anaconda3/envs/MD/share/rdock-2013.1-1/data/scripts/dock.prm

>  <Rbt.Receptor>
parameters.prm

>  <SCORE>
-20.8475

>  <SCORE.INTER>
-16.893

>  <SCORE.INTER.CONST>
1

>  <SCORE.INTER.POLAR>
-2.55611

>  <SCORE.INTER.REPUL>
0

>  <SCORE.INTER.ROT>
4

>  <SCORE.INTER.VDW>
-17.6023

>  <SCORE.INTER.norm>
-0.767866

>  <SCORE.INTRA>
-5.70833

>  <SCORE.INTRA.DIHEDRAL>
-6.78067

>  <SCORE.INTRA.DIHEDRAL.0>
11.5102

>  <SCORE.INTRA.POLAR>
-0.343275

>  <SCORE.INTRA.POLAR.0>
0

>  <SCORE.INTRA.REPUL>
0

>  <SCORE.INTRA.REPUL.0>
0

>  <SCORE.INTRA.VDW>
-1.15086

>  <SCORE.INTRA.VDW.0>
-1.90203

>  <SCORE.INTRA.norm>
-0.25947

>  <SCORE.RESTR>
0

>  <SCORE.RESTR.CAVITY>
0

>  <SCORE.RESTR.norm>
0

>  <SCORE.SYSTEM>
1.75392

>  <SCORE.SYSTEM.CONST>
0

>  <SCORE.SYSTEM.DIHEDRAL>
3.53763

>  <SCORE.SYSTEM.VDW>
-0.0149013

>  <SCORE.SYSTEM.norm>
0.0797234

>  <SCORE.heavy>
22

>  <SCORE.norm>
-0.947612

>  <SMILES>
C/C(O)=N/[C@H]1[C@H](Oc2ccc(C)cc2)O[C@H](CO)[C@@H](O)[C@H]1O

>  <UniqueID>
301

$$$$
ZINC000003956714
  rDOCK(R)          3D
libRbt.so/2013.1/901 2013/11/27
 26 27  0  0  0  0  0  0  0  0999 V2000
   91.6505   12.5884 -105.8593 H   0  0  0  0  0  0
   90.9997   13.2004 -105.3818 O   0  0  0  0  0  0
   91.1058   14.5873 -105.4832 C   0  0  0  0  0  0
   90.2752   15.3631 -104.8534 N   0  0  0  0  0  0
   89.1600   14.8884 -104.0307 C   0  0  0  0  0  0
   89.3923   15.2958 -102.5609 C   0  0  0  0  0  0
   89.6098   16.6982 -102.4598 O   0  0  0  0  0  0
   90.1484   17.0549 -101.1987 C   0  0  0  0  0  0
   90.2978   18.5479 -101.0758 C   0  0  0  0  0  0
   90.3740   19.1451  -99.8070 C   0  0  0  0  0  0
   90.5545   20.5266  -99.6889 C   0  0  0  0  0  0
   90.6588   21.3198 -100.8349 C   0  0  0  0  0  0
   90.5845   20.7325 -102.1009 C   0  0  0  0  0  0
   90.4070   19.3509 -102.2233 C   0  0  0  0  0  0
   88.3091   14.8750 -101.7429 O   0  0  0  0  0  0
   87.0854   15.4903 -102.1193 C   0  0  0  0  0  0
   86.0179   15.0673 -101.0993 C   0  0  0  0  0  0
   84.8358   15.8025 -101.2795 O   0  0  0  0  0  0
   84.5522   15.6756 -102.2220 H   0  0  0  0  0  0
   86.6943   15.0730 -103.5619 C   0  0  0  0  0  0
   85.4722   15.6393 -103.9689 O   0  0  0  0  0  0
   85.2476   15.2724 -104.8633 H   0  0  0  0  0  0
   87.8184   15.4399 -104.5504 C   0  0  0  0  0  0
   87.9072   16.8357 -104.7077 O   0  0  0  0  0  0
   88.4173   17.0042 -105.5426 H   0  0  0  0  0  0
   92.2091   15.1917 -106.2901 C   0  0  0  0  0  0
  1  2  1  0  0  0
  2  3  1  0  0  0
  3  4  2  0  0  0
  3 26  1  0  0  0
  4  5  1  0  0  0
  5  6  1  0  0  0
  6  7  1  0  0  0
  6 15  1  0  0  0
  7  8  1  0  0  0
  8  9  1  0  0  0
  9 10  2  0  0  0
 10 11  1  0  0  0
 11 12  2  0  0  0
 12 13  1  0  0  0
 13 14  2  0  0  0
 14  9  1  0  0  0
 15 16  1  0  0  0
 16 17  1  0  0  0
 16 20  1  0  0  0
 17 18  1  0  0  0
 18 19  1  0  0  0
 20 21  1  0  0  0
 20 23  1  0  0  0
 21 22  1  0  0  0
 23 24  1  0  0  0
 23  5  1  0  0  0
 24 25  1  0  0  0
M  END
>  <CHROM.0>
-177.24040085,154.21721650,53.91517736

>  <CHROM.1>
-179.16959555,115.43794560,-165.37789408,-176.67303460,158.52736051,170.54623207
55.78285819,-175.31219829,76.99316554,89.00244204,16.54071047,-102.84087393
-1.87256178,0.38383423,0.71415077

>  <Energy>
43.97235051542483

>  <Genealogy>
CC(O)=N[C@H]1[C@@H](OCc2ccccc2)O[C@H](CO)[C@@H](O)[C@H]1O (tautomer)
C/C(O)=N\[C@H]1[C@@H](OCc2ccccc2)O[C@H](CO)[C@@H](O)[C@H]1O (cis-trans isomerization)
C/C(O)=N\[C@H]1[C@@H](OCc2ccccc2)O[C@H](CO)[C@@H](O)[C@H]1O (3D coordinates assigned)
C/C(O)=N\[C@H]1[C@@H](OCc2ccccc2)O[C@H](CO)[C@@H](O)[C@H]1O (nonaromatic ring conformer: 43.97235051542483 kcal/mol)

>  <Name>
ZINC000003956714

>  <RI>
3.62712e+07

>  <Rbt.Current_Directory>
/home/edward/Documentos/Virtual_Screening/rDock/3

>  <Rbt.Executable>
rbdock ($Id: //depot/dev/client3/rdock/2013.1/src/exe/rbdock.cxx#4 $)

>  <Rbt.Library>
libRbt.so (2013.1, Build901 2013/11/27)

>  <Rbt.Parameter_File>
/home/edward/anaconda3/envs/MD/share/rdock-2013.1-1/data/scripts/dock.prm

>  <Rbt.Receptor>
parameters.prm

>  <SCORE>
-17.5486

>  <SCORE.INTER>
-12.2525

>  <SCORE.INTER.CONST>
1

>  <SCORE.INTER.POLAR>
-0.707324

>  <SCORE.INTER.REPUL>
0

>  <SCORE.INTER.ROT>
5

>  <SCORE.INTER.VDW>
-20.2476

>  <SCORE.INTER.norm>
-0.556933

>  <SCORE.INTRA>
-7.71283

>  <SCORE.INTRA.DIHEDRAL>
-14.4415

>  <SCORE.INTRA.DIHEDRAL.0>
18.2412

>  <SCORE.INTRA.POLAR>
-0.703751

>  <SCORE.INTRA.POLAR.0>
0

>  <SCORE.INTRA.REPUL>
-0.0977273

>  <SCORE.INTRA.REPUL.0>
0.0977273

>  <SCORE.INTRA.VDW>
2.38931

>  <SCORE.INTRA.VDW.0>
-3.96098

>  <SCORE.INTRA.norm>
-0.350583

>  <SCORE.RESTR>
0

>  <SCORE.RESTR.CAVITY>
0

>  <SCORE.RESTR.norm>
0

>  <SCORE.SYSTEM>
2.41676

>  <SCORE.SYSTEM.CONST>
0

>  <SCORE.SYSTEM.DIHEDRAL>
3.16206

>  <SCORE.SYSTEM.VDW>
0.835733

>  <SCORE.SYSTEM.norm>
0.109853

>  <SCORE.heavy>
22

>  <SCORE.norm>
-0.797664

>  <SMILES>
C/C(O)=N\[C@H]1[C@@H](OCc2ccccc2)O[C@H](CO)[C@@H](O)[C@H]1O

>  <UniqueID>
305

$$$$
ZINC000004027857
  rDOCK(R)          3D
libRbt.so/2013.1/901 2013/11/27
 25 27  0  0  0  0  0  0  0  0999 V2000
   91.2674   17.5053 -105.1036 C   0  0  0  0  0  0
   90.1749   17.2064 -104.1297 C   0  0  0  0  0  0
   90.4368   17.1539 -102.8975 O   0  0  0  0  0  0
   88.8316   17.0204 -104.5968 N   0  0  0  0  0  0
   87.7228   16.6984 -103.6906 C   0  0  0  0  0  0
   87.1132   15.3264 -104.0520 C   0  0  0  0  0  0
   86.7957   15.2919 -105.4222 O   0  0  0  0  0  0
   85.8551   15.0929 -103.2007 C   0  0  0  0  0  0
   85.2000   13.9035 -103.5975 O   0  0  0  0  0  0
   84.0219   13.6783 -102.8263 C   0  0  0  0  0  0
   84.3056   13.2257 -101.3998 C   0  0  0  0  0  0
   83.3243   12.5402 -100.6583 C   0  0  0  0  0  0
   83.6055   12.0746  -99.3703 C   0  0  0  0  0  0
   84.8747   12.2622  -98.8188 C   0  0  0  0  0  0
   85.8690   12.9047  -99.5593 C   0  0  0  0  0  0
   85.5928   13.3718 -100.8478 C   0  0  0  0  0  0
   83.1006   14.7641 -102.9069 O   0  0  0  0  0  0
   83.6879   15.9864 -102.5030 C   0  0  0  0  0  0
   84.9147   16.2904 -103.3483 C   0  0  0  0  0  0
   85.5455   17.4722 -102.8900 O   0  0  0  0  0  0
   86.6352   17.8004 -103.7402 C   0  0  0  0  0  0
   87.1970   19.0098 -103.3079 O   0  0  0  0  0  0
   88.6433   17.1429 -105.6181 H   0  0  0  0  0  0
   86.5064   14.3652 -105.6291 H   0  0  0  0  0  0
   87.9112   19.2361 -103.9592 H   0  0  0  0  0  0
  1  2  1  0  0  0
  2  3  2  0  0  0
  2  4  1  0  0  0
  4  5  1  0  0  0
  4 23  1  0  0  0
  5  6  1  0  0  0
  6  7  1  0  0  0
  6  8  1  0  0  0
  7 24  1  0  0  0
  8  9  1  0  0  0
  9 10  1  0  0  0
 10 11  1  0  0  0
 10 17  1  0  0  0
 11 12  2  0  0  0
 12 13  1  0  0  0
 13 14  2  0  0  0
 14 15  1  0  0  0
 15 16  2  0  0  0
 16 11  1  0  0  0
 17 18  1  0  0  0
 18 19  1  0  0  0
 19 20  1  0  0  0
 19  8  1  0  0  0
 20 21  1  0  0  0
 21 22  1  0  0  0
 21  5  1  0  0  0
 22 25  1  0  0  0
M  END
>  <CHROM.0>
-179.84282615,153.76833291,-66.41725922

>  <CHROM.1>
-118.23457835,173.68615559,-158.46517685,62.93562773,86.23757155,15.39344433
-102.76787340,-0.83497714,0.11478957,2.36256345

>  <Energy>
50.601230536177916

>  <Genealogy>
CC(=O)N[C@@H]1[C@H](O)[C@@H]2O[C@@H](c3ccccc3)OC[C@H]2O[C@H]1O (3D coordinates assigned)
CC(=O)N[C@@H]1[C@H](O)[C@@H]2O[C@@H](c3ccccc3)OC[C@H]2O[C@H]1O (nonaromatic ring conformer: 50.601230536177916 kcal/mol)

>  <Name>
ZINC000004027857

>  <RI>
3.62712e+07

>  <Rbt.Current_Directory>
/home/edward/Documentos/Virtual_Screening/rDock/3

>  <Rbt.Executable>
rbdock ($Id: //depot/dev/client3/rdock/2013.1/src/exe/rbdock.cxx#4 $)

>  <Rbt.Library>
libRbt.so (2013.1, Build901 2013/11/27)

>  <Rbt.Parameter_File>
/home/edward/anaconda3/envs/MD/share/rdock-2013.1-1/data/scripts/dock.prm

>  <Rbt.Receptor>
parameters.prm

>  <SCORE>
-17.091

>  <SCORE.INTER>
-17.8285

>  <SCORE.INTER.CONST>
1

>  <SCORE.INTER.POLAR>
-2.55916

>  <SCORE.INTER.REPUL>
0.334914

>  <SCORE.INTER.ROT>
2

>  <SCORE.INTER.VDW>
-18.2019

>  <SCORE.INTER.norm>
-0.810386

>  <SCORE.INTRA>
-0.994761

>  <SCORE.INTRA.DIHEDRAL>
-2.39508

>  <SCORE.INTRA.DIHEDRAL.0>
4.4758

>  <SCORE.INTRA.POLAR>
0

>  <SCORE.INTRA.POLAR.0>
0

>  <SCORE.INTRA.REPUL>
0

>  <SCORE.INTRA.REPUL.0>
0

>  <SCORE.INTRA.VDW>
0.202781

>  <SCORE.INTRA.VDW.0>
-1.77265

>  <SCORE.INTRA.norm>
-0.0452164

>  <SCORE.RESTR>
0

>  <SCORE.RESTR.CAVITY>
0

>  <SCORE.RESTR.norm>
0

>  <SCORE.SYSTEM>
1.73231

>  <SCORE.SYSTEM.CONST>
0

>  <SCORE.SYSTEM.DIHEDRAL>
3.20323

>  <SCORE.SYSTEM.VDW>
0.130692

>  <SCORE.SYSTEM.norm>
0.0787413

>  <SCORE.heavy>
22

>  <SCORE.norm>
-0.776861

>  <SMILES>
CC(=O)N[C@@H]1[C@H](O)[C@@H]2O[C@@H](c3ccccc3)OC[C@H]2O[C@H]1O

>  <UniqueID>
307

$$$$
ZINC000004027859
  rDOCK(R)          3D
libRbt.so/2013.1/901 2013/11/27
 25 27  0  0  0  0  0  0  0  0999 V2000
   87.2439   27.2263 -102.3623 H   0  0  0  0  0  0
   86.3307   27.5086 -102.6977 O   0  0  0  0  0  0
   85.2231   26.6716 -102.5673 C   0  0  0  0  0  0
   85.3305   25.5113 -101.9917 N   0  0  0  0  0  0
   86.5686   24.9681 -101.4267 C   0  0  0  0  0  0
   87.3032   24.1352 -102.5018 C   0  0  0  0  0  0
   86.4349   23.1927 -103.0838 O   0  0  0  0  0  0
   86.9665   22.6770 -103.7447 H   0  0  0  0  0  0
   88.4869   23.4146 -101.8468 C   0  0  0  0  0  0
   89.1191   22.5417 -102.7536 O   0  0  0  0  0  0
   90.2736   21.9375 -102.1659 C   0  0  0  0  0  0
   90.3718   20.4775 -102.5508 C   0  0  0  0  0  0
   90.5529   19.5064 -101.5507 C   0  0  0  0  0  0
   90.6099   18.1496 -101.8841 C   0  0  0  0  0  0
   90.4736   17.7489 -103.2154 C   0  0  0  0  0  0
   90.2763   18.7041 -104.2156 C   0  0  0  0  0  0
   90.2198   20.0620 -103.8876 C   0  0  0  0  0  0
   90.3819   22.0910 -100.7484 O   0  0  0  0  0  0
   89.1644   21.7946 -100.0861 C   0  0  0  0  0  0
   87.9848   22.6035 -100.6508 C   0  0  0  0  0  0
   87.4430   23.4736  -99.6737 O   0  0  0  0  0  0
   86.2643   24.0946 -100.1759 C   0  0  0  0  0  0
   85.6917   24.8776  -99.1628 O   0  0  0  0  0  0
   85.4896   24.2698  -98.4039 H   0  0  0  0  0  0
   83.8905   27.1202 -103.0741 C   0  0  0  0  0  0
  1  2  1  0  0  0
  2  3  1  0  0  0
  3  4  2  0  0  0
  3 25  1  0  0  0
  4  5  1  0  0  0
  5  6  1  0  0  0
  6  7  1  0  0  0
  6  9  1  0  0  0
  7  8  1  0  0  0
  9 10  1  0  0  0
 10 11  1  0  0  0
 11 12  1  0  0  0
 11 18  1  0  0  0
 12 13  2  0  0  0
 13 14  1  0  0  0
 14 15  2  0  0  0
 15 16  1  0  0  0
 16 17  2  0  0  0
 17 12  1  0  0  0
 18 19  1  0  0  0
 19 20  1  0  0  0
 20 21  1  0  0  0
 20  9  1  0  0  0
 21 22  1  0  0  0
 22 23  1  0  0  0
 22  5  1  0  0  0
 23 24  1  0  0  0
M  END
>  <CHROM.0>
79.01168499,153.04745422,-61.27945318

>  <CHROM.1>
1.04543965,-91.62293544,-178.59725134,-129.13570018,178.10421679,88.03157458
22.87093816,-101.86692885,2.99969490,-0.92728491,1.50575173

>  <Energy>
56.9593281129587

>  <Genealogy>
CC(O)=N[C@@H]1[C@H](O)[C@@H]2O[C@H](c3ccccc3)OC[C@H]2O[C@H]1O (tautomer)
C/C(O)=N\[C@@H]1[C@H](O)[C@@H]2O[C@H](c3ccccc3)OC[C@H]2O[C@H]1O (cis-trans isomerization)
C/C(O)=N\[C@@H]1[C@H](O)[C@@H]2O[C@H](c3ccccc3)OC[C@H]2O[C@H]1O (3D coordinates assigned)
C/C(O)=N\[C@@H]1[C@H](O)[C@@H]2O[C@H](c3ccccc3)OC[C@H]2O[C@H]1O (nonaromatic ring conformer: 56.9593281129587 kcal/mol)

>  <Name>
ZINC000004027859

>  <RI>
3.62712e+07

>  <Rbt.Current_Directory>
/home/edward/Documentos/Virtual_Screening/rDock/3

>  <Rbt.Executable>
rbdock ($Id: //depot/dev/client3/rdock/2013.1/src/exe/rbdock.cxx#4 $)

>  <Rbt.Library>
libRbt.so (2013.1, Build901 2013/11/27)

>  <Rbt.Parameter_File>
/home/edward/anaconda3/envs/MD/share/rdock-2013.1-1/data/scripts/dock.prm

>  <Rbt.Receptor>
parameters.prm

>  <SCORE>
-15.1567

>  <SCORE.INTER>
-17.5744

>  <SCORE.INTER.CONST>
1

>  <SCORE.INTER.POLAR>
-2.57214

>  <SCORE.INTER.REPUL>
0

>  <SCORE.INTER.ROT>
2

>  <SCORE.INTER.VDW>
-16.2291

>  <SCORE.INTER.norm>
-0.798835

>  <SCORE.INTRA>
-0.769637

>  <SCORE.INTRA.DIHEDRAL>
-3.64561

>  <SCORE.INTRA.DIHEDRAL.0>
5.4916

>  <SCORE.INTRA.POLAR>
-0.0268527

>  <SCORE.INTRA.POLAR.0>
0

>  <SCORE.INTRA.REPUL>
0

>  <SCORE.INTRA.REPUL.0>
0

>  <SCORE.INTRA.VDW>
1.14447

>  <SCORE.INTRA.VDW.0>
-1.97228

>  <SCORE.INTRA.norm>
-0.0349835

>  <SCORE.RESTR>
0

>  <SCORE.RESTR.CAVITY>
0

>  <SCORE.RESTR.norm>
0

>  <SCORE.SYSTEM>
3.18735

>  <SCORE.SYSTEM.CONST>
0

>  <SCORE.SYSTEM.DIHEDRAL>
5.08845

>  <SCORE.SYSTEM.VDW>
0.643126

>  <SCORE.SYSTEM.norm>
0.144879

>  <SCORE.heavy>
22

>  <SCORE.norm>
-0.688939

>  <SMILES>
C/C(O)=N\[C@@H]1[C@H](O)[C@@H]2O[C@H](c3ccccc3)OC[C@H]2O[C@H]1O

>  <UniqueID>
312

$$$$
ZINC000012364260
  rDOCK(R)          3D
libRbt.so/2013.1/901 2013/11/27
 25 27  0  0  0  0  0  0  0  0999 V2000
   84.5423   13.1223 -104.3263 H   0  0  0  0  0  0
   84.4930   13.5120 -103.3922 O   0  0  0  0  0  0
   85.5258   14.2946 -102.8838 C   0  0  0  0  0  0
   86.5638   14.5377 -103.6339 N   0  0  0  0  0  0
   87.7512   15.3176 -103.2674 C   0  0  0  0  0  0
   89.0246   14.7135 -103.9136 C   0  0  0  0  0  0
   88.8414   14.5143 -105.2936 O   0  0  0  0  0  0
   88.5681   15.3915 -105.6694 H   0  0  0  0  0  0
   90.1739   15.5137 -103.6602 O   0  0  0  0  0  0
   90.0084   16.8203 -104.1844 C   0  0  0  0  0  0
   91.2660   17.6416 -103.9462 C   0  0  0  0  0  0
   91.0840   18.9685 -104.4025 O   0  0  0  0  0  0
   89.9712   19.5995 -103.7725 C   0  0  0  0  0  0
   90.2328   19.9900 -102.3235 C   0  0  0  0  0  0
   90.1074   21.3309 -101.9123 C   0  0  0  0  0  0
   90.4027   21.6996 -100.5964 C   0  0  0  0  0  0
   90.8531   20.7425  -99.6849 C   0  0  0  0  0  0
   91.0206   19.4169 -100.0909 C   0  0  0  0  0  0
   90.7264   19.0432 -101.4056 C   0  0  0  0  0  0
   88.7570   18.8754 -103.9572 O   0  0  0  0  0  0
   88.8684   17.5507 -103.4731 C   0  0  0  0  0  0
   87.5572   16.7841 -103.6992 C   0  0  0  0  0  0
   87.1742   16.8442 -105.0517 O   0  0  0  0  0  0
   87.1173   17.8053 -105.2939 H   0  0  0  0  0  0
   85.3842   14.8458 -101.4948 C   0  0  0  0  0  0
  1  2  1  0  0  0
  2  3  1  0  0  0
  3  4  2  0  0  0
  3 25  1  0  0  0
  4  5  1  0  0  0
  5  6  1  0  0  0
  6  7  1  0  0  0
  6  9  1  0  0  0
  7  8  1  0  0  0
  9 10  1  0  0  0
 10 11  1  0  0  0
 11 12  1  0  0  0
 12 13  1  0  0  0
 13 14  1  0  0  0
 13 20  1  0  0  0
 14 15  2  0  0  0
 15 16  1  0  0  0
 16 17  2  0  0  0
 17 18  1  0  0  0
 18 19  2  0  0  0
 19 14  1  0  0  0
 20 21  1  0  0  0
 21 22  1  0  0  0
 21 10  1  0  0  0
 22 23  1  0  0  0
 22  5  1  0  0  0
 23 24  1  0  0  0
M  END
>  <CHROM.0>
-75.13405728,151.55320366,51.75013855

>  <CHROM.1>
0.76976494,144.47424501,55.04355322,121.88733636,-176.58654581,88.83464001
17.28779690,-103.09481311,2.34940042,-0.61630859,-2.29815929

>  <Energy>
55.1745251771166

>  <Genealogy>
CC(O)=N[C@H]1[C@@H](O)O[C@@H]2CO[C@H](c3ccccc3)O[C@H]2[C@H]1O (tautomer)
C/C(O)=N/[C@H]1[C@@H](O)O[C@@H]2CO[C@H](c3ccccc3)O[C@H]2[C@H]1O (cis-trans isomerization)
C/C(O)=N/[C@H]1[C@@H](O)O[C@@H]2CO[C@H](c3ccccc3)O[C@H]2[C@H]1O (3D coordinates assigned)
C/C(O)=N/[C@H]1[C@@H](O)O[C@@H]2CO[C@H](c3ccccc3)O[C@H]2[C@H]1O (nonaromatic ring conformer: 55.1745251771166 kcal/mol)

>  <Name>
ZINC000012364260

>  <RI>
3.62712e+07

>  <Rbt.Current_Directory>
/home/edward/Documentos/Virtual_Screening/rDock/3

>  <Rbt.Executable>
rbdock ($Id: //depot/dev/client3/rdock/2013.1/src/exe/rbdock.cxx#4 $)

>  <Rbt.Library>
libRbt.so (2013.1, Build901 2013/11/27)

>  <Rbt.Parameter_File>
/home/edward/anaconda3/envs/MD/share/rdock-2013.1-1/data/scripts/dock.prm

>  <Rbt.Receptor>
parameters.prm

>  <SCORE>
-16.9458

>  <SCORE.INTER>
-18.0751

>  <SCORE.INTER.CONST>
1

>  <SCORE.INTER.POLAR>
-3.04072

>  <SCORE.INTER.REPUL>
0.161448

>  <SCORE.INTER.ROT>
2

>  <SCORE.INTER.VDW>
-15.9438

>  <SCORE.INTER.norm>
-0.821594

>  <SCORE.INTRA>
-2.7595

>  <SCORE.INTRA.DIHEDRAL>
-2.80082

>  <SCORE.INTRA.DIHEDRAL.0>
4.61086

>  <SCORE.INTRA.POLAR>
-0.693909

>  <SCORE.INTRA.POLAR.0>
0

>  <SCORE.INTRA.REPUL>
0

>  <SCORE.INTRA.REPUL.0>
0

>  <SCORE.INTRA.VDW>
1.0002

>  <SCORE.INTRA.VDW.0>
-1.89956

>  <SCORE.INTRA.norm>
-0.125432

>  <SCORE.RESTR>
0

>  <SCORE.RESTR.CAVITY>
0

>  <SCORE.RESTR.norm>
0

>  <SCORE.SYSTEM>
3.88876

>  <SCORE.SYSTEM.CONST>
0

>  <SCORE.SYSTEM.DIHEDRAL>
4.67385

>  <SCORE.SYSTEM.VDW>
1.55184

>  <SCORE.SYSTEM.norm>
0.176762

>  <SCORE.heavy>
22

>  <SCORE.norm>
-0.770263

>  <SMILES>
C/C(O)=N/[C@H]1[C@@H](O)O[C@@H]2CO[C@H](c3ccccc3)O[C@H]2[C@H]1O

>  <UniqueID>
313

$$$$
ZINC000013545464
  rDOCK(R)          3D
libRbt.so/2013.1/901 2013/11/27
 25 26  0  0  0  0  0  0  0  0999 V2000
   90.8629   14.0690 -105.1929 C   0  0  0  0  0  0
   89.6939   14.4406 -104.3401 C   0  0  0  0  0  0
   89.6038   13.9680 -103.1749 O   0  0  0  0  0  0
   88.7194   15.3751 -104.8279 N   0  0  0  0  0  0
   87.6060   15.8699 -104.0094 C   0  0  0  0  0  0
   87.3364   17.3699 -104.2769 C   0  0  0  0  0  0
   88.4970   18.1375 -103.9449 O   0  0  0  0  0  0
   89.1391   18.1956 -102.6955 C   0  0  0  0  0  0
   90.1346   19.1656 -102.5176 C   0  0  0  0  0  0
   90.8032   19.2842 -101.2958 C   0  0  0  0  0  0
   90.4875   18.4270 -100.2399 C   0  0  0  0  0  0
   89.5057   17.4479 -100.4064 C   0  0  0  0  0  0
   88.8336   17.3262 -101.6269 C   0  0  0  0  0  0
   86.2805   17.8152 -103.4430 O   0  0  0  0  0  0
   85.0546   17.1874 -103.7850 C   0  0  0  0  0  0
   83.9448   17.8406 -102.9477 C   0  0  0  0  0  0
   84.2380   17.7581 -101.5774 O   0  0  0  0  0  0
   85.1473   15.6596 -103.5152 C   0  0  0  0  0  0
   83.9516   14.9878 -103.8299 O   0  0  0  0  0  0
   86.3341   15.0484 -104.2884 C   0  0  0  0  0  0
   86.0651   15.0399 -105.6701 O   0  0  0  0  0  0
   88.8664   15.7871 -105.7770 H   0  0  0  0  0  0
   83.4752   18.1642 -101.0893 H   0  0  0  0  0  0
   84.0674   14.0304 -103.5949 H   0  0  0  0  0  0
   86.7816   14.5071 -106.1039 H   0  0  0  0  0  0
  1  2  1  0  0  0
  2  3  2  0  0  0
  2  4  1  0  0  0
  4  5  1  0  0  0
  4 22  1  0  0  0
  5  6  1  0  0  0
  6  7  1  0  0  0
  6 14  1  0  0  0
  7  8  1  0  0  0
  8  9  2  0  0  0
  9 10  1  0  0  0
 10 11  2  0  0  0
 11 12  1  0  0  0
 12 13  2  0  0  0
 13  8  1  0  0  0
 14 15  1  0  0  0
 15 16  1  0  0  0
 15 18  1  0  0  0
 16 17  1  0  0  0
 17 23  1  0  0  0
 18 19  1  0  0  0
 18 20  1  0  0  0
 19 24  1  0  0  0
 20 21  1  0  0  0
 20  5  1  0  0  0
 21 25  1  0  0  0
M  END
>  <CHROM.0>
179.92834181,153.14120133,-173.16901715

>  <CHROM.1>
141.37894098,-58.29508798,-170.20185350,-55.94911071,-177.99264825,-177.40202747
68.43442312,87.62242730,16.63205917,-103.27091536,-0.38461867,0.07653921
-2.46566635

>  <Energy>
40.03931080840346

>  <Genealogy>
CC(=O)N[C@H]1[C@H](Oc2ccccc2)O[C@H](CO)[C@@H](O)[C@H]1O (3D coordinates assigned)
CC(=O)N[C@H]1[C@H](Oc2ccccc2)O[C@H](CO)[C@@H](O)[C@H]1O (nonaromatic ring conformer: 40.03931080840346 kcal/mol)

>  <Name>
ZINC000013545464

>  <RI>
3.62712e+07

>  <Rbt.Current_Directory>
/home/edward/Documentos/Virtual_Screening/rDock/3

>  <Rbt.Executable>
rbdock ($Id: //depot/dev/client3/rdock/2013.1/src/exe/rbdock.cxx#4 $)

>  <Rbt.Library>
libRbt.so (2013.1, Build901 2013/11/27)

>  <Rbt.Parameter_File>
/home/edward/anaconda3/envs/MD/share/rdock-2013.1-1/data/scripts/dock.prm

>  <Rbt.Receptor>
parameters.prm

>  <SCORE>
-21.2389

>  <SCORE.INTER>
-19.7483

>  <SCORE.INTER.CONST>
1

>  <SCORE.INTER.POLAR>
-3.35681

>  <SCORE.INTER.REPUL>
0.0360766

>  <SCORE.INTER.ROT>
4

>  <SCORE.INTER.VDW>
-17.9156

>  <SCORE.INTER.norm>
-0.940397

>  <SCORE.INTRA>
-5.08332

>  <SCORE.INTRA.DIHEDRAL>
-12.6439

>  <SCORE.INTRA.DIHEDRAL.0>
14.6933

>  <SCORE.INTRA.POLAR>
0

>  <SCORE.INTRA.POLAR.0>
0

>  <SCORE.INTRA.REPUL>
0

>  <SCORE.INTRA.REPUL.0>
0

>  <SCORE.INTRA.VDW>
1.23863

>  <SCORE.INTRA.VDW.0>
-3.73986

>  <SCORE.INTRA.norm>
-0.242063

>  <SCORE.RESTR>
0

>  <SCORE.RESTR.CAVITY>
0

>  <SCORE.RESTR.norm>
0

>  <SCORE.SYSTEM>
3.59272

>  <SCORE.SYSTEM.CONST>
0

>  <SCORE.SYSTEM.DIHEDRAL>
3.80161

>  <SCORE.SYSTEM.VDW>
1.69192

>  <SCORE.SYSTEM.norm>
0.171082

>  <SCORE.heavy>
21

>  <SCORE.norm>
-1.01138

>  <SMILES>
CC(=O)N[C@H]1[C@H](Oc2ccccc2)O[C@H](CO)[C@@H](O)[C@H]1O

>  <UniqueID>
318

$$$$
ZINC000015205814
  rDOCK(R)          3D
libRbt.so/2013.1/901 2013/11/27
 28 29  0  0  0  0  0  0  0  0999 V2000
   89.7352   16.3664 -102.5814 H   0  0  0  0  0  0
   90.2725   15.6412 -103.0412 O   0  0  0  0  0  0
   89.7437   14.9193 -104.1106 C   0  0  0  0  0  0
   88.4833   15.0084 -104.4114 N   0  0  0  0  0  0
   87.5161   15.8462 -103.7015 C   0  0  0  0  0  0
   87.6049   17.3067 -104.2024 C   0  0  0  0  0  0
   88.9061   17.8347 -103.9286 O   0  0  0  0  0  0
   89.4550   19.0245 -104.4394 C   0  0  0  0  0  0
   89.7476   19.2167 -105.8040 C   0  0  0  0  0  0
   90.3017   20.4221 -106.2448 C   0  0  0  0  0  0
   90.5664   21.4625 -105.3369 C   0  0  0  0  0  0
   91.1382   22.7043 -105.7875 N   0  3  0  0  0  0
   91.4119   22.8791 -106.9932 O   0  0  0  0  0  0
   91.3946   23.7204 -104.8957 O   0  5  0  0  0  0
   90.2620   21.2711 -103.9791 C   0  0  0  0  0  0
   89.7103   20.0647 -103.5395 C   0  0  0  0  0  0
   86.6657   18.1062 -103.5054 O   0  0  0  0  0  0
   85.3372   17.7184 -103.8174 C   0  0  0  0  0  0
   84.3748   18.7271 -103.1727 C   0  0  0  0  0  0
   84.6153   18.8214 -101.7943 O   0  0  0  0  0  0
   83.9149   19.4198 -101.4238 H   0  0  0  0  0  0
   85.0664   16.2858 -103.2983 C   0  0  0  0  0  0
   83.7657   15.8737 -103.6389 O   0  0  0  0  0  0
   83.6102   14.9975 -103.1989 H   0  0  0  0  0  0
   86.0871   15.3075 -103.9073 C   0  0  0  0  0  0
   85.8412   15.1356 -105.2826 O   0  0  0  0  0  0
   86.4772   14.4465 -105.6082 H   0  0  0  0  0  0
   90.6250   14.0121 -104.9069 C   0  0  0  0  0  0
  1  2  1  0  0  0
  2  3  1  0  0  0
  3  4  2  0  0  0
  3 28  1  0  0  0
  4  5  1  0  0  0
  5  6  1  0  0  0
  6  7  1  0  0  0
  6 17  1  0  0  0
  7  8  1  0  0  0
  8  9  2  0  0  0
  9 10  1  0  0  0
 10 11  2  0  0  0
 11 12  1  0  0  0
 11 15  1  0  0  0
 12 13  2  0  0  0
 12 14  1  0  0  0
 15 16  2  0  0  0
 16  8  1  0  0  0
 17 18  1  0  0  0
 18 19  1  0  0  0
 18 22  1  0  0  0
 19 20  1  0  0  0
 20 21  1  0  0  0
 22 23  1  0  0  0
 22 25  1  0  0  0
 23 24  1  0  0  0
 25 26  1  0  0  0
 25  5  1  0  0  0
 26 27  1  0  0  0
M  END
>  <CHROM.0>
81.39911500,154.32521950,-69.84325182

>  <CHROM.1>
-10.85020668,81.63444385,167.52629558,-65.89289278,-55.39512076,-174.97519543
-173.83281433,63.20608842,88.22625603,18.19640525,-104.29806149,-2.26963733
0.29760767,-0.04562563

>  <Energy>
41.30207158871883

>  <Genealogy>
CC(O)=N[C@H]1[C@H](Oc2ccc([N+](=O)[O-])cc2)O[C@H](CO)[C@@H](O)[C@H]1O (tautomer)
C/C(O)=N/[C@H]1[C@H](Oc2ccc([N+](=O)[O-])cc2)O[C@H](CO)[C@@H](O)[C@H]1O (cis-trans isomerization)
C/C(O)=N/[C@H]1[C@H](Oc2ccc([N+](=O)[O-])cc2)O[C@H](CO)[C@@H](O)[C@H]1O (3D coordinates assigned)
C/C(O)=N/[C@H]1[C@H](Oc2ccc([N+](=O)[O-])cc2)O[C@H](CO)[C@@H](O)[C@H]1O (nonaromatic ring conformer: 41.30207158871883 kcal/mol)

>  <Name>
ZINC000015205814

>  <RI>
3.62712e+07

>  <Rbt.Current_Directory>
/home/edward/Documentos/Virtual_Screening/rDock/3

>  <Rbt.Executable>
rbdock ($Id: //depot/dev/client3/rdock/2013.1/src/exe/rbdock.cxx#4 $)

>  <Rbt.Library>
libRbt.so (2013.1, Build901 2013/11/27)

>  <Rbt.Parameter_File>
/home/edward/anaconda3/envs/MD/share/rdock-2013.1-1/data/scripts/dock.prm

>  <Rbt.Receptor>
parameters.prm

>  <SCORE>
-18.7428

>  <SCORE.INTER>
-18.4749

>  <SCORE.INTER.CONST>
1

>  <SCORE.INTER.POLAR>
-3.02245

>  <SCORE.INTER.REPUL>
0.19679

>  <SCORE.INTER.ROT>
4

>  <SCORE.INTER.VDW>
-18.5825

>  <SCORE.INTER.norm>
-0.769788

>  <SCORE.INTRA>
-3.43424

>  <SCORE.INTRA.DIHEDRAL>
-4.76222

>  <SCORE.INTRA.DIHEDRAL.0>
12.4106

>  <SCORE.INTRA.POLAR>
-0.291747

>  <SCORE.INTRA.POLAR.0>
0

>  <SCORE.INTRA.REPUL>
0

>  <SCORE.INTRA.REPUL.0>
0

>  <SCORE.INTRA.VDW>
-0.0611938

>  <SCORE.INTRA.VDW.0>
-2.5406

>  <SCORE.INTRA.norm>
-0.143093

>  <SCORE.RESTR>
0

>  <SCORE.RESTR.CAVITY>
0

>  <SCORE.RESTR.norm>
0

>  <SCORE.SYSTEM>
3.16636

>  <SCORE.SYSTEM.CONST>
0

>  <SCORE.SYSTEM.DIHEDRAL>
5.1194

>  <SCORE.SYSTEM.VDW>
0.606664

>  <SCORE.SYSTEM.norm>
0.131932

>  <SCORE.heavy>
24

>  <SCORE.norm>
-0.780949

>  <SMILES>
C/C(O)=N/[C@H]1[C@H](Oc2ccc([N+](=O)[O-])cc2)O[C@H](CO)[C@@H](O)[C@H]1O

>  <UniqueID>
320

$$$$
ZINC000015205840
  rDOCK(R)          3D
libRbt.so/2013.1/901 2013/11/27
 28 29  0  0  0  0  0  0  0  0999 V2000
   88.8204   15.4618 -105.6270 H   0  0  0  0  0  0
   89.3505   14.6106 -105.4849 O   0  0  0  0  0  0
   90.7429   14.6317 -105.4102 C   0  0  0  0  0  0
   91.3858   15.7583 -105.3467 N   0  0  0  0  0  0
   90.7550   17.0785 -105.3689 C   0  0  0  0  0  0
   90.6803   17.6595 -103.9373 C   0  0  0  0  0  0
   89.8405   16.8325 -103.1256 O   0  0  0  0  0  0
   89.4842   17.0431 -101.7796 C   0  0  0  0  0  0
   89.7846   18.2484 -101.1084 C   0  0  0  0  0  0
   89.4087   18.4344  -99.7781 C   0  0  0  0  0  0
   88.7209   17.4327  -99.0991 C   0  0  0  0  0  0
   88.4068   16.2383  -99.7467 C   0  0  0  0  0  0
   88.7830   16.0232 -101.0861 C   0  0  0  0  0  0
   88.4499   14.7688 -101.7183 N   0  3  0  0  0  0
   88.9665   14.4327 -102.8038 O   0  0  0  0  0  0
   87.5886   13.8891 -101.1027 O   0  5  0  0  0  0
   90.0920   18.9468 -103.9783 O   0  0  0  0  0  0
   90.9332   19.8678 -104.6523 C   0  0  0  0  0  0
   90.3384   21.2751 -104.4940 C   0  0  0  0  0  0
   89.0401   21.3191 -105.0231 O   0  0  0  0  0  0
   88.7142   22.2496 -104.9070 H   0  0  0  0  0  0
   91.0447   19.4899 -106.1472 C   0  0  0  0  0  0
   91.9269   20.3669 -106.8005 O   0  0  0  0  0  0
   91.4680   21.2458 -106.8542 H   0  0  0  0  0  0
   91.5269   18.0315 -106.3118 C   0  0  0  0  0  0
   92.9213   17.9220 -106.1405 O   0  0  0  0  0  0
   93.1424   18.1736 -105.2084 H   0  0  0  0  0  0
   91.5064   13.3481 -105.3582 C   0  0  0  0  0  0
  1  2  1  0  0  0
  2  3  1  0  0  0
  3  4  2  0  0  0
  3 28  1  0  0  0
  4  5  1  0  0  0
  5  6  1  0  0  0
  6  7  1  0  0  0
  6 17  1  0  0  0
  7  8  1  0  0  0
  8  9  2  0  0  0
  9 10  1  0  0  0
 10 11  2  0  0  0
 11 12  1  0  0  0
 12 13  2  0  0  0
 13 14  1  0  0  0
 13  8  1  0  0  0
 14 15  2  0  0  0
 14 16  1  0  0  0
 17 18  1  0  0  0
 18 19  1  0  0  0
 18 22  1  0  0  0
 19 20  1  0  0  0
 20 21  1  0  0  0
 22 23  1  0  0  0
 22 25  1  0  0  0
 23 24  1  0  0  0
 25 26  1  0  0  0
 25  5  1  0  0  0
 26 27  1  0  0  0
M  END
>  <CHROM.0>
-175.05681203,152.57843465,54.72223327

>  <CHROM.1>
9.01551864,101.25203227,-177.78761016,9.31449809,-58.86944408,-179.10106134
-70.81551327,-61.29698461,90.08006413,17.25272125,-103.67072068,-2.61259240
1.11589834,0.12217200

>  <Energy>
44.79321637869891

>  <Genealogy>
CC(O)=N[C@H]1[C@H](Oc2ccccc2[N+](=O)[O-])O[C@H](CO)[C@@H](O)[C@H]1O (tautomer)
C/C(O)=N\[C@H]1[C@H](Oc2ccccc2[N+](=O)[O-])O[C@H](CO)[C@@H](O)[C@H]1O (cis-trans isomerization)
C/C(O)=N\[C@H]1[C@H](Oc2ccccc2[N+](=O)[O-])O[C@H](CO)[C@@H](O)[C@H]1O (3D coordinates assigned)
C/C(O)=N\[C@H]1[C@H](Oc2ccccc2[N+](=O)[O-])O[C@H](CO)[C@@H](O)[C@H]1O (nonaromatic ring conformer: 44.79321637869891 kcal/mol)

>  <Name>
ZINC000015205840

>  <RI>
3.62712e+07

>  <Rbt.Current_Directory>
/home/edward/Documentos/Virtual_Screening/rDock/3

>  <Rbt.Executable>
rbdock ($Id: //depot/dev/client3/rdock/2013.1/src/exe/rbdock.cxx#4 $)

>  <Rbt.Library>
libRbt.so (2013.1, Build901 2013/11/27)

>  <Rbt.Parameter_File>
/home/edward/anaconda3/envs/MD/share/rdock-2013.1-1/data/scripts/dock.prm

>  <Rbt.Receptor>
parameters.prm

>  <SCORE>
-17.4772

>  <SCORE.INTER>
-17.565

>  <SCORE.INTER.CONST>
1

>  <SCORE.INTER.POLAR>
-2.67451

>  <SCORE.INTER.REPUL>
0

>  <SCORE.INTER.ROT>
4

>  <SCORE.INTER.VDW>
-17.8716

>  <SCORE.INTER.norm>
-0.731874

>  <SCORE.INTRA>
-2.54262

>  <SCORE.INTRA.DIHEDRAL>
-5.47838

>  <SCORE.INTRA.DIHEDRAL.0>
7.3035

>  <SCORE.INTRA.POLAR>
0

>  <SCORE.INTRA.POLAR.0>
0

>  <SCORE.INTRA.REPUL>
0

>  <SCORE.INTRA.REPUL.0>
0

>  <SCORE.INTRA.VDW>
0.196568

>  <SCORE.INTRA.VDW.0>
-2.67366

>  <SCORE.INTRA.norm>
-0.105943

>  <SCORE.RESTR>
0.153928

>  <SCORE.RESTR.CAVITY>
0.153928

>  <SCORE.RESTR.norm>
0.00641366

>  <SCORE.SYSTEM>
2.47647

>  <SCORE.SYSTEM.CONST>
0

>  <SCORE.SYSTEM.DIHEDRAL>
3.55905

>  <SCORE.SYSTEM.VDW>
0.696947

>  <SCORE.SYSTEM.norm>
0.103186

>  <SCORE.heavy>
24

>  <SCORE.norm>
-0.728216

>  <SMILES>
C/C(O)=N\[C@H]1[C@H](Oc2ccccc2[N+](=O)[O-])O[C@H](CO)[C@@H](O)[C@H]1O

>  <UniqueID>
322

$$$$
ZINC000015205946
  rDOCK(R)          3D
libRbt.so/2013.1/901 2013/11/27
 28 29  0  0  0  0  0  0  0  0999 V2000
   92.7410   14.0446 -106.6118 H   0  0  0  0  0  0
   92.0294   14.4748 -106.0335 O   0  0  0  0  0  0
   91.7665   15.8421 -106.1108 C   0  0  0  0  0  0
   90.8977   16.3957 -105.3199 N   0  0  0  0  0  0
   90.1030   15.6796 -104.3214 C   0  0  0  0  0  0
   88.6114   15.6886 -104.7025 C   0  0  0  0  0  0
   88.1938   17.0084 -104.9560 O   0  0  0  0  0  0
   88.5015   17.2425 -105.8703 H   0  0  0  0  0  0
   87.7850   15.0639 -103.5615 C   0  0  0  0  0  0
   86.4093   15.1449 -103.8456 O   0  0  0  0  0  0
   86.2216   14.5526 -104.6198 H   0  0  0  0  0  0
   88.1444   15.7203 -102.2004 C   0  0  0  0  0  0
   87.4090   15.0372 -101.0375 C   0  0  0  0  0  0
   86.0309   15.2999 -101.0935 O   0  0  0  0  0  0
   85.7226   15.0555 -102.0047 H   0  0  0  0  0  0
   89.5384   15.6119 -101.9501 O   0  0  0  0  0  0
   90.3117   16.3018 -102.9195 C   0  0  0  0  0  0
   90.0047   17.7048 -102.8921 O   0  0  0  0  0  0
   90.3321   18.6274 -101.8793 C   0  0  0  0  0  0
   90.7820   18.2086 -100.6080 C   0  0  0  0  0  0
   91.0937   19.1417  -99.6196 C   0  0  0  0  0  0
   90.9540   20.5026  -99.8741 C   0  0  0  0  0  0
   90.5018   20.9378 -101.1191 C   0  0  0  0  0  0
   90.1870   20.0162 -102.1362 C   0  0  0  0  0  0
   89.7270   20.5100 -103.4131 N   0  3  0  0  0  0
   89.6092   19.7530 -104.3982 O   0  0  0  0  0  0
   89.4422   21.8464 -103.5783 O   0  5  0  0  0  0
   92.5177   16.6917 -107.0840 C   0  0  0  0  0  0
  1  2  1  0  0  0
  2  3  1  0  0  0
  3  4  2  0  0  0
  3 28  1  0  0  0
  4  5  1  0  0  0
  5  6  1  0  0  0
  6  7  1  0  0  0
  6  9  1  0  0  0
  7  8  1  0  0  0
  9 10  1  0  0  0
  9 12  1  0  0  0
 10 11  1  0  0  0
 12 13  1  0  0  0
 12 16  1  0  0  0
 13 14  1  0  0  0
 14 15  1  0  0  0
 16 17  1  0  0  0
 17 18  1  0  0  0
 17  5  1  0  0  0
 18 19  1  0  0  0
 19 20  2  0  0  0
 20 21  1  0  0  0
 21 22  2  0  0  0
 22 23  1  0  0  0
 23 24  2  0  0  0
 24 25  1  0  0  0
 24 19  1  0  0  0
 25 26  2  0  0  0
 25 27  1  0  0  0
M  END
>  <CHROM.0>
-167.47113694,152.23417535,53.36532256

>  <CHROM.1>
-176.65846455,-112.80601774,79.07420808,67.39028678,-68.91734140,52.60299165
-166.19513618,-13.45734663,89.61634768,17.32719883,-103.18605757,-1.79860605
0.78973841,0.71001712

>  <Energy>
46.64348389524871

>  <Genealogy>
CC(O)=N[C@@H]1[C@H](O)[C@H](O)[C@@H](CO)O[C@@H]1Oc1ccccc1[N+](=O)[O-] (tautomer)
C/C(O)=N\[C@@H]1[C@H](O)[C@H](O)[C@@H](CO)O[C@@H]1Oc1ccccc1[N+](=O)[O-] (cis-trans isomerization)
C/C(O)=N\[C@@H]1[C@H](O)[C@H](O)[C@@H](CO)O[C@@H]1Oc1ccccc1[N+](=O)[O-] (3D coordinates assigned)
C/C(O)=N\[C@@H]1[C@H](O)[C@H](O)[C@@H](CO)O[C@@H]1Oc1ccccc1[N+](=O)[O-] (nonaromatic ring conformer: 46.64348389524871 kcal/mol)

>  <Name>
ZINC000015205946

>  <RI>
3.62712e+07

>  <Rbt.Current_Directory>
/home/edward/Documentos/Virtual_Screening/rDock/3

>  <Rbt.Executable>
rbdock ($Id: //depot/dev/client3/rdock/2013.1/src/exe/rbdock.cxx#4 $)

>  <Rbt.Library>
libRbt.so (2013.1, Build901 2013/11/27)

>  <Rbt.Parameter_File>
/home/edward/anaconda3/envs/MD/share/rdock-2013.1-1/data/scripts/dock.prm

>  <Rbt.Receptor>
parameters.prm

>  <SCORE>
-22.873

>  <SCORE.INTER>
-18.4365

>  <SCORE.INTER.CONST>
1

>  <SCORE.INTER.POLAR>
-2.47098

>  <SCORE.INTER.REPUL>
0.0859286

>  <SCORE.INTER.ROT>
4

>  <SCORE.INTER.VDW>
-19.8648

>  <SCORE.INTER.norm>
-0.768187

>  <SCORE.INTRA>
-7.21868

>  <SCORE.INTRA.DIHEDRAL>
-11.203

>  <SCORE.INTRA.DIHEDRAL.0>
15.0397

>  <SCORE.INTRA.POLAR>
-0.753989

>  <SCORE.INTRA.POLAR.0>
0

>  <SCORE.INTRA.REPUL>
0

>  <SCORE.INTRA.REPUL.0>
0

>  <SCORE.INTRA.VDW>
0.946373

>  <SCORE.INTRA.VDW.0>
-3.32444

>  <SCORE.INTRA.norm>
-0.300778

>  <SCORE.RESTR>
0

>  <SCORE.RESTR.CAVITY>
0

>  <SCORE.RESTR.norm>
0

>  <SCORE.SYSTEM>
2.78216

>  <SCORE.SYSTEM.CONST>
0

>  <SCORE.SYSTEM.DIHEDRAL>
4.23275

>  <SCORE.SYSTEM.VDW>
0.665788

>  <SCORE.SYSTEM.norm>
0.115924

>  <SCORE.heavy>
24

>  <SCORE.norm>
-0.953042

>  <SMILES>
C/C(O)=N\[C@@H]1[C@H](O)[C@H](O)[C@@H](CO)O[C@@H]1Oc1ccccc1[N+](=O)[O-]

>  <UniqueID>
327

$$$$
ZINC000015205949
  rDOCK(R)          3D
libRbt.so/2013.1/901 2013/11/27
 28 29  0  0  0  0  0  0  0  0999 V2000
   83.7835   26.5174 -102.0531 H   0  0  0  0  0  0
   84.3692   25.7252 -102.2905 O   0  0  0  0  0  0
   85.5261   25.8871 -103.0474 C   0  0  0  0  0  0
   86.2359   24.8367 -103.3509 N   0  0  0  0  0  0
   87.4644   24.8071 -104.1521 C   0  0  0  0  0  0
   87.2201   24.1009 -105.4991 C   0  0  0  0  0  0
   86.5977   22.8575 -105.2822 O   0  0  0  0  0  0
   87.1378   22.3757 -104.6028 H   0  0  0  0  0  0
   88.5602   23.9112 -106.2371 C   0  0  0  0  0  0
   88.3663   23.1340 -107.3911 O   0  0  0  0  0  0
   89.2674   22.9423 -107.7614 H   0  0  0  0  0  0
   89.5896   23.2331 -105.3006 C   0  0  0  0  0  0
   90.9619   23.0938 -105.9811 C   0  0  0  0  0  0
   90.8858   22.2820 -107.1223 O   0  0  0  0  0  0
   91.8091   22.2050 -107.4791 H   0  0  0  0  0  0
   89.7697   24.0037 -104.1220 O   0  0  0  0  0  0
   88.5746   24.0899 -103.3605 C   0  0  0  0  0  0
   88.1394   22.7979 -102.9213 O   0  0  0  0  0  0
   88.9242   21.8861 -102.1990 C   0  0  0  0  0  0
   89.8569   22.2915 -101.2267 C   0  0  0  0  0  0
   90.6179   21.3410 -100.5394 C   0  0  0  0  0  0
   90.4616   19.9703 -100.8076 C   0  0  0  0  0  0
   91.2472   18.9949 -100.0981 N   0  3  0  0  0  0
   91.1121   17.7759 -100.3322 O   0  0  0  0  0  0
   92.1619   19.3901  -99.1489 O   0  5  0  0  0  0
   89.5259   19.5708 -101.7785 C   0  0  0  0  0  0
   88.7664   20.5223 -102.4646 C   0  0  0  0  0  0
   85.9169   27.2752 -103.4633 C   0  0  0  0  0  0
  1  2  1  0  0  0
  2  3  1  0  0  0
  3  4  2  0  0  0
  3 28  1  0  0  0
  4  5  1  0  0  0
  5  6  1  0  0  0
  6  7  1  0  0  0
  6  9  1  0  0  0
  7  8  1  0  0  0
  9 10  1  0  0  0
  9 12  1  0  0  0
 10 11  1  0  0  0
 12 13  1  0  0  0
 12 16  1  0  0  0
 13 14  1  0  0  0
 14 15  1  0  0  0
 16 17  1  0  0  0
 17 18  1  0  0  0
 17  5  1  0  0  0
 18 19  1  0  0  0
 19 20  2  0  0  0
 20 21  1  0  0  0
 21 22  2  0  0  0
 22 23  1  0  0  0
 22 26  1  0  0  0
 23 24  2  0  0  0
 23 25  1  0  0  0
 26 27  2  0  0  0
 27 19  1  0  0  0
M  END
>  <CHROM.0>
178.68739640,156.46843643,-68.66811277

>  <CHROM.1>
-178.69348416,-111.50916536,-51.28008856,-172.75649432,-61.94682646,-177.40206246
178.72536356,35.84419139,88.77948697,22.66365924,-103.31472448,2.35928515
0.74614193,-1.23034894

>  <Energy>
43.201484543042724

>  <Genealogy>
CC(O)=N[C@@H]1[C@H](O)[C@H](O)[C@@H](CO)O[C@@H]1Oc1ccc([N+](=O)[O-])cc1 (tautomer)
C/C(O)=N/[C@@H]1[C@H](O)[C@H](O)[C@@H](CO)O[C@@H]1Oc1ccc([N+](=O)[O-])cc1 (cis-trans isomerization)
C/C(O)=N/[C@@H]1[C@H](O)[C@H](O)[C@@H](CO)O[C@@H]1Oc1ccc([N+](=O)[O-])cc1 (3D coordinates assigned)
C/C(O)=N/[C@@H]1[C@H](O)[C@H](O)[C@@H](CO)O[C@@H]1Oc1ccc([N+](=O)[O-])cc1 (nonaromatic ring conformer: 43.201484543042724 kcal/mol)

>  <Name>
ZINC000015205949

>  <RI>
3.62712e+07

>  <Rbt.Current_Directory>
/home/edward/Documentos/Virtual_Screening/rDock/3

>  <Rbt.Executable>
rbdock ($Id: //depot/dev/client3/rdock/2013.1/src/exe/rbdock.cxx#4 $)

>  <Rbt.Library>
libRbt.so (2013.1, Build901 2013/11/27)

>  <Rbt.Parameter_File>
/home/edward/anaconda3/envs/MD/share/rdock-2013.1-1/data/scripts/dock.prm

>  <Rbt.Receptor>
parameters.prm

>  <SCORE>
-18.4309

>  <SCORE.INTER>
-13.9334

>  <SCORE.INTER.CONST>
1

>  <SCORE.INTER.POLAR>
-2.60907

>  <SCORE.INTER.REPUL>
0.0207605

>  <SCORE.INTER.ROT>
4

>  <SCORE.INTER.VDW>
-14.5664

>  <SCORE.INTER.norm>
-0.58056

>  <SCORE.INTRA>
-6.30024

>  <SCORE.INTRA.DIHEDRAL>
-3.89377

>  <SCORE.INTRA.DIHEDRAL.0>
6.44248

>  <SCORE.INTRA.POLAR>
-1.49952

>  <SCORE.INTRA.POLAR.0>
0

>  <SCORE.INTRA.REPUL>
-0.0841555

>  <SCORE.INTRA.REPUL.0>
0.0841555

>  <SCORE.INTRA.VDW>
1.1658

>  <SCORE.INTRA.VDW.0>
-2.35351

>  <SCORE.INTRA.norm>
-0.26251

>  <SCORE.RESTR>
0

>  <SCORE.RESTR.CAVITY>
0

>  <SCORE.RESTR.norm>
0

>  <SCORE.SYSTEM>
1.80279

>  <SCORE.SYSTEM.CONST>
0

>  <SCORE.SYSTEM.DIHEDRAL>
2.70767

>  <SCORE.SYSTEM.VDW>
0.448954

>  <SCORE.SYSTEM.norm>
0.0751162

>  <SCORE.heavy>
24

>  <SCORE.norm>
-0.767954

>  <SMILES>
C/C(O)=N/[C@@H]1[C@H](O)[C@H](O)[C@@H](CO)O[C@@H]1Oc1ccc([N+](=O)[O-])cc1

>  <UniqueID>
329

$$$$
ZINC000015205956
  rDOCK(R)          3D
libRbt.so/2013.1/901 2013/11/27
 25 26  0  0  0  0  0  0  0  0999 V2000
   93.0005   17.8596  -99.1920 H   0  0  0  0  0  0
   92.4918   18.7344  -99.1477 O   0  0  0  0  0  0
   91.2711   18.9043  -99.7964 C   0  0  0  0  0  0
   90.8137   17.9204 -100.5161 N   0  0  0  0  0  0
   89.5528   17.8844 -101.2631 C   0  0  0  0  0  0
   88.7557   16.6144 -100.9137 C   0  0  0  0  0  0
   89.5715   15.4788 -101.0753 O   0  0  0  0  0  0
   90.0147   15.5611 -101.9597 H   0  0  0  0  0  0
   87.5131   16.5191 -101.8155 C   0  0  0  0  0  0
   86.8736   15.2868 -101.5916 O   0  0  0  0  0  0
   86.5633   15.2820 -100.6486 H   0  0  0  0  0  0
   87.9261   16.6601 -103.3022 C   0  0  0  0  0  0
   86.6995   16.6445 -104.2305 C   0  0  0  0  0  0
   86.9371   15.8718 -105.3768 O   0  0  0  0  0  0
   86.9194   14.9218 -105.0889 H   0  0  0  0  0  0
   88.6101   17.8873 -103.5116 O   0  0  0  0  0  0
   89.8274   17.9484 -102.7850 C   0  0  0  0  0  0
   90.7165   16.9106 -103.2237 O   0  0  0  0  0  0
   91.2435   16.7445 -104.5160 C   0  0  0  0  0  0
   91.5614   15.4848 -105.0658 C   0  0  0  0  0  0
   92.0823   15.3931 -106.3606 C   0  0  0  0  0  0
   92.2967   16.5490 -107.1147 C   0  0  0  0  0  0
   91.9917   17.8002 -106.5748 C   0  0  0  0  0  0
   91.4697   17.8962 -105.2816 C   0  0  0  0  0  0
   90.5432   20.2151  -99.6694 C   0  0  0  0  0  0
  1  2  1  0  0  0
  2  3  1  0  0  0
  3  4  2  0  0  0
  3 25  1  0  0  0
  4  5  1  0  0  0
  5  6  1  0  0  0
  6  7  1  0  0  0
  6  9  1  0  0  0
  7  8  1  0  0  0
  9 10  1  0  0  0
  9 12  1  0  0  0
 10 11  1  0  0  0
 12 13  1  0  0  0
 12 16  1  0  0  0
 13 14  1  0  0  0
 14 15  1  0  0  0
 16 17  1  0  0  0
 17 18  1  0  0  0
 17  5  1  0  0  0
 18 19  1  0  0  0
 19 20  2  0  0  0
 20 21  1  0  0  0
 21 22  2  0  0  0
 22 23  1  0  0  0
 23 24  2  0  0  0
 24 19  1  0  0  0
M  END
>  <CHROM.0>
-76.17631979,152.04613754,-65.57178972

>  <CHROM.1>
-2.71702346,-128.85335270,-47.99572229,63.53652503,-138.18301674,73.36027561
-175.02490218,-149.32292241,89.87187109,17.08771112,-102.92666294,-1.62305820
-0.34719413,-1.88999704

>  <Energy>
43.4445801330146

>  <Genealogy>
CC(O)=N[C@@H]1[C@H](O)[C@H](O)[C@@H](CO)O[C@@H]1Oc1ccccc1 (tautomer)
C/C(O)=N\[C@@H]1[C@H](O)[C@H](O)[C@@H](CO)O[C@@H]1Oc1ccccc1 (cis-trans isomerization)
C/C(O)=N\[C@@H]1[C@H](O)[C@H](O)[C@@H](CO)O[C@@H]1Oc1ccccc1 (3D coordinates assigned)
C/C(O)=N\[C@@H]1[C@H](O)[C@H](O)[C@@H](CO)O[C@@H]1Oc1ccccc1 (nonaromatic ring conformer: 43.4445801330146 kcal/mol)

>  <Name>
ZINC000015205956

>  <RI>
3.62712e+07

>  <Rbt.Current_Directory>
/home/edward/Documentos/Virtual_Screening/rDock/3

>  <Rbt.Executable>
rbdock ($Id: //depot/dev/client3/rdock/2013.1/src/exe/rbdock.cxx#4 $)

>  <Rbt.Library>
libRbt.so (2013.1, Build901 2013/11/27)

>  <Rbt.Parameter_File>
/home/edward/anaconda3/envs/MD/share/rdock-2013.1-1/data/scripts/dock.prm

>  <Rbt.Receptor>
parameters.prm

>  <SCORE>
-22.1385

>  <SCORE.INTER>
-20.6505

>  <SCORE.INTER.CONST>
1

>  <SCORE.INTER.POLAR>
-3.06534

>  <SCORE.INTER.REPUL>
0.0215005

>  <SCORE.INTER.ROT>
4

>  <SCORE.INTER.VDW>
-19.7358

>  <SCORE.INTER.norm>
-0.983356

>  <SCORE.INTRA>
-4.89561

>  <SCORE.INTRA.DIHEDRAL>
-5.59186

>  <SCORE.INTRA.DIHEDRAL.0>
12.9675

>  <SCORE.INTRA.POLAR>
-0.833437

>  <SCORE.INTRA.POLAR.0>
0

>  <SCORE.INTRA.REPUL>
0

>  <SCORE.INTRA.REPUL.0>
0

>  <SCORE.INTRA.VDW>
0.734004

>  <SCORE.INTRA.VDW.0>
-2.7899

>  <SCORE.INTRA.norm>
-0.233124

>  <SCORE.RESTR>
0.161232

>  <SCORE.RESTR.CAVITY>
0.161232

>  <SCORE.RESTR.norm>
0.00767771

>  <SCORE.SYSTEM>
3.24637

>  <SCORE.SYSTEM.CONST>
0

>  <SCORE.SYSTEM.DIHEDRAL>
4.74989

>  <SCORE.SYSTEM.VDW>
0.871427

>  <SCORE.SYSTEM.norm>
0.154589

>  <SCORE.heavy>
21

>  <SCORE.norm>
-1.05421

>  <SMILES>
C/C(O)=N\[C@@H]1[C@H](O)[C@H](O)[C@@H](CO)O[C@@H]1Oc1ccccc1

>  <UniqueID>
332

$$$$
ZINC000019893747
  rDOCK(R)          3D
libRbt.so/2013.1/901 2013/11/27
 28 29  0  0  0  0  0  0  0  0999 V2000
   86.6359   13.5485 -101.1490 H   0  0  0  0  0  0
   87.4900   14.0458 -101.3727 O   0  0  0  0  0  0
   87.4550   15.3293 -101.9092 C   0  0  0  0  0  0
   88.5803   15.9435 -102.1523 N   0  0  0  0  0  0
   88.7594   17.2460 -102.8046 C   0  0  0  0  0  0
   89.2404   17.0541 -104.2559 C   0  0  0  0  0  0
   90.4137   16.2564 -104.2575 O   0  0  0  0  0  0
   90.0497   14.6316 -104.5936 S   0  0  0  0  0  0
   89.6631   13.8942 -103.3413 O   0  0  0  0  0  0
   88.8941   14.5905 -105.5523 O   0  0  0  0  0  0
   91.4433   13.8300 -105.3530 C   0  0  0  0  0  0
   89.5551   18.4363 -104.8627 C   0  0  0  0  0  0
   90.1359   18.2674 -106.1313 O   0  0  0  0  0  0
   89.4686   17.8047 -106.7026 H   0  0  0  0  0  0
   90.5127   19.2204 -103.9262 C   0  0  0  0  0  0
   90.7949   20.6309 -104.4621 C   0  0  0  0  0  0
   91.6979   20.5763 -105.5321 O   0  0  0  0  0  0
   92.4588   20.0193 -105.2223 H   0  0  0  0  0  0
   89.9345   19.3522 -102.6377 O   0  0  0  0  0  0
   89.7830   18.0844 -102.0177 C   0  0  0  0  0  0
   89.2869   18.2699 -100.7052 O   0  0  0  0  0  0
   90.2962   18.8027  -99.8757 C   0  0  0  0  0  0
   86.1342   15.9311 -102.1815 C   0  0  0  0  0  0
   84.9788   15.4358 -101.5534 C   0  0  0  0  0  0
   83.7268   15.9842 -101.8479 C   0  0  0  0  0  0
   83.6169   17.0116 -102.7885 C   0  0  0  0  0  0
   84.7569   17.4817 -103.4461 C   0  0  0  0  0  0
   86.0105   16.9354 -103.1535 C   0  0  0  0  0  0
  1  2  1  0  0  0
  2  3  1  0  0  0
  3  4  2  0  0  0
  3 23  1  0  0  0
  4  5  1  0  0  0
  5  6  1  0  0  0
  6  7  1  0  0  0
  6 12  1  0  0  0
  7  8  1  0  0  0
  8  9  2  0  0  0
  8 10  2  0  0  0
  8 11  1  0  0  0
 12 13  1  0  0  0
 12 15  1  0  0  0
 13 14  1  0  0  0
 15 16  1  0  0  0
 15 19  1  0  0  0
 16 17  1  0  0  0
 17 18  1  0  0  0
 19 20  1  0  0  0
 20 21  1  0  0  0
 20  5  1  0  0  0
 21 22  1  0  0  0
 23 24  2  0  0  0
 24 25  1  0  0  0
 25 26  2  0  0  0
 26 27  1  0  0  0
 27 28  2  0  0  0
 28 23  1  0  0  0
M  END
>  <CHROM.0>
-175.93497716,154.71146308,-61.59177936

>  <CHROM.1>
178.41306725,19.59524842,-103.66997698,97.81677860,-85.55390928,61.67873550
-75.98379649,-49.84220180,168.59743005,88.72800473,16.82094647,-103.33654029
-2.80742192,0.51617864,0.25742723

>  <Energy>
52.587185776660796

>  <Genealogy>
CO[C@@H]1O[C@H](CO)[C@@H](O)[C@@H](OS(C)(=O)=O)[C@H]1N=C(O)c1ccccc1 (tautomer)
CO[C@@H]1O[C@H](CO)[C@@H](O)[C@@H](OS(C)(=O)=O)[C@H]1/N=C(\O)c1ccccc1 (cis-trans isomerization)
CO[C@@H]1O[C@H](CO)[C@@H](O)[C@@H](OS(C)(=O)=O)[C@H]1/N=C(\O)c1ccccc1 (3D coordinates assigned)
CO[C@@H]1O[C@H](CO)[C@@H](O)[C@@H](OS(C)(=O)=O)[C@H]1/N=C(\O)c1ccccc1 (nonaromatic ring conformer: 52.587185776660796 kcal/mol)

>  <Name>
ZINC000019893747

>  <RI>
3.62712e+07

>  <Rbt.Current_Directory>
/home/edward/Documentos/Virtual_Screening/rDock/3

>  <Rbt.Executable>
rbdock ($Id: //depot/dev/client3/rdock/2013.1/src/exe/rbdock.cxx#4 $)

>  <Rbt.Library>
libRbt.so (2013.1, Build901 2013/11/27)

>  <Rbt.Parameter_File>
/home/edward/anaconda3/envs/MD/share/rdock-2013.1-1/data/scripts/dock.prm

>  <Rbt.Receptor>
parameters.prm

>  <SCORE>
-18.9504

>  <SCORE.INTER>
-15.97

>  <SCORE.INTER.CONST>
1

>  <SCORE.INTER.POLAR>
-3.06109

>  <SCORE.INTER.REPUL>
0.553418

>  <SCORE.INTER.ROT>
6

>  <SCORE.INTER.VDW>
-19.7294

>  <SCORE.INTER.norm>
-0.638799

>  <SCORE.INTRA>
-4.82783

>  <SCORE.INTRA.DIHEDRAL>
-14.5876

>  <SCORE.INTRA.DIHEDRAL.0>
24.3688

>  <SCORE.INTRA.POLAR>
0

>  <SCORE.INTRA.POLAR.0>
0

>  <SCORE.INTRA.REPUL>
0

>  <SCORE.INTRA.REPUL.0>
0

>  <SCORE.INTRA.VDW>
2.46595

>  <SCORE.INTRA.VDW.0>
-4.37746

>  <SCORE.INTRA.norm>
-0.193113

>  <SCORE.RESTR>
0.00641245

>  <SCORE.RESTR.CAVITY>
0.00641245

>  <SCORE.RESTR.norm>
0.000256498

>  <SCORE.SYSTEM>
1.84101

>  <SCORE.SYSTEM.CONST>
0

>  <SCORE.SYSTEM.DIHEDRAL>
3.21258

>  <SCORE.SYSTEM.VDW>
0.234715

>  <SCORE.SYSTEM.norm>
0.0736402

>  <SCORE.heavy>
25

>  <SCORE.norm>
-0.758016

>  <SMILES>
CO[C@@H]1O[C@H](CO)[C@@H](O)[C@@H](OS(C)(=O)=O)[C@H]1/N=C(\O)c1ccccc1

>  <UniqueID>
336

$$$$
ZINC000019898298
  rDOCK(R)          3D
libRbt.so/2013.1/901 2013/11/27
 25 26  0  0  0  0  0  0  0  0999 V2000
   88.9892   15.7958 -104.2644 H   0  0  0  0  0  0
   89.4220   16.6767 -104.5100 O   0  0  0  0  0  0
   88.9224   17.9071 -104.0745 C   0  0  0  0  0  0
   87.8431   17.9479 -103.3494 N   0  0  0  0  0  0
   87.0814   16.7768 -102.9072 C   0  0  0  0  0  0
   86.5513   16.0155 -104.1370 C   0  0  0  0  0  0
   85.8573   16.8883 -104.9965 O   0  0  0  0  0  0
   86.5030   17.5825 -105.2913 H   0  0  0  0  0  0
   85.6113   14.8806 -103.6898 C   0  0  0  0  0  0
   84.9933   14.3076 -104.8137 O   0  0  0  0  0  0
   85.7147   13.8969 -105.3586 H   0  0  0  0  0  0
   84.5428   15.4316 -102.7128 C   0  0  0  0  0  0
   83.6421   14.3107 -102.1726 C   0  0  0  0  0  0
   82.7501   13.8661 -103.1613 O   0  0  0  0  0  0
   83.2912   13.6299 -103.9592 H   0  0  0  0  0  0
   85.1724   16.0521 -101.6039 O   0  0  0  0  0  0
   85.8997   17.2014 -102.0083 C   0  0  0  0  0  0
   86.4121   17.8444 -100.8570 O   0  0  0  0  0  0
   85.3683   18.4730 -100.1457 C   0  0  0  0  0  0
   89.6078   19.1750 -104.4265 C   0  0  0  0  0  0
   90.6698   19.1906 -105.3506 C   0  0  0  0  0  0
   91.3064   20.3923 -105.6773 C   0  0  0  0  0  0
   90.8898   21.5894 -105.0914 C   0  0  0  0  0  0
   89.8316   21.5888 -104.1806 C   0  0  0  0  0  0
   89.1905   20.3909 -103.8507 C   0  0  0  0  0  0
  1  2  1  0  0  0
  2  3  1  0  0  0
  3  4  2  0  0  0
  3 20  1  0  0  0
  4  5  1  0  0  0
  5  6  1  0  0  0
  6  7  1  0  0  0
  6  9  1  0  0  0
  7  8  1  0  0  0
  9 10  1  0  0  0
  9 12  1  0  0  0
 10 11  1  0  0  0
 12 13  1  0  0  0
 12 16  1  0  0  0
 13 14  1  0  0  0
 14 15  1  0  0  0
 16 17  1  0  0  0
 17 18  1  0  0  0
 17  5  1  0  0  0
 18 19  1  0  0  0
 20 21  2  0  0  0
 21 22  1  0  0  0
 22 23  2  0  0  0
 23 24  1  0  0  0
 24 25  2  0  0  0
 25 20  1  0  0  0
M  END
>  <CHROM.0>
-177.23081396,153.37183546,-65.74520733

>  <CHROM.1>
-1.60499698,8.56644055,-61.68168503,60.89353619,64.01126490,-73.35523362
53.28943446,168.57765494,87.07892225,17.33949927,-103.48257343,-0.24215035
-0.71823589,-2.28948983

>  <Energy>
44.03981716778473

>  <Genealogy>
CO[C@@H]1O[C@H](CO)[C@@H](O)[C@@H](O)[C@H]1N=C(O)c1ccccc1 (tautomer)
CO[C@@H]1O[C@H](CO)[C@@H](O)[C@@H](O)[C@H]1/N=C(/O)c1ccccc1 (cis-trans isomerization)
CO[C@@H]1O[C@H](CO)[C@@H](O)[C@@H](O)[C@H]1/N=C(/O)c1ccccc1 (3D coordinates assigned)
CO[C@@H]1O[C@H](CO)[C@@H](O)[C@@H](O)[C@H]1/N=C(/O)c1ccccc1 (nonaromatic ring conformer: 44.03981716778473 kcal/mol)

>  <Name>
ZINC000019898298

>  <RI>
3.62712e+07

>  <Rbt.Current_Directory>
/home/edward/Documentos/Virtual_Screening/rDock/3

>  <Rbt.Executable>
rbdock ($Id: //depot/dev/client3/rdock/2013.1/src/exe/rbdock.cxx#4 $)

>  <Rbt.Library>
libRbt.so (2013.1, Build901 2013/11/27)

>  <Rbt.Parameter_File>
/home/edward/anaconda3/envs/MD/share/rdock-2013.1-1/data/scripts/dock.prm

>  <Rbt.Receptor>
parameters.prm

>  <SCORE>
-18.0528

>  <SCORE.INTER>
-13.0844

>  <SCORE.INTER.CONST>
1

>  <SCORE.INTER.POLAR>
-2.10884

>  <SCORE.INTER.REPUL>
0

>  <SCORE.INTER.ROT>
4

>  <SCORE.INTER.VDW>
-15.3143

>  <SCORE.INTER.norm>
-0.623066

>  <SCORE.INTRA>
-6.7241

>  <SCORE.INTRA.DIHEDRAL>
-11.6928

>  <SCORE.INTRA.DIHEDRAL.0>
15.9185

>  <SCORE.INTRA.POLAR>
-0.719404

>  <SCORE.INTRA.POLAR.0>
0

>  <SCORE.INTRA.REPUL>
0

>  <SCORE.INTRA.REPUL.0>
0

>  <SCORE.INTRA.VDW>
1.56828

>  <SCORE.INTRA.VDW.0>
-2.14531

>  <SCORE.INTRA.norm>
-0.320195

>  <SCORE.RESTR>
0

>  <SCORE.RESTR.CAVITY>
0

>  <SCORE.RESTR.norm>
0

>  <SCORE.SYSTEM>
1.75569

>  <SCORE.SYSTEM.CONST>
0

>  <SCORE.SYSTEM.DIHEDRAL>
3.32261

>  <SCORE.SYSTEM.VDW>
0.0943885

>  <SCORE.SYSTEM.norm>
0.0836044

>  <SCORE.heavy>
21

>  <SCORE.norm>
-0.859657

>  <SMILES>
CO[C@@H]1O[C@H](CO)[C@@H](O)[C@@H](O)[C@H]1/N=C(/O)c1ccccc1

>  <UniqueID>
338

$$$$
ZINC000032106887
  rDOCK(R)          3D
libRbt.so/2013.1/901 2013/11/27
 23 25  0  0  0  0  0  0  0  0999 V2000
   86.1340   24.2993 -102.2191 H   0  0  0  0  0  0
   86.2610   24.6022 -103.1558 O   0  0  0  0  0  0
   87.3004   25.5503 -103.1446 C   0  0  0  0  0  0
   88.6305   24.8598 -102.8259 C   0  0  0  0  0  0
   88.8554   23.7766 -103.7062 O   0  0  0  0  0  0
   90.1050   23.1711 -103.4023 C   0  0  0  0  0  0
   90.3464   22.0622 -104.3922 C   0  0  0  0  0  0
   90.6493   22.3682 -105.7308 C   0  0  0  0  0  0
   90.8743   21.3443 -106.6560 C   0  0  0  0  0  0
   90.7988   20.0082 -106.2541 C   0  0  0  0  0  0
   90.4979   19.6938 -104.9262 C   0  0  0  0  0  0
   90.2720   20.7144 -103.9971 C   0  0  0  0  0  0
   90.0985   22.6110 -102.0963 O   0  0  0  0  0  0
   89.9216   23.6296 -101.1307 C   0  0  0  0  0  0
   88.6041   24.3596 -101.3759 C   0  0  0  0  0  0
   88.4629   25.4445 -100.4752 O   0  0  0  0  0  0
   87.1999   26.0831 -100.6450 C   0  0  0  0  0  0
   86.1282   25.2041 -100.3377 O   0  0  0  0  0  0
   86.0931   24.9474  -98.9509 C   0  0  0  0  0  0
   87.0405   26.6429 -102.0798 C   0  0  0  0  0  0
   85.7138   27.2328 -102.2394 N   0  0  0  0  0  0
   84.7285   26.5298 -102.4674 N   0  3  0  0  0  0
   83.7445   25.8278 -102.6947 N   0  5  0  0  0  0
  1  2  1  0  0  0
  2  3  1  0  0  0
  3  4  1  0  0  0
  4  5  1  0  0  0
  5  6  1  0  0  0
  6  7  1  0  0  0
  6 13  1  0  0  0
  7  8  2  0  0  0
  8  9  1  0  0  0
  9 10  2  0  0  0
 10 11  1  0  0  0
 11 12  2  0  0  0
 12  7  1  0  0  0
 13 14  1  0  0  0
 14 15  1  0  0  0
 15 16  1  0  0  0
 15  4  1  0  0  0
 16 17  1  0  0  0
 17 18  1  0  0  0
 17 20  1  0  0  0
 18 19  1  0  0  0
 20 21  1  0  0  0
 20  3  1  0  0  0
 21 22  2  0  0  0
 22 23  2  0  0  0
M  END
>  <CHROM.0>
179.06492184,152.59139666,-51.67925996

>  <CHROM.1>
69.02122510,71.27938498,69.74852193,43.06216428,88.21457281,23.99602459,-102.76383825
2.42764052,-0.63720606,1.26129083

>  <Energy>
48.67850952369678

>  <Genealogy>
CO[C@H]1O[C@@H]2CO[C@@H](c3ccccc3)O[C@H]2[C@@H](O)[C@H]1N=[N+]=[N-] (cis-trans isomerization)
CO[C@H]1O[C@@H]2CO[C@@H](c3ccccc3)O[C@H]2[C@@H](O)[C@H]1N=[N+]=[N-] (3D coordinates assigned)
CO[C@H]1O[C@@H]2CO[C@@H](c3ccccc3)O[C@H]2[C@@H](O)[C@H]1N=[N+]=[N-] (nonaromatic ring conformer: 48.67850952369678 kcal/mol)

>  <Name>
ZINC000032106887

>  <RI>
3.62712e+07

>  <Rbt.Current_Directory>
/home/edward/Documentos/Virtual_Screening/rDock/3

>  <Rbt.Executable>
rbdock ($Id: //depot/dev/client3/rdock/2013.1/src/exe/rbdock.cxx#4 $)

>  <Rbt.Library>
libRbt.so (2013.1, Build901 2013/11/27)

>  <Rbt.Parameter_File>
/home/edward/anaconda3/envs/MD/share/rdock-2013.1-1/data/scripts/dock.prm

>  <Rbt.Receptor>
parameters.prm

>  <SCORE>
-14.042

>  <SCORE.INTER>
-13.4996

>  <SCORE.INTER.CONST>
1

>  <SCORE.INTER.POLAR>
-2.13939

>  <SCORE.INTER.REPUL>
0.0132399

>  <SCORE.INTER.ROT>
3

>  <SCORE.INTER.VDW>
-14.6919

>  <SCORE.INTER.norm>
-0.613619

>  <SCORE.INTRA>
-2.65196

>  <SCORE.INTRA.DIHEDRAL>
-2.77941

>  <SCORE.INTRA.DIHEDRAL.0>
6.35094

>  <SCORE.INTRA.POLAR>
-0.718677

>  <SCORE.INTRA.POLAR.0>
0

>  <SCORE.INTRA.REPUL>
0

>  <SCORE.INTRA.REPUL.0>
0

>  <SCORE.INTRA.VDW>
1.18125

>  <SCORE.INTRA.VDW.0>
-1.24664

>  <SCORE.INTRA.norm>
-0.120544

>  <SCORE.RESTR>
0

>  <SCORE.RESTR.CAVITY>
0

>  <SCORE.RESTR.norm>
0

>  <SCORE.SYSTEM>
2.10962

>  <SCORE.SYSTEM.CONST>
0

>  <SCORE.SYSTEM.DIHEDRAL>
3.99842

>  <SCORE.SYSTEM.VDW>
0.110409

>  <SCORE.SYSTEM.norm>
0.0958918

>  <SCORE.heavy>
22

>  <SCORE.norm>
-0.638271

>  <SMILES>
CO[C@H]1O[C@@H]2CO[C@@H](c3ccccc3)O[C@H]2[C@@H](O)[C@H]1N=[N+]=[N-]

>  <UniqueID>
340

$$$$
ZINC000032106889
  rDOCK(R)          3D
libRbt.so/2013.1/901 2013/11/27
 23 25  0  0  0  0  0  0  0  0999 V2000
   88.6630   19.6385 -103.1896 H   0  0  0  0  0  0
   88.9278   20.5100 -102.7947 O   0  0  0  0  0  0
   90.3344   20.5426 -102.7744 C   0  0  0  0  0  0
   90.8684   20.7065 -104.2017 C   0  0  0  0  0  0
   90.2757   21.8365 -104.8171 O   0  0  0  0  0  0
   90.4896   21.8687 -106.2282 C   0  0  0  0  0  0
   90.8791   23.2686 -106.6211 C   0  0  0  0  0  0
   90.2582   23.9115 -107.7068 C   0  0  0  0  0  0
   90.6343   25.2097 -108.0660 C   0  0  0  0  0  0
   91.6325   25.8744 -107.3487 C   0  0  0  0  0  0
   92.2578   25.2417 -106.2710 C   0  0  0  0  0  0
   91.8853   23.9439 -105.9081 C   0  0  0  0  0  0
   91.5095   20.9796 -106.6655 O   0  0  0  0  0  0
   91.1156   19.6382 -106.4390 C   0  0  0  0  0  0
   90.5894   19.4255 -105.0076 C   0  0  0  0  0  0
   91.2255   18.3063 -104.4113 O   0  0  0  0  0  0
   90.6952   18.0396 -103.1171 C   0  0  0  0  0  0
   89.3194   17.6955 -103.1797 O   0  0  0  0  0  0
   89.1603   16.4437 -103.8105 C   0  0  0  0  0  0
   90.9059   19.2454 -102.1666 C   0  0  0  0  0  0
   90.3021   18.9953 -100.8600 N   0  0  0  0  0  0
   90.9701   19.0552  -99.8270 N   0  3  0  0  0  0
   91.6374   19.1146  -98.7956 N   0  5  0  0  0  0
  1  2  1  0  0  0
  2  3  1  0  0  0
  3  4  1  0  0  0
  4  5  1  0  0  0
  5  6  1  0  0  0
  6  7  1  0  0  0
  6 13  1  0  0  0
  7  8  2  0  0  0
  8  9  1  0  0  0
  9 10  2  0  0  0
 10 11  1  0  0  0
 11 12  2  0  0  0
 12  7  1  0  0  0
 13 14  1  0  0  0
 14 15  1  0  0  0
 15 16  1  0  0  0
 15  4  1  0  0  0
 16 17  1  0  0  0
 17 18  1  0  0  0
 17 20  1  0  0  0
 18 19  1  0  0  0
 20 21  1  0  0  0
 20  3  1  0  0  0
 21 22  2  0  0  0
 22 23  2  0  0  0
M  END
>  <CHROM.0>
179.33899150,153.03672818,-65.37922042

>  <CHROM.1>
71.71888301,-131.96160398,68.21842246,-112.91681013,90.68490874,20.78899010
-104.35540985,1.98961006,1.31675489,1.99067557

>  <Energy>
56.57042815659804

>  <Genealogy>
CO[C@H]1O[C@@H]2CO[C@H](c3ccccc3)O[C@H]2[C@@H](O)[C@H]1N=[N+]=[N-] (cis-trans isomerization)
CO[C@H]1O[C@@H]2CO[C@H](c3ccccc3)O[C@H]2[C@@H](O)[C@H]1N=[N+]=[N-] (3D coordinates assigned)
CO[C@H]1O[C@@H]2CO[C@H](c3ccccc3)O[C@H]2[C@@H](O)[C@H]1N=[N+]=[N-] (nonaromatic ring conformer: 56.57042815659804 kcal/mol)

>  <Name>
ZINC000032106889

>  <RI>
3.62712e+07

>  <Rbt.Current_Directory>
/home/edward/Documentos/Virtual_Screening/rDock/3

>  <Rbt.Executable>
rbdock ($Id: //depot/dev/client3/rdock/2013.1/src/exe/rbdock.cxx#4 $)

>  <Rbt.Library>
libRbt.so (2013.1, Build901 2013/11/27)

>  <Rbt.Parameter_File>
/home/edward/anaconda3/envs/MD/share/rdock-2013.1-1/data/scripts/dock.prm

>  <Rbt.Receptor>
parameters.prm

>  <SCORE>
-16.1494

>  <SCORE.INTER>
-13.6665

>  <SCORE.INTER.CONST>
1

>  <SCORE.INTER.POLAR>
-1.66485

>  <SCORE.INTER.REPUL>
0

>  <SCORE.INTER.ROT>
3

>  <SCORE.INTER.VDW>
-16.406

>  <SCORE.INTER.norm>
-0.621203

>  <SCORE.INTRA>
-4.22302

>  <SCORE.INTRA.DIHEDRAL>
-4.56152

>  <SCORE.INTRA.DIHEDRAL.0>
6.4182

>  <SCORE.INTRA.POLAR>
-0.762127

>  <SCORE.INTRA.POLAR.0>
0

>  <SCORE.INTRA.REPUL>
0

>  <SCORE.INTRA.REPUL.0>
0

>  <SCORE.INTRA.VDW>
0.648976

>  <SCORE.INTRA.VDW.0>
-1.43799

>  <SCORE.INTRA.norm>
-0.191955

>  <SCORE.RESTR>
0

>  <SCORE.RESTR.CAVITY>
0

>  <SCORE.RESTR.norm>
0

>  <SCORE.SYSTEM>
1.74005

>  <SCORE.SYSTEM.CONST>
0

>  <SCORE.SYSTEM.DIHEDRAL>
3.35449

>  <SCORE.SYSTEM.VDW>
0.0628108

>  <SCORE.SYSTEM.norm>
0.0790934

>  <SCORE.heavy>
22

>  <SCORE.norm>
-0.734065

>  <SMILES>
CO[C@H]1O[C@@H]2CO[C@H](c3ccccc3)O[C@H]2[C@@H](O)[C@H]1N=[N+]=[N-]

>  <UniqueID>
343

$$$$
ZINC000044021353
  rDOCK(R)          3D
libRbt.so/2013.1/901 2013/11/27
 25 26  0  0  0  0  0  0  0  0999 V2000
   90.4085   22.1888  -98.7131 C   0  0  0  0  0  0
   90.9051   21.5750  -99.8981 O   0  0  0  0  0  0
   90.1141   20.8640 -100.8128 C   0  0  0  0  0  0
   90.5259   20.8126 -102.1490 C   0  0  0  0  0  0
   89.7729   20.1173 -103.0996 C   0  0  0  0  0  0
   88.5888   19.4586 -102.7236 C   0  0  0  0  0  0
   87.7742   18.7193 -103.7076 C   0  0  0  0  0  0
   86.6967   18.0930 -103.3457 N   0  0  0  0  0  0
   85.8587   17.3371 -104.2786 C   0  0  0  0  0  0
   84.3827   17.4781 -103.8713 C   0  0  0  0  0  0
   84.0282   18.8364 -103.8122 O   0  0  0  0  0  0
   84.1043   16.7648 -102.5237 C   0  0  0  0  0  0
   84.3964   17.6154 -101.4419 O   0  0  0  0  0  0
   84.9666   15.4795 -102.3991 C   0  0  0  0  0  0
   84.2351   14.3818 -101.6179 C   0  0  0  0  0  0
   83.2146   13.8225 -102.3992 O   0  0  0  0  0  0
   85.3104   14.9883 -103.6828 O   0  0  0  0  0  0
   86.2766   15.8298 -104.2962 C   0  0  0  0  0  0
   86.4366   15.4055 -105.6239 O   0  0  0  0  0  0
   88.1744   19.5099 -101.3843 C   0  0  0  0  0  0
   88.9287   20.2057 -100.4346 C   0  0  0  0  0  0
   84.6637   19.2694 -103.1841 H   0  0  0  0  0  0
   83.7002   18.3232 -101.4293 H   0  0  0  0  0  0
   82.6136   14.5730 -102.6446 H   0  0  0  0  0  0
   86.7248   14.4555 -105.5900 H   0  0  0  0  0  0
  1  2  1  0  0  0
  2  3  1  0  0  0
  3  4  2  0  0  0
  4  5  1  0  0  0
  5  6  2  0  0  0
  6  7  1  0  0  0
  6 20  1  0  0  0
  7  8  2  0  0  0
  8  9  1  0  0  0
  9 10  1  0  0  0
 10 11  1  0  0  0
 10 12  1  0  0  0
 11 22  1  0  0  0
 12 13  1  0  0  0
 12 14  1  0  0  0
 13 23  1  0  0  0
 14 15  1  0  0  0
 14 17  1  0  0  0
 15 16  1  0  0  0
 16 24  1  0  0  0
 17 18  1  0  0  0
 18 19  1  0  0  0
 18  9  1  0  0  0
 19 25  1  0  0  0
 20 21  2  0  0  0
 21  3  1  0  0  0
M  END
>  <CHROM.0>
-177.68969750,154.19015981,-64.43071024

>  <CHROM.1>
152.62285696,178.65073527,-144.70622594,-55.88604772,70.71154659,73.50026915
-58.14536112,178.47905464,86.80136886,17.99078560,-102.49492522,0.56513257
0.64870967,1.19532562

>  <Energy>
44.95658007118678

>  <Genealogy>
COc1ccc(/C=N/[C@@H]2[C@H](O)[C@H](O)[C@@H](CO)O[C@H]2O)cc1 (3D coordinates assigned)
COc1ccc(/C=N/[C@@H]2[C@H](O)[C@H](O)[C@@H](CO)O[C@H]2O)cc1 (nonaromatic ring conformer: 44.95658007118678 kcal/mol)

>  <Name>
ZINC000044021353

>  <RI>
3.62712e+07

>  <Rbt.Current_Directory>
/home/edward/Documentos/Virtual_Screening/rDock/3

>  <Rbt.Executable>
rbdock ($Id: //depot/dev/client3/rdock/2013.1/src/exe/rbdock.cxx#4 $)

>  <Rbt.Library>
libRbt.so (2013.1, Build901 2013/11/27)

>  <Rbt.Parameter_File>
/home/edward/anaconda3/envs/MD/share/rdock-2013.1-1/data/scripts/dock.prm

>  <Rbt.Receptor>
parameters.prm

>  <SCORE>
-17.2583

>  <SCORE.INTER>
-16.9525

>  <SCORE.INTER.CONST>
1

>  <SCORE.INTER.POLAR>
-3.0743

>  <SCORE.INTER.REPUL>
0.0357259

>  <SCORE.INTER.ROT>
4

>  <SCORE.INTER.VDW>
-16.0786

>  <SCORE.INTER.norm>
-0.807264

>  <SCORE.INTRA>
-2.06179

>  <SCORE.INTRA.DIHEDRAL>
-3.71392

>  <SCORE.INTRA.DIHEDRAL.0>
7.00086

>  <SCORE.INTRA.POLAR>
-0.0500396

>  <SCORE.INTRA.POLAR.0>
0

>  <SCORE.INTRA.REPUL>
0

>  <SCORE.INTRA.REPUL.0>
0

>  <SCORE.INTRA.VDW>
-0.0346963

>  <SCORE.INTRA.VDW.0>
-0.547746

>  <SCORE.INTRA.norm>
-0.0981804

>  <SCORE.RESTR>
0

>  <SCORE.RESTR.CAVITY>
0

>  <SCORE.RESTR.norm>
0

>  <SCORE.SYSTEM>
1.75605

>  <SCORE.SYSTEM.CONST>
0

>  <SCORE.SYSTEM.DIHEDRAL>
3.18223

>  <SCORE.SYSTEM.VDW>
0.164932

>  <SCORE.SYSTEM.norm>
0.0836214

>  <SCORE.heavy>
21

>  <SCORE.norm>
-0.821823

>  <SMILES>
COc1ccc(/C=N/[C@@H]2[C@H](O)[C@H](O)[C@@H](CO)O[C@H]2O)cc1

>  <UniqueID>
347

$$$$
ZINC000056871016
  rDOCK(R)          3D
libRbt.so/2013.1/901 2013/11/27
 20 20  0  0  0  0  0  0  0  0999 V2000
   90.1489   17.4748 -101.8942 C   0  0  0  0  0  0
   90.0633   17.0402 -103.2341 O   0  0  0  0  0  0
   90.8915   17.8391 -104.0583 C   0  0  0  0  0  0
   90.2890   19.1136 -104.2197 O   0  0  0  0  0  0
   91.1350   19.9813 -104.9560 C   0  0  0  0  0  0
   90.5157   21.3866 -104.9496 C   0  0  0  0  0  0
   91.3490   22.2900 -105.6260 O   0  0  0  0  0  0
   91.2983   19.4614 -106.4029 C   0  0  0  0  0  0
   92.1594   20.3060 -107.1233 O   0  0  0  0  0  0
   91.8545   18.0225 -106.3874 C   0  0  0  0  0  0
   93.2000   18.0232 -105.9747 O   0  0  0  0  0  0
   91.0201   17.1469 -105.4325 C   0  0  0  0  0  0
   91.6304   15.8192 -105.2917 N   0  0  0  0  0  0
   90.8797   14.6086 -105.4546 C   0  0  0  0  0  0
   91.5690   13.2869 -105.3564 C   0  0  0  0  0  0
   89.6411   14.6501 -105.6880 O   0  0  0  0  0  0
   90.9170   23.1817 -105.5631 H   0  0  0  0  0  0
   91.7335   21.2030 -107.1373 H   0  0  0  0  0  0
   93.2175   18.3622 -105.0421 H   0  0  0  0  0  0
   92.6416   15.7412 -105.0369 H   0  0  0  0  0  0
  1  2  1  0  0  0
  2  3  1  0  0  0
  3  4  1  0  0  0
  4  5  1  0  0  0
  5  6  1  0  0  0
  5  8  1  0  0  0
  6  7  1  0  0  0
  7 17  1  0  0  0
  8  9  1  0  0  0
  8 10  1  0  0  0
  9 18  1  0  0  0
 10 11  1  0  0  0
 10 12  1  0  0  0
 11 19  1  0  0  0
 12 13  1  0  0  0
 12  3  1  0  0  0
 13 14  1  0  0  0
 13 20  1  0  0  0
 14 15  1  0  0  0
 14 16  2  0  0  0
M  END
>  <CHROM.0>
-178.53681928,153.30260503,-66.70360543

>  <CHROM.1>
-73.35183426,177.75896223,-178.07230030,-61.15081539,63.19939576,108.16980872
91.11790563,17.96041219,-105.12447671,1.72669036,-1.04698702,-3.11293291

>  <Energy>
27.914696627426146

>  <Genealogy>
CO[C@@H]1O[C@H](CO)[C@@H](O)[C@@H](O)[C@H]1NC(C)=O (3D coordinates assigned)
CO[C@@H]1O[C@H](CO)[C@@H](O)[C@@H](O)[C@H]1NC(C)=O (nonaromatic ring conformer: 27.914696627426146 kcal/mol)

>  <Name>
ZINC000056871016

>  <RI>
3.62712e+07

>  <Rbt.Current_Directory>
/home/edward/Documentos/Virtual_Screening/rDock/3

>  <Rbt.Executable>
rbdock ($Id: //depot/dev/client3/rdock/2013.1/src/exe/rbdock.cxx#4 $)

>  <Rbt.Library>
libRbt.so (2013.1, Build901 2013/11/27)

>  <Rbt.Parameter_File>
/home/edward/anaconda3/envs/MD/share/rdock-2013.1-1/data/scripts/dock.prm

>  <Rbt.Receptor>
parameters.prm

>  <SCORE>
-18.3561

>  <SCORE.INTER>
-16.6113

>  <SCORE.INTER.CONST>
1

>  <SCORE.INTER.POLAR>
-2.72915

>  <SCORE.INTER.REPUL>
0

>  <SCORE.INTER.ROT>
3

>  <SCORE.INTER.VDW>
-15.7322

>  <SCORE.INTER.norm>
-1.0382

>  <SCORE.INTRA>
-3.73274

>  <SCORE.INTRA.DIHEDRAL>
-6.06978

>  <SCORE.INTRA.DIHEDRAL.0>
8.19339

>  <SCORE.INTRA.POLAR>
-0.526041

>  <SCORE.INTRA.POLAR.0>
0

>  <SCORE.INTRA.REPUL>
0

>  <SCORE.INTRA.REPUL.0>
0

>  <SCORE.INTRA.VDW>
1.0907

>  <SCORE.INTRA.VDW.0>
-1.43463

>  <SCORE.INTRA.norm>
-0.233296

>  <SCORE.RESTR>
0.248158

>  <SCORE.RESTR.CAVITY>
0.248158

>  <SCORE.RESTR.norm>
0.0155099

>  <SCORE.SYSTEM>
1.73978

>  <SCORE.SYSTEM.CONST>
0

>  <SCORE.SYSTEM.DIHEDRAL>
3.29666

>  <SCORE.SYSTEM.VDW>
0.0914519

>  <SCORE.SYSTEM.norm>
0.108736

>  <SCORE.heavy>
16

>  <SCORE.norm>
-1.14725

>  <SMILES>
CO[C@@H]1O[C@H](CO)[C@@H](O)[C@@H](O)[C@H]1NC(C)=O

>  <UniqueID>
349

$$$$
ZINC000077269504
  rDOCK(R)          3D
libRbt.so/2013.1/901 2013/11/27
 25 27  0  0  0  0  0  0  0  0999 V2000
   86.4716   14.8896 -100.0793 H   0  0  0  0  0  0
   87.0222   15.0315 -100.9177 O   0  0  0  0  0  0
   86.6063   14.5254 -102.1488 C   0  0  0  0  0  0
   87.3383   14.6818 -103.2111 N   0  0  0  0  0  0
   88.6107   15.4071 -103.2407 C   0  0  0  0  0  0
   89.6413   14.6330 -104.1046 C   0  0  0  0  0  0
   89.1268   14.3304 -105.3804 O   0  0  0  0  0  0
   88.7999   15.1812 -105.7740 H   0  0  0  0  0  0
   90.8680   15.3432 -104.2218 O   0  0  0  0  0  0
   90.6630   16.6073 -104.8294 C   0  0  0  0  0  0
   91.9942   17.3293 -105.0208 C   0  0  0  0  0  0
   91.7722   18.6281 -105.5358 O   0  0  0  0  0  0
   90.9557   19.3742 -104.6438 C   0  0  0  0  0  0
   90.7891   20.7622 -105.2031 C   0  0  0  0  0  0
   90.5781   21.8620 -104.3519 C   0  0  0  0  0  0
   90.4264   23.1464 -104.8840 C   0  0  0  0  0  0
   90.4843   23.3444 -106.2660 C   0  0  0  0  0  0
   90.6946   22.2582 -107.1194 C   0  0  0  0  0  0
   90.8471   20.9722 -106.5924 C   0  0  0  0  0  0
   89.6679   18.7867 -104.5160 O   0  0  0  0  0  0
   89.7906   17.5017 -103.9393 C   0  0  0  0  0  0
   88.4132   16.8476 -103.7630 C   0  0  0  0  0  0
   87.7118   16.8267 -104.9822 O   0  0  0  0  0  0
   87.6387   17.7677 -105.2898 H   0  0  0  0  0  0
   85.3262   13.7600 -102.2439 C   0  0  0  0  0  0
  1  2  1  0  0  0
  2  3  1  0  0  0
  3  4  2  0  0  0
  3 25  1  0  0  0
  4  5  1  0  0  0
  5  6  1  0  0  0
  6  7  1  0  0  0
  6  9  1  0  0  0
  7  8  1  0  0  0
  9 10  1  0  0  0
 10 11  1  0  0  0
 11 12  1  0  0  0
 12 13  1  0  0  0
 13 14  1  0  0  0
 13 20  1  0  0  0
 14 15  2  0  0  0
 15 16  1  0  0  0
 16 17  2  0  0  0
 17 18  1  0  0  0
 18 19  2  0  0  0
 19 14  1  0  0  0
 20 21  1  0  0  0
 21 22  1  0  0  0
 21 10  1  0  0  0
 22 23  1  0  0  0
 22  5  1  0  0  0
 23 24  1  0  0  0
M  END
>  <CHROM.0>
-179.61461296,152.87973121,-66.44222594

>  <CHROM.1>
-178.10385743,138.01219165,53.00357398,-151.37238066,-178.08868386,89.46683624
17.68452117,-104.38733625,2.06901140,-0.56216674,3.04107880

>  <Energy>
48.030951432770756

>  <Genealogy>
CC(O)=N[C@H]1[C@@H](O)O[C@@H]2CO[C@@H](c3ccccc3)O[C@H]2[C@H]1O (tautomer)
C/C(O)=N/[C@H]1[C@@H](O)O[C@@H]2CO[C@@H](c3ccccc3)O[C@H]2[C@H]1O (cis-trans isomerization)
C/C(O)=N/[C@H]1[C@@H](O)O[C@@H]2CO[C@@H](c3ccccc3)O[C@H]2[C@H]1O (3D coordinates assigned)
C/C(O)=N/[C@H]1[C@@H](O)O[C@@H]2CO[C@@H](c3ccccc3)O[C@H]2[C@H]1O (nonaromatic ring conformer: 48.030951432770756 kcal/mol)

>  <Name>
ZINC000077269504

>  <RI>
3.62712e+07

>  <Rbt.Current_Directory>
/home/edward/Documentos/Virtual_Screening/rDock/3

>  <Rbt.Executable>
rbdock ($Id: //depot/dev/client3/rdock/2013.1/src/exe/rbdock.cxx#4 $)

>  <Rbt.Library>
libRbt.so (2013.1, Build901 2013/11/27)

>  <Rbt.Parameter_File>
/home/edward/anaconda3/envs/MD/share/rdock-2013.1-1/data/scripts/dock.prm

>  <Rbt.Receptor>
parameters.prm

>  <SCORE>
-17.2918

>  <SCORE.INTER>
-15.0051

>  <SCORE.INTER.CONST>
1

>  <SCORE.INTER.POLAR>
-2.28711

>  <SCORE.INTER.REPUL>
0.112218

>  <SCORE.INTER.ROT>
2

>  <SCORE.INTER.VDW>
-15.19

>  <SCORE.INTER.norm>
-0.682051

>  <SCORE.INTRA>
-4.02434

>  <SCORE.INTRA.DIHEDRAL>
-4.93245

>  <SCORE.INTRA.DIHEDRAL.0>
6.49346

>  <SCORE.INTRA.POLAR>
-0.685982

>  <SCORE.INTRA.POLAR.0>
0

>  <SCORE.INTRA.REPUL>
0

>  <SCORE.INTRA.REPUL.0>
0

>  <SCORE.INTRA.VDW>
0.774222

>  <SCORE.INTRA.VDW.0>
-1.65522

>  <SCORE.INTRA.norm>
-0.182925

>  <SCORE.RESTR>
0

>  <SCORE.RESTR.CAVITY>
0

>  <SCORE.RESTR.norm>
0

>  <SCORE.SYSTEM>
1.73771

>  <SCORE.SYSTEM.CONST>
0

>  <SCORE.SYSTEM.DIHEDRAL>
3.36806

>  <SCORE.SYSTEM.VDW>
0.053678

>  <SCORE.SYSTEM.norm>
0.0789867

>  <SCORE.heavy>
22

>  <SCORE.norm>
-0.785989

>  <SMILES>
C/C(O)=N/[C@H]1[C@@H](O)O[C@@H]2CO[C@@H](c3ccccc3)O[C@H]2[C@H]1O

>  <UniqueID>
354

$$$$
ZINC000082114392
  rDOCK(R)          3D
libRbt.so/2013.1/901 2013/11/27
 18 18  0  0  0  0  0  0  0  0999 V2000
   89.9492   19.4644 -106.6906 C   0  0  0  0  0  0
   90.5405   18.2317 -106.3426 O   0  0  0  0  0  0
   90.5542   18.0777 -104.9313 C   0  0  0  0  0  0
   89.2574   17.7921 -104.4233 O   0  0  0  0  0  0
   88.7427   16.5748 -104.9427 C   0  0  0  0  0  0
   87.2999   16.4156 -104.4494 C   0  0  0  0  0  0
   86.6077   15.5372 -105.2933 O   0  0  0  0  0  0
   89.6172   15.3812 -104.4901 C   0  0  0  0  0  0
   89.1268   14.1767 -105.0256 O   0  0  0  0  0  0
   91.0684   15.5902 -104.9560 C   0  0  0  0  0  0
   91.1598   15.4710 -106.3553 O   0  0  0  0  0  0
   91.5609   16.9814 -104.5151 C   0  0  0  0  0  0
   92.8845   17.2595 -105.0776 N   0  0  0  0  0  0
   87.0940   14.6730 -105.2505 H   0  0  0  0  0  0
   89.7388   13.4528 -104.7307 H   0  0  0  0  0  0
   90.5987   16.1907 -106.7461 H   0  0  0  0  0  0
   93.4476   16.3784 -105.0437 H   0  0  0  0  0  0
   93.3735   17.9379 -104.4493 H   0  0  0  0  0  0
  1  2  1  0  0  0
  2  3  1  0  0  0
  3  4  1  0  0  0
  4  5  1  0  0  0
  5  6  1  0  0  0
  5  8  1  0  0  0
  6  7  1  0  0  0
  7 14  1  0  0  0
  8  9  1  0  0  0
  8 10  1  0  0  0
  9 15  1  0  0  0
 10 11  1  0  0  0
 10 12  1  0  0  0
 11 16  1  0  0  0
 12 13  1  0  0  0
 12  3  1  0  0  0
 13 17  1  0  0  0
 13 18  1  0  0  0
M  END
>  <CHROM.0>
-177.93341198,152.48714557,50.33809338

>  <CHROM.1>
73.67869938,158.39474888,60.16202549,178.11822980,62.14237136,-162.20719519
89.86140314,16.65959376,-105.22717847,0.55353771,0.04647826,-0.20320424

>  <Energy>
27.24741682763604

>  <Genealogy>
CO[C@H]1O[C@H](CO)[C@@H](O)[C@@H](O)[C@H]1N (3D coordinates assigned)
CO[C@H]1O[C@H](CO)[C@@H](O)[C@@H](O)[C@H]1N (nonaromatic ring conformer: 27.24741682763604 kcal/mol)

>  <Name>
ZINC000082114392

>  <RI>
3.62712e+07

>  <Rbt.Current_Directory>
/home/edward/Documentos/Virtual_Screening/rDock/3

>  <Rbt.Executable>
rbdock ($Id: //depot/dev/client3/rdock/2013.1/src/exe/rbdock.cxx#4 $)

>  <Rbt.Library>
libRbt.so (2013.1, Build901 2013/11/27)

>  <Rbt.Parameter_File>
/home/edward/anaconda3/envs/MD/share/rdock-2013.1-1/data/scripts/dock.prm

>  <Rbt.Receptor>
parameters.prm

>  <SCORE>
-23.2046

>  <SCORE.INTER>
-19.7129

>  <SCORE.INTER.CONST>
1

>  <SCORE.INTER.POLAR>
-4.81675

>  <SCORE.INTER.REPUL>
0

>  <SCORE.INTER.ROT>
3

>  <SCORE.INTER.VDW>
-11.736

>  <SCORE.INTER.norm>
-1.51638

>  <SCORE.INTRA>
-6.18453

>  <SCORE.INTRA.DIHEDRAL>
-4.47204

>  <SCORE.INTRA.DIHEDRAL.0>
7.60758

>  <SCORE.INTRA.POLAR>
-1.27329

>  <SCORE.INTRA.POLAR.0>
0

>  <SCORE.INTRA.REPUL>
-0.0729404

>  <SCORE.INTRA.REPUL.0>
0.0729404

>  <SCORE.INTRA.VDW>
0.745376

>  <SCORE.INTRA.VDW.0>
-0.917882

>  <SCORE.INTRA.norm>
-0.475733

>  <SCORE.RESTR>
0.284543

>  <SCORE.RESTR.CAVITY>
0.284543

>  <SCORE.RESTR.norm>
0.0218879

>  <SCORE.SYSTEM>
2.4083

>  <SCORE.SYSTEM.CONST>
0

>  <SCORE.SYSTEM.DIHEDRAL>
3.44688

>  <SCORE.SYSTEM.VDW>
0.684859

>  <SCORE.SYSTEM.norm>
0.185254

>  <SCORE.heavy>
13

>  <SCORE.norm>
-1.78497

>  <SMILES>
CO[C@H]1O[C@H](CO)[C@@H](O)[C@@H](O)[C@H]1N

>  <UniqueID>
355

$$$$
ZINC000100342293
  rDOCK(R)          3D
libRbt.so/2013.1/901 2013/11/27
 25 26  0  0  0  0  0  0  0  0999 V2000
   84.7377   16.0555 -100.0191 C   0  0  0  0  0  0
   84.9285   15.2202  -98.8819 O   0  0  0  0  0  0
   85.0985   13.8289  -98.9410 C   0  0  0  0  0  0
   84.3143   13.0066  -99.7717 C   0  0  0  0  0  0
   84.5223   11.6242  -99.7953 C   0  0  0  0  0  0
   85.5165   11.0403  -98.9901 C   0  0  0  0  0  0
   85.7550    9.5834  -98.9958 C   0  0  0  0  0  0
   85.1370    8.8079  -99.8335 N   0  0  0  0  0  0
   85.3315    7.3583  -99.8760 C   0  0  0  0  0  0
   83.9964    6.6136  -99.6462 C   0  0  0  0  0  0
   83.0016    7.0728 -100.5276 O   0  0  0  0  0  0
   84.1641    5.2067  -99.7479 O   0  0  0  0  0  0
   84.6204    4.8220 -101.0365 C   0  0  0  0  0  0
   84.6462    3.2890 -101.1026 C   0  0  0  0  0  0
   83.3478    2.7721 -100.9959 O   0  0  0  0  0  0
   86.0159    5.4227 -101.3285 C   0  0  0  0  0  0
   86.4443    5.0428 -102.6116 O   0  0  0  0  0  0
   85.9569    6.9585 -101.2216 C   0  0  0  0  0  0
   85.2035    7.4977 -102.2809 O   0  0  0  0  0  0
   86.2957   11.8632  -98.1632 C   0  0  0  0  0  0
   86.0867   13.2451  -98.1408 C   0  0  0  0  0  0
   82.9358    8.0534 -100.3886 H   0  0  0  0  0  0
   82.8310    3.1698 -101.7439 H   0  0  0  0  0  0
   85.7398    5.3367 -103.2465 H   0  0  0  0  0  0
   85.7003    7.3044 -103.1183 H   0  0  0  0  0  0
  1  2  1  0  0  0
  2  3  1  0  0  0
  3  4  2  0  0  0
  4  5  1  0  0  0
  5  6  2  0  0  0
  6  7  1  0  0  0
  6 20  1  0  0  0
  7  8  2  0  0  0
  8  9  1  0  0  0
  9 10  1  0  0  0
 10 11  1  0  0  0
 10 12  1  0  0  0
 11 22  1  0  0  0
 12 13  1  0  0  0
 13 14  1  0  0  0
 13 16  1  0  0  0
 14 15  1  0  0  0
 15 23  1  0  0  0
 16 17  1  0  0  0
 16 18  1  0  0  0
 17 24  1  0  0  0
 18 19  1  0  0  0
 18  9  1  0  0  0
 19 25  1  0  0  0
 20 21  2  0  0  0
 21  3  1  0  0  0
M  END
>  <CHROM.0>
-179.64080593,151.46628932,51.59225885

>  <CHROM.1>
-43.38066469,6.29973234,121.38806738,-56.08173047,64.91873164,58.26289196
56.02622538,173.55461224,84.96204333,8.73437490,-100.17327030,-1.50275242
-0.72470897,-2.88079056

>  <Energy>
38.451003450359124

>  <Genealogy>
COc1ccc(/C=N/[C@H]2[C@@H](O)O[C@H](CO)[C@@H](O)[C@H]2O)cc1 (3D coordinates assigned)
COc1ccc(/C=N/[C@H]2[C@@H](O)O[C@H](CO)[C@@H](O)[C@H]2O)cc1 (nonaromatic ring conformer: 38.451003450359124 kcal/mol)

>  <Name>
ZINC000100342293

>  <RI>
3.62712e+07

>  <Rbt.Current_Directory>
/home/edward/Documentos/Virtual_Screening/rDock/3

>  <Rbt.Executable>
rbdock ($Id: //depot/dev/client3/rdock/2013.1/src/exe/rbdock.cxx#4 $)

>  <Rbt.Library>
libRbt.so (2013.1, Build901 2013/11/27)

>  <Rbt.Parameter_File>
/home/edward/anaconda3/envs/MD/share/rdock-2013.1-1/data/scripts/dock.prm

>  <Rbt.Receptor>
parameters.prm

>  <SCORE>
-18.6749

>  <SCORE.INTER>
-19.3146

>  <SCORE.INTER.CONST>
1

>  <SCORE.INTER.POLAR>
-4.78636

>  <SCORE.INTER.REPUL>
0.0191708

>  <SCORE.INTER.ROT>
4

>  <SCORE.INTER.VDW>
-12.5368

>  <SCORE.INTER.norm>
-0.919742

>  <SCORE.INTRA>
-1.75053

>  <SCORE.INTRA.DIHEDRAL>
-3.10714

>  <SCORE.INTRA.DIHEDRAL.0>
6.08143

>  <SCORE.INTRA.POLAR>
-0.0581346

>  <SCORE.INTRA.POLAR.0>
0

>  <SCORE.INTRA.REPUL>
0

>  <SCORE.INTRA.REPUL.0>
0

>  <SCORE.INTRA.VDW>
0.000699659

>  <SCORE.INTRA.VDW.0>
-0.4825

>  <SCORE.INTRA.norm>
-0.0833584

>  <SCORE.RESTR>
0

>  <SCORE.RESTR.CAVITY>
0

>  <SCORE.RESTR.norm>
0

>  <SCORE.SYSTEM>
2.39022

>  <SCORE.SYSTEM.CONST>
0

>  <SCORE.SYSTEM.DIHEDRAL>
3.61789

>  <SCORE.SYSTEM.VDW>
0.581275

>  <SCORE.SYSTEM.norm>
0.11382

>  <SCORE.heavy>
21

>  <SCORE.norm>
-0.88928

>  <SMILES>
COc1ccc(/C=N/[C@H]2[C@@H](O)O[C@H](CO)[C@@H](O)[C@H]2O)cc1

>  <UniqueID>
358

$$$$
ZINC000100656214
  rDOCK(R)          3D
libRbt.so/2013.1/901 2013/11/27
 26 27  0  0  0  0  0  0  0  0999 V2000
   88.9382   15.1170 -104.7307 C   0  0  0  0  0  0
   90.3835   15.1135 -105.1257 C   0  0  0  0  0  0
   91.0018   14.0160 -105.1586 O   0  0  0  0  0  0
   91.0798   16.3186 -105.4855 N   0  0  0  0  0  0
   90.5383   17.6724 -105.2975 C   0  0  0  0  0  0
   91.2264   18.6706 -106.2508 C   0  0  0  0  0  0
   92.6268   18.5946 -106.1234 O   0  0  0  0  0  0
   90.7637   20.1041 -105.9279 C   0  0  0  0  0  0
   91.5205   21.0276 -106.6683 O   0  0  0  0  0  0
   90.9177   20.3825 -104.4104 C   0  0  0  0  0  0
   90.3815   21.7752 -104.0394 C   0  0  0  0  0  0
   91.0341   22.7816 -104.7664 O   0  0  0  0  0  0
   90.1888   19.4246 -103.6602 O   0  0  0  0  0  0
   90.7246   18.1239 -103.8367 C   0  0  0  0  0  0
   90.0095   17.2301 -103.0031 O   0  0  0  0  0  0
   90.4879   17.2772 -101.6735 C   0  0  0  0  0  0
   90.0826   18.5735 -101.0244 C   0  0  0  0  0  0
   91.0640   19.5017 -100.6408 C   0  0  0  0  0  0
   90.6942   20.7207 -100.0656 C   0  0  0  0  0  0
   89.3434   21.0193  -99.8659 C   0  0  0  0  0  0
   88.3608   20.1013 -100.2462 C   0  0  0  0  0  0
   88.7268   18.8829 -100.8273 C   0  0  0  0  0  0
   92.0986   16.2232 -105.6980 H   0  0  0  0  0  0
   92.8455   18.7547 -105.1688 H   0  0  0  0  0  0
   91.2125   21.9334 -106.3991 H   0  0  0  0  0  0
   90.6487   23.6458 -104.4667 H   0  0  0  0  0  0
  1  2  1  0  0  0
  2  3  2  0  0  0
  2  4  1  0  0  0
  4  5  1  0  0  0
  4 23  1  0  0  0
  5  6  1  0  0  0
  6  7  1  0  0  0
  6  8  1  0  0  0
  7 24  1  0  0  0
  8  9  1  0  0  0
  8 10  1  0  0  0
  9 25  1  0  0  0
 10 11  1  0  0  0
 10 13  1  0  0  0
 11 12  1  0  0  0
 12 26  1  0  0  0
 13 14  1  0  0  0
 14 15  1  0  0  0
 14  5  1  0  0  0
 15 16  1  0  0  0
 16 17  1  0  0  0
 17 18  2  0  0  0
 18 19  1  0  0  0
 19 20  2  0  0  0
 20 21  1  0  0  0
 21 22  2  0  0  0
 22 17  1  0  0  0
M  END
>  <CHROM.0>
-176.41847076,153.56432261,-65.19194629

>  <CHROM.1>
-157.49682797,-56.21447630,-177.71057829,-57.66719419,-179.17567608,159.50527316
71.50282519,-115.01349919,90.50313050,18.75664759,-103.69457632,1.10498138
-1.24566836,-2.83670412

>  <Energy>
41.94692524823133

>  <Genealogy>
CC(=O)N[C@@H]1[C@H](O)[C@H](O)[C@@H](CO)O[C@H]1OCc1ccccc1 (3D coordinates assigned)
CC(=O)N[C@@H]1[C@H](O)[C@H](O)[C@@H](CO)O[C@H]1OCc1ccccc1 (nonaromatic ring conformer: 41.94692524823133 kcal/mol)

>  <Name>
ZINC000100656214

>  <RI>
3.62712e+07

>  <Rbt.Current_Directory>
/home/edward/Documentos/Virtual_Screening/rDock/3

>  <Rbt.Executable>
rbdock ($Id: //depot/dev/client3/rdock/2013.1/src/exe/rbdock.cxx#4 $)

>  <Rbt.Library>
libRbt.so (2013.1, Build901 2013/11/27)

>  <Rbt.Parameter_File>
/home/edward/anaconda3/envs/MD/share/rdock-2013.1-1/data/scripts/dock.prm

>  <Rbt.Receptor>
parameters.prm

>  <SCORE>
-17.6326

>  <SCORE.INTER>
-13.5115

>  <SCORE.INTER.CONST>
1

>  <SCORE.INTER.POLAR>
-1.55016

>  <SCORE.INTER.REPUL>
0

>  <SCORE.INTER.ROT>
5

>  <SCORE.INTER.VDW>
-18.641

>  <SCORE.INTER.norm>
-0.614161

>  <SCORE.INTRA>
-5.89151

>  <SCORE.INTRA.DIHEDRAL>
-11.2454

>  <SCORE.INTRA.DIHEDRAL.0>
15.4003

>  <SCORE.INTRA.POLAR>
-0.668496

>  <SCORE.INTRA.POLAR.0>
0

>  <SCORE.INTRA.REPUL>
0

>  <SCORE.INTRA.REPUL.0>
0

>  <SCORE.INTRA.VDW>
2.00409

>  <SCORE.INTRA.VDW.0>
-3.87324

>  <SCORE.INTRA.norm>
-0.267796

>  <SCORE.RESTR>
0

>  <SCORE.RESTR.CAVITY>
0

>  <SCORE.RESTR.norm>
0

>  <SCORE.SYSTEM>
1.77049

>  <SCORE.SYSTEM.CONST>
0

>  <SCORE.SYSTEM.DIHEDRAL>
3.32073

>  <SCORE.SYSTEM.VDW>
0.110129

>  <SCORE.SYSTEM.norm>
0.0804769

>  <SCORE.heavy>
22

>  <SCORE.norm>
-0.80148

>  <SMILES>
CC(=O)N[C@@H]1[C@H](O)[C@H](O)[C@@H](CO)O[C@H]1OCc1ccccc1

>  <UniqueID>
361

$$$$
ZINC000100815672
  rDOCK(R)          3D
libRbt.so/2013.1/901 2013/11/27
 29 30  0  0  0  0  0  0  0  0999 V2000
   87.5952   23.6621 -108.7747 H   0  0  0  0  0  0
   87.4305   24.0473 -107.8524 O   0  0  0  0  0  0
   88.4870   24.3159 -106.9818 C   0  0  0  0  0  0
   88.2579   24.7508 -105.7776 N   0  0  0  0  0  0
   86.9264   24.9683 -105.2044 C   0  0  0  0  0  0
   86.2872   26.2161 -105.8446 C   0  0  0  0  0  0
   87.1574   27.3190 -105.7558 O   0  0  0  0  0  0
   86.7076   28.0822 -106.2036 H   0  0  0  0  0  0
   84.9631   26.5467 -105.1323 C   0  0  0  0  0  0
   84.4622   27.7760 -105.5926 O   0  0  0  0  0  0
   84.2213   27.6467 -106.5472 H   0  0  0  0  0  0
   85.1916   26.6079 -103.6032 C   0  0  0  0  0  0
   83.8876   26.8978 -102.8448 C   0  0  0  0  0  0
   83.0566   25.7669 -102.8210 O   0  0  0  0  0  0
   82.2572   26.0069 -102.2837 H   0  0  0  0  0  0
   85.7235   25.3800 -103.1346 O   0  0  0  0  0  0
   87.0166   25.1510 -103.6725 C   0  0  0  0  0  0
   87.5364   23.9625 -103.1099 O   0  0  0  0  0  0
   87.9243   24.1755 -101.7697 C   0  0  0  0  0  0
   88.7015   22.9799 -101.3026 C   0  0  0  0  0  0
   89.8101   22.5329 -102.0406 C   0  0  0  0  0  0
   90.5143   21.3952 -101.6343 C   0  0  0  0  0  0
   90.1112   20.6914 -100.4962 C   0  0  0  0  0  0
   88.9997   21.1211  -99.7656 C   0  0  0  0  0  0
   88.2918   22.2578 -100.1690 C   0  0  0  0  0  0
   89.8970   24.1039 -107.4438 C   0  0  0  0  0  0
   90.0451   24.6202 -108.7173 F   0  0  0  0  0  0
   90.1718   22.7494 -107.4675 F   0  0  0  0  0  0
   90.7947   24.7306 -106.5962 F   0  0  0  0  0  0
  1  2  1  0  0  0
  2  3  1  0  0  0
  3  4  2  0  0  0
  3 26  1  0  0  0
  4  5  1  0  0  0
  5  6  1  0  0  0
  6  7  1  0  0  0
  6  9  1  0  0  0
  7  8  1  0  0  0
  9 10  1  0  0  0
  9 12  1  0  0  0
 10 11  1  0  0  0
 12 13  1  0  0  0
 12 16  1  0  0  0
 13 14  1  0  0  0
 14 15  1  0  0  0
 16 17  1  0  0  0
 17 18  1  0  0  0
 17  5  1  0  0  0
 18 19  1  0  0  0
 19 20  1  0  0  0
 20 21  2  0  0  0
 21 22  1  0  0  0
 22 23  2  0  0  0
 23 24  1  0  0  0
 24 25  2  0  0  0
 25 20  1  0  0  0
 26 27  1  0  0  0
 26 28  1  0  0  0
 26 29  1  0  0  0
M  END
>  <CHROM.0>
174.68188103,150.75274765,50.00801061

>  <CHROM.1>
-176.72762965,44.48723946,-72.54579734,178.43376013,66.22794121,74.25116012
177.39500808,166.61135474,-169.33015339,53.53185185,87.66360649,24.51768768
-104.38657396,-2.16945026,-0.60426475,1.95684168

>  <Energy>
41.47782208520052

>  <Genealogy>
OC[C@H]1O[C@@H](OCc2ccccc2)[C@H](N=C(O)C(F)(F)F)[C@H](O)[C@@H]1O (tautomer)
OC[C@H]1O[C@@H](OCc2ccccc2)[C@H](/N=C(\O)C(F)(F)F)[C@H](O)[C@@H]1O (cis-trans isomerization)
OC[C@H]1O[C@@H](OCc2ccccc2)[C@H](/N=C(\O)C(F)(F)F)[C@H](O)[C@@H]1O (3D coordinates assigned)
OC[C@H]1O[C@@H](OCc2ccccc2)[C@H](/N=C(\O)C(F)(F)F)[C@H](O)[C@@H]1O (nonaromatic ring conformer: 41.47782208520052 kcal/mol)

>  <Name>
ZINC000100815672

>  <RI>
3.62712e+07

>  <Rbt.Current_Directory>
/home/edward/Documentos/Virtual_Screening/rDock/3

>  <Rbt.Executable>
rbdock ($Id: //depot/dev/client3/rdock/2013.1/src/exe/rbdock.cxx#4 $)

>  <Rbt.Library>
libRbt.so (2013.1, Build901 2013/11/27)

>  <Rbt.Parameter_File>
/home/edward/anaconda3/envs/MD/share/rdock-2013.1-1/data/scripts/dock.prm

>  <Rbt.Receptor>
parameters.prm

>  <SCORE>
-16.5905

>  <SCORE.INTER>
-16.9286

>  <SCORE.INTER.CONST>
1

>  <SCORE.INTER.POLAR>
-4.27332

>  <SCORE.INTER.REPUL>
0

>  <SCORE.INTER.ROT>
6

>  <SCORE.INTER.VDW>
-13.7993

>  <SCORE.INTER.norm>
-0.677143

>  <SCORE.INTRA>
-2.13626

>  <SCORE.INTRA.DIHEDRAL>
-6.68985

>  <SCORE.INTRA.DIHEDRAL.0>
12.6971

>  <SCORE.INTRA.POLAR>
-0.00116684

>  <SCORE.INTRA.POLAR.0>
0

>  <SCORE.INTRA.REPUL>
0

>  <SCORE.INTRA.REPUL.0>
0

>  <SCORE.INTRA.VDW>
1.21264

>  <SCORE.INTRA.VDW.0>
-3.62742

>  <SCORE.INTRA.norm>
-0.0854503

>  <SCORE.RESTR>
0

>  <SCORE.RESTR.CAVITY>
0

>  <SCORE.RESTR.norm>
0

>  <SCORE.SYSTEM>
2.47429

>  <SCORE.SYSTEM.CONST>
0

>  <SCORE.SYSTEM.DIHEDRAL>
3.89015

>  <SCORE.SYSTEM.VDW>
0.529216

>  <SCORE.SYSTEM.norm>
0.0989717

>  <SCORE.heavy>
25

>  <SCORE.norm>
-0.663622

>  <SMILES>
OC[C@H]1O[C@@H](OCc2ccccc2)[C@H](/N=C(\O)C(F)(F)F)[C@H](O)[C@@H]1O

>  <UniqueID>
365

$$$$
ZINC000101073479
  rDOCK(R)          3D
libRbt.so/2013.1/901 2013/11/27
 25 26  0  0  0  0  0  0  0  0999 V2000
   91.1459   20.1821 -106.9980 C   0  0  0  0  0  0
   91.8569   21.3981 -106.7904 O   0  0  0  0  0  0
   91.3029   22.5501 -106.2128 C   0  0  0  0  0  0
   90.1873   22.4061 -105.3796 C   0  0  0  0  0  0
   89.5964   23.5239 -104.7839 C   0  0  0  0  0  0
   90.1021   24.8081 -105.0349 C   0  0  0  0  0  0
   89.5163   25.9958 -104.3864 C   0  0  0  0  0  0
   88.4104   25.9796 -103.6974 N   0  0  0  0  0  0
   87.5054   24.8434 -103.4698 C   0  0  0  0  0  0
   86.3697   24.8315 -104.5179 C   0  0  0  0  0  0
   86.8774   24.7593 -105.8252 O   0  0  0  0  0  0
   85.4662   26.0735 -104.3631 C   0  0  0  0  0  0
   86.0371   27.1625 -105.0458 O   0  0  0  0  0  0
   85.2837   26.4320 -102.8591 C   0  0  0  0  0  0
   83.8702   26.9502 -102.5687 C   0  0  0  0  0  0
   82.9262   25.9390 -102.7896 O   0  0  0  0  0  0
   85.5155   25.2912 -102.0519 O   0  0  0  0  0  0
   86.8980   24.9558 -102.0384 C   0  0  0  0  0  0
   87.0504   23.7254 -101.3822 O   0  0  0  0  0  0
   91.2402   24.9539 -105.8392 C   0  0  0  0  0  0
   91.8312   23.8363 -106.4361 C   0  0  0  0  0  0
   87.4446   25.5637 -105.9569 H   0  0  0  0  0  0
   86.9425   27.3022 -104.6645 H   0  0  0  0  0  0
   82.0518   26.3119 -102.5046 H   0  0  0  0  0  0
   86.6306   23.8269 -100.4882 H   0  0  0  0  0  0
  1  2  1  0  0  0
  2  3  1  0  0  0
  3  4  2  0  0  0
  4  5  1  0  0  0
  5  6  2  0  0  0
  6  7  1  0  0  0
  6 20  1  0  0  0
  7  8  2  0  0  0
  8  9  1  0  0  0
  9 10  1  0  0  0
 10 11  1  0  0  0
 10 12  1  0  0  0
 11 22  1  0  0  0
 12 13  1  0  0  0
 12 14  1  0  0  0
 13 23  1  0  0  0
 14 15  1  0  0  0
 14 17  1  0  0  0
 15 16  1  0  0  0
 16 24  1  0  0  0
 17 18  1  0  0  0
 18 19  1  0  0  0
 18  9  1  0  0  0
 19 25  1  0  0  0
 20 21  2  0  0  0
 21  3  1  0  0  0
M  END
>  <CHROM.0>
-179.81305972,153.47136472,-66.77421424

>  <CHROM.1>
23.27649893,-9.49154385,-93.74947026,-60.29081842,-57.71335909,65.05153553
174.88023405,-178.40411636,87.92584030,24.61113634,-104.36513433,0.21336518
-0.62807477,2.67255412

>  <Energy>
54.42043189969039

>  <Genealogy>
COc1ccc(/C=N\[C@@H]2[C@H](O)[C@H](O)[C@@H](CO)O[C@H]2O)cc1 (3D coordinates assigned)
COc1ccc(/C=N\[C@@H]2[C@H](O)[C@H](O)[C@@H](CO)O[C@H]2O)cc1 (nonaromatic ring conformer: 54.42043189969039 kcal/mol)

>  <Name>
ZINC000101073479

>  <RI>
3.62712e+07

>  <Rbt.Current_Directory>
/home/edward/Documentos/Virtual_Screening/rDock/3

>  <Rbt.Executable>
rbdock ($Id: //depot/dev/client3/rdock/2013.1/src/exe/rbdock.cxx#4 $)

>  <Rbt.Library>
libRbt.so (2013.1, Build901 2013/11/27)

>  <Rbt.Parameter_File>
/home/edward/anaconda3/envs/MD/share/rdock-2013.1-1/data/scripts/dock.prm

>  <Rbt.Receptor>
parameters.prm

>  <SCORE>
-21.6812

>  <SCORE.INTER>
-17.0857

>  <SCORE.INTER.CONST>
1

>  <SCORE.INTER.POLAR>
-3.54632

>  <SCORE.INTER.REPUL>
0

>  <SCORE.INTER.ROT>
4

>  <SCORE.INTER.VDW>
-14.4282

>  <SCORE.INTER.norm>
-0.813605

>  <SCORE.INTRA>
-6.32856

>  <SCORE.INTRA.DIHEDRAL>
-12.8016

>  <SCORE.INTRA.DIHEDRAL.0>
15.0778

>  <SCORE.INTRA.POLAR>
-0.66903

>  <SCORE.INTRA.POLAR.0>
0

>  <SCORE.INTRA.REPUL>
0

>  <SCORE.INTRA.REPUL.0>
0

>  <SCORE.INTRA.VDW>
2.34693

>  <SCORE.INTRA.VDW.0>
-2.04165

>  <SCORE.INTRA.norm>
-0.30136

>  <SCORE.RESTR>
0

>  <SCORE.RESTR.CAVITY>
0

>  <SCORE.RESTR.norm>
0

>  <SCORE.SYSTEM>
1.73306

>  <SCORE.SYSTEM.CONST>
0

>  <SCORE.SYSTEM.DIHEDRAL>
3.25435

>  <SCORE.SYSTEM.VDW>
0.105882

>  <SCORE.SYSTEM.norm>
0.0825265

>  <SCORE.heavy>
21

>  <SCORE.norm>
-1.03244

>  <SMILES>
COc1ccc(/C=N\[C@@H]2[C@H](O)[C@H](O)[C@@H](CO)O[C@H]2O)cc1

>  <UniqueID>
368

$$$$
ZINC000101135603
  rDOCK(R)          3D
libRbt.so/2013.1/901 2013/11/27
 32 34  0  0  0  0  0  0  0  0999 V2000
   85.9437   19.7491 -103.9503 H   0  0  0  0  0  0
   85.7505   19.2227 -103.1069 O   0  0  0  0  0  0
   86.7704   18.8752 -102.2213 C   0  0  0  0  0  0
   88.0066   19.1714 -102.4874 N   0  0  0  0  0  0
   88.4510   19.8513 -103.7058 C   0  0  0  0  0  0
   89.6157   19.0876 -104.3685 C   0  0  0  0  0  0
   90.6611   18.9049 -103.4231 O   0  0  0  0  0  0
   90.5141   17.6933 -102.7145 C   0  0  0  0  0  0
   90.6734   16.5556 -103.6791 C   0  0  0  0  0  0
   91.6893   16.5994 -104.6486 C   0  0  0  0  0  0
   91.8241   15.5611 -105.5750 C   0  0  0  0  0  0
   90.9391   14.4797 -105.5479 C   0  0  0  0  0  0
   89.9160   14.4369 -104.5963 C   0  0  0  0  0  0
   89.7783   15.4731 -103.6670 C   0  0  0  0  0  0
   90.1511   19.9131 -105.5552 C   0  0  0  0  0  0
   91.3162   19.3130 -106.0613 O   0  0  0  0  0  0
   91.9919   19.3418 -105.3344 H   0  0  0  0  0  0
   90.4512   21.3681 -105.1069 C   0  0  0  0  0  0
   90.8891   22.2413 -106.2949 C   0  0  0  0  0  0
   91.9561   21.6561 -106.9922 O   0  0  0  0  0  0
   92.2076   22.2910 -107.7128 H   0  0  0  0  0  0
   89.2931   21.9597 -104.5373 O   0  0  0  0  0  0
   88.9059   21.2789 -103.3567 C   0  0  0  0  0  0
   87.8058   21.9672 -102.7820 O   0  0  0  0  0  0
   87.6450   21.6400 -101.4147 C   0  0  0  0  0  0
   88.8623   22.0504 -100.6249 C   0  0  0  0  0  0
   89.7398   21.0818 -100.1087 C   0  0  0  0  0  0
   90.8341   21.4677  -99.3288 C   0  0  0  0  0  0
   91.0579   22.8196  -99.0558 C   0  0  0  0  0  0
   90.1905   23.7889  -99.5669 C   0  0  0  0  0  0
   89.0950   23.4074 -100.3478 C   0  0  0  0  0  0
   86.4417   18.1912 -100.9338 C   0  0  0  0  0  0
  1  2  1  0  0  0
  2  3  1  0  0  0
  3  4  2  0  0  0
  3 32  1  0  0  0
  4  5  1  0  0  0
  5  6  1  0  0  0
  6  7  1  0  0  0
  6 15  1  0  0  0
  7  8  1  0  0  0
  8  9  1  0  0  0
  9 10  2  0  0  0
 10 11  1  0  0  0
 11 12  2  0  0  0
 12 13  1  0  0  0
 13 14  2  0  0  0
 14  9  1  0  0  0
 15 16  1  0  0  0
 15 18  1  0  0  0
 16 17  1  0  0  0
 18 19  1  0  0  0
 18 22  1  0  0  0
 19 20  1  0  0  0
 20 21  1  0  0  0
 22 23  1  0  0  0
 23 24  1  0  0  0
 23  5  1  0  0  0
 24 25  1  0  0  0
 25 26  1  0  0  0
 26 27  2  0  0  0
 27 28  1  0  0  0
 28 29  2  0  0  0
 29 30  1  0  0  0
 30 31  2  0  0  0
 31 26  1  0  0  0
M  END
>  <CHROM.0>
80.95712000,153.24071539,51.46872888

>  <CHROM.1>
-2.94717234,-129.69879976,90.52836013,65.28497231,42.56762340,-63.04874377
-53.15426248,-177.52230415,80.62962126,61.86782201,-109.16720413,89.61113951
19.70262768,-103.24029930,1.97602512,0.98978780,0.29094979

>  <Energy>
54.476633058536834

>  <Genealogy>
CC(O)=N[C@@H]1[C@H](OCc2ccccc2)[C@H](O)[C@@H](CO)O[C@H]1OCc1ccccc1 (tautomer)
C/C(O)=N\[C@@H]1[C@H](OCc2ccccc2)[C@H](O)[C@@H](CO)O[C@H]1OCc1ccccc1 (cis-trans isomerization)
C/C(O)=N\[C@@H]1[C@H](OCc2ccccc2)[C@H](O)[C@@H](CO)O[C@H]1OCc1ccccc1 (3D coordinates assigned)
C/C(O)=N\[C@@H]1[C@H](OCc2ccccc2)[C@H](O)[C@@H](CO)O[C@H]1OCc1ccccc1 (nonaromatic ring conformer: 54.476633058536834 kcal/mol)

>  <Name>
ZINC000101135603

>  <RI>
3.62712e+07

>  <Rbt.Current_Directory>
/home/edward/Documentos/Virtual_Screening/rDock/3

>  <Rbt.Executable>
rbdock ($Id: //depot/dev/client3/rdock/2013.1/src/exe/rbdock.cxx#4 $)

>  <Rbt.Library>
libRbt.so (2013.1, Build901 2013/11/27)

>  <Rbt.Parameter_File>
/home/edward/anaconda3/envs/MD/share/rdock-2013.1-1/data/scripts/dock.prm

>  <Rbt.Receptor>
parameters.prm

>  <SCORE>
-14.3448

>  <SCORE.INTER>
-15.8484

>  <SCORE.INTER.CONST>
1

>  <SCORE.INTER.POLAR>
-2.62031

>  <SCORE.INTER.REPUL>
0.0336899

>  <SCORE.INTER.ROT>
8

>  <SCORE.INTER.VDW>
-20.5078

>  <SCORE.INTER.norm>
-0.546495

>  <SCORE.INTRA>
-2.29483

>  <SCORE.INTRA.DIHEDRAL>
-13.3028

>  <SCORE.INTRA.DIHEDRAL.0>
20.9472

>  <SCORE.INTRA.POLAR>
-0.011072

>  <SCORE.INTRA.POLAR.0>
0

>  <SCORE.INTRA.REPUL>
0

>  <SCORE.INTRA.REPUL.0>
0

>  <SCORE.INTRA.VDW>
4.39424

>  <SCORE.INTRA.VDW.0>
-6.05869

>  <SCORE.INTRA.norm>
-0.0791321

>  <SCORE.RESTR>
0

>  <SCORE.RESTR.CAVITY>
0

>  <SCORE.RESTR.norm>
0

>  <SCORE.SYSTEM>
3.79844

>  <SCORE.SYSTEM.CONST>
0

>  <SCORE.SYSTEM.DIHEDRAL>
5.24445

>  <SCORE.SYSTEM.VDW>
1.17622

>  <SCORE.SYSTEM.norm>
0.130981

>  <SCORE.heavy>
29

>  <SCORE.norm>
-0.494647

>  <SMILES>
C/C(O)=N\[C@@H]1[C@H](OCc2ccccc2)[C@H](O)[C@@H](CO)O[C@H]1OCc1ccccc1

>  <UniqueID>
370

$$$$
ZINC000101136391
  rDOCK(R)          3D
libRbt.so/2013.1/901 2013/11/27
 25 26  0  0  0  0  0  0  0  0999 V2000
   92.8970   17.3610 -105.2490 N   0  3  0  0  0  0
   91.6200   16.9593 -104.6414 C   0  0  0  0  0  0
   91.3869   15.4370 -104.7795 C   0  0  0  0  0  0
   91.4993   15.0383 -106.1248 O   0  0  0  0  0  0
   89.9855   15.0741 -104.2536 C   0  0  0  0  0  0
   89.6992   13.7289 -104.5409 O   0  0  0  0  0  0
   88.9227   15.9920 -104.9024 C   0  0  0  0  0  0
   87.5255   15.6864 -104.3432 C   0  0  0  0  0  0
   86.5379   16.2651 -105.1539 O   0  0  0  0  0  0
   89.2251   17.3518 -104.6371 O   0  0  0  0  0  0
   90.4373   17.7321 -105.2675 C   0  0  0  0  0  0
   90.6424   19.1169 -105.0540 O   0  0  0  0  0  0
   89.9503   19.8857 -106.0192 C   0  0  0  0  0  0
   90.3169   21.3402 -105.8893 C   0  0  0  0  0  0
   90.8243   22.0512 -106.9898 C   0  0  0  0  0  0
   91.1881   23.3944 -106.8522 C   0  0  0  0  0  0
   91.0514   24.0345 -105.6173 C   0  0  0  0  0  0
   90.5517   23.3321 -104.5173 C   0  0  0  0  0  0
   90.1865   21.9888 -104.6506 C   0  0  0  0  0  0
   92.8397   17.2739 -106.2897 H   0  0  0  0  0  0
   93.6624   16.7321 -104.9139 H   0  0  0  0  0  0
   93.1373   18.3474 -104.9968 H   0  0  0  0  0  0
   91.3395   14.0590 -106.1538 H   0  0  0  0  0  0
   90.3926   13.1853 -104.0829 H   0  0  0  0  0  0
   86.7587   17.2300 -105.2308 H   0  0  0  0  0  0
  1  2  1  0  0  0
  1 20  1  0  0  0
  1 21  1  0  0  0
  1 22  1  0  0  0
  2  3  1  0  0  0
  3  4  1  0  0  0
  3  5  1  0  0  0
  4 23  1  0  0  0
  5  6  1  0  0  0
  5  7  1  0  0  0
  6 24  1  0  0  0
  7  8  1  0  0  0
  7 10  1  0  0  0
  8  9  1  0  0  0
  9 25  1  0  0  0
 10 11  1  0  0  0
 11 12  1  0  0  0
 11  2  1  0  0  0
 12 13  1  0  0  0
 13 14  1  0  0  0
 14 15  2  0  0  0
 15 16  1  0  0  0
 16 17  2  0  0  0
 17 18  1  0  0  0
 18 19  2  0  0  0
 19 14  1  0  0  0
M  END
>  <CHROM.0>
174.85128717,156.01457078,-64.34640852

>  <CHROM.1>
69.77522771,-179.89090192,60.23095108,-165.20836539,-54.23116637,156.00938189
-172.77437916,124.39814896,90.21811683,18.31877718,-105.22670758,-1.72147136
0.12962874,-0.10516643

>  <Energy>
39.68327709557367

>  <Genealogy>
[NH3+][C@@H]1[C@H](O)[C@H](O)[C@@H](CO)O[C@H]1OCc1ccccc1 (protonated)
[NH3+][C@@H]1[C@H](O)[C@H](O)[C@@H](CO)O[C@H]1OCc1ccccc1 (3D coordinates assigned)
[NH3+][C@@H]1[C@H](O)[C@H](O)[C@@H](CO)O[C@H]1OCc1ccccc1 (nonaromatic ring conformer: 39.68327709557367 kcal/mol)

>  <Name>
ZINC000101136391

>  <RI>
3.62712e+07

>  <Rbt.Current_Directory>
/home/edward/Documentos/Virtual_Screening/rDock/3

>  <Rbt.Executable>
rbdock ($Id: //depot/dev/client3/rdock/2013.1/src/exe/rbdock.cxx#4 $)

>  <Rbt.Library>
libRbt.so (2013.1, Build901 2013/11/27)

>  <Rbt.Parameter_File>
/home/edward/anaconda3/envs/MD/share/rdock-2013.1-1/data/scripts/dock.prm

>  <Rbt.Receptor>
parameters.prm

>  <SCORE>
-25.1271

>  <SCORE.INTER>
-24.3863

>  <SCORE.INTER.CONST>
1

>  <SCORE.INTER.POLAR>
-4.3477

>  <SCORE.INTER.REPUL>
0.0724125

>  <SCORE.INTER.ROT>
4

>  <SCORE.INTER.VDW>
-19.3662

>  <SCORE.INTER.norm>
-1.28349

>  <SCORE.INTRA>
-2.89533

>  <SCORE.INTRA.DIHEDRAL>
-7.84325

>  <SCORE.INTRA.DIHEDRAL.0>
12.5075

>  <SCORE.INTRA.POLAR>
0

>  <SCORE.INTRA.POLAR.0>
0

>  <SCORE.INTRA.REPUL>
0

>  <SCORE.INTRA.REPUL.0>
0

>  <SCORE.INTRA.VDW>
1.02629

>  <SCORE.INTRA.VDW.0>
-2.40987

>  <SCORE.INTRA.norm>
-0.152386

>  <SCORE.RESTR>
0.297035

>  <SCORE.RESTR.CAVITY>
0.297035

>  <SCORE.RESTR.norm>
0.0156334

>  <SCORE.SYSTEM>
1.85751

>  <SCORE.SYSTEM.CONST>
0

>  <SCORE.SYSTEM.DIHEDRAL>
2.95695

>  <SCORE.SYSTEM.VDW>
0.379031

>  <SCORE.SYSTEM.norm>
0.0977634

>  <SCORE.heavy>
19

>  <SCORE.norm>
-1.32248

>  <SMILES>
[NH3+][C@@H]1[C@H](O)[C@H](O)[C@@H](CO)O[C@H]1OCc1ccccc1

>  <UniqueID>
374

$$$$
ZINC000101178654
  rDOCK(R)          3D
libRbt.so/2013.1/901 2013/11/27
 22 22  0  0  0  0  0  0  0  0999 V2000
   89.7970   16.4174 -102.5607 H   0  0  0  0  0  0
   90.3074   15.6835 -103.0369 O   0  0  0  0  0  0
   89.7884   15.0634 -104.1731 C   0  0  0  0  0  0
   88.5360   15.2009 -104.4894 N   0  0  0  0  0  0
   87.5707   15.9947 -103.7262 C   0  0  0  0  0  0
   86.1357   15.4502 -103.9248 C   0  0  0  0  0  0
   85.8799   15.1327 -105.2736 O   0  0  0  0  0  0
   86.5044   14.4153 -105.5502 H   0  0  0  0  0  0
   85.0926   16.4360 -103.3515 C   0  0  0  0  0  0
   83.7863   16.0395 -103.6935 O   0  0  0  0  0  0
   83.6194   15.1517 -103.2819 H   0  0  0  0  0  0
   85.3932   17.8925 -103.7911 C   0  0  0  0  0  0
   84.4243   18.8720 -103.1131 C   0  0  0  0  0  0
   84.5636   18.8105 -101.7188 O   0  0  0  0  0  0
   83.8303   19.3574 -101.3328 H   0  0  0  0  0  0
   86.7175   18.2443 -103.4258 O   0  0  0  0  0  0
   87.6663   17.4784 -104.1476 C   0  0  0  0  0  0
   88.9551   17.9639 -103.8015 O   0  0  0  0  0  0
   89.2507   19.2090 -104.4130 C   0  0  0  0  0  0
   90.2499   19.9881 -103.5514 C   0  0  0  0  0  0
   89.8447   18.9387 -105.7944 C   0  0  0  0  0  0
   90.6709   14.2089 -105.0241 C   0  0  0  0  0  0
  1  2  1  0  0  0
  2  3  1  0  0  0
  3  4  2  0  0  0
  3 22  1  0  0  0
  4  5  1  0  0  0
  5  6  1  0  0  0
  6  7  1  0  0  0
  6  9  1  0  0  0
  7  8  1  0  0  0
  9 10  1  0  0  0
  9 12  1  0  0  0
 10 11  1  0  0  0
 12 13  1  0  0  0
 12 16  1  0  0  0
 13 14  1  0  0  0
 14 15  1  0  0  0
 16 17  1  0  0  0
 17 18  1  0  0  0
 17  5  1  0  0  0
 18 19  1  0  0  0
 19 20  1  0  0  0
 19 21  1  0  0  0
M  END
>  <CHROM.0>
179.51973525,151.16987982,-68.21609026

>  <CHROM.1>
-14.60099289,-153.11861701,62.19783736,62.33630605,60.94360174,-171.87103966
166.50271864,152.78732309,87.46022163,17.04260446,-103.89219870,0.17386844
-0.18370324,-2.95084883

>  <Energy>
34.81778303564077

>  <Genealogy>
CC(O)=N[C@@H]1[C@H](O)[C@H](O)[C@@H](CO)O[C@H]1OC(C)C (tautomer)
C/C(O)=N\[C@@H]1[C@H](O)[C@H](O)[C@@H](CO)O[C@H]1OC(C)C (cis-trans isomerization)
C/C(O)=N\[C@@H]1[C@H](O)[C@H](O)[C@@H](CO)O[C@H]1OC(C)C (3D coordinates assigned)
C/C(O)=N\[C@@H]1[C@H](O)[C@H](O)[C@@H](CO)O[C@H]1OC(C)C (nonaromatic ring conformer: 34.81778303564077 kcal/mol)

>  <Name>
ZINC000101178654

>  <RI>
3.62712e+07

>  <Rbt.Current_Directory>
/home/edward/Documentos/Virtual_Screening/rDock/3

>  <Rbt.Executable>
rbdock ($Id: //depot/dev/client3/rdock/2013.1/src/exe/rbdock.cxx#4 $)

>  <Rbt.Library>
libRbt.so (2013.1, Build901 2013/11/27)

>  <Rbt.Parameter_File>
/home/edward/anaconda3/envs/MD/share/rdock-2013.1-1/data/scripts/dock.prm

>  <Rbt.Receptor>
parameters.prm

>  <SCORE>
-17.7015

>  <SCORE.INTER>
-14.4432

>  <SCORE.INTER.CONST>
1

>  <SCORE.INTER.POLAR>
-2.9763

>  <SCORE.INTER.REPUL>
0.1733

>  <SCORE.INTER.ROT>
4

>  <SCORE.INTER.VDW>
-14.5902

>  <SCORE.INTER.norm>
-0.802398

>  <SCORE.INTRA>
-5.004

>  <SCORE.INTRA.DIHEDRAL>
-7.37367

>  <SCORE.INTRA.DIHEDRAL.0>
14.6067

>  <SCORE.INTRA.POLAR>
-0.326359

>  <SCORE.INTRA.POLAR.0>
0

>  <SCORE.INTRA.REPUL>
0

>  <SCORE.INTRA.REPUL.0>
0

>  <SCORE.INTRA.VDW>
-0.207542

>  <SCORE.INTRA.VDW.0>
-1.98909

>  <SCORE.INTRA.norm>
-0.278

>  <SCORE.RESTR>
0

>  <SCORE.RESTR.CAVITY>
0

>  <SCORE.RESTR.norm>
0

>  <SCORE.SYSTEM>
1.74564

>  <SCORE.SYSTEM.CONST>
0

>  <SCORE.SYSTEM.DIHEDRAL>
3.67464

>  <SCORE.SYSTEM.VDW>
-0.0916794

>  <SCORE.SYSTEM.norm>
0.09698

>  <SCORE.heavy>
18

>  <SCORE.norm>
-0.983418

>  <SMILES>
C/C(O)=N\[C@@H]1[C@H](O)[C@H](O)[C@@H](CO)O[C@H]1OC(C)C

>  <UniqueID>
377

$$$$
ZINC000101361998
  rDOCK(R)          3D
libRbt.so/2013.1/901 2013/11/27
 33 35  0  0  0  0  0  0  0  0999 V2000
   87.3046   21.5555 -103.3815 H   0  0  0  0  0  0
   87.9982   21.1208 -103.9774 O   0  0  0  0  0  0
   88.5542   21.8190 -105.0435 C   0  0  0  0  0  0
   88.0857   22.9787 -105.4101 N   0  0  0  0  0  0
   86.9874   23.7554 -104.8185 C   0  0  0  0  0  0
   86.5078   24.8905 -105.7422 C   0  0  0  0  0  0
   87.5656   25.7699 -106.0308 O   0  0  0  0  0  0
   88.2745   25.2371 -106.4773 H   0  0  0  0  0  0
   85.3598   25.6516 -105.0498 C   0  0  0  0  0  0
   85.0391   26.7953 -105.8025 O   0  0  0  0  0  0
   84.2225   27.1923 -105.4015 H   0  0  0  0  0  0
   85.7745   26.0458 -103.6071 C   0  0  0  0  0  0
   84.6211   26.7439 -102.8773 C   0  0  0  0  0  0
   83.6179   25.8120 -102.5801 O   0  0  0  0  0  0
   82.9688   26.2833 -101.9953 H   0  0  0  0  0  0
   86.1389   24.8912 -102.8635 O   0  0  0  0  0  0
   87.3037   24.2894 -103.4058 C   0  0  0  0  0  0
   87.6784   23.1939 -102.5928 O   0  0  0  0  0  0
   88.0498   23.6410 -101.3058 C   0  0  0  0  0  0
   88.5618   22.4701 -100.5188 C   0  0  0  0  0  0
   87.8971   22.0517  -99.3538 C   0  0  0  0  0  0
   88.3528   20.9348  -98.6461 C   0  0  0  0  0  0
   89.4640   20.2207  -99.1040 C   0  0  0  0  0  0
   90.1189   20.6200 -100.2726 C   0  0  0  0  0  0
   89.6671   21.7370 -100.9825 C   0  0  0  0  0  0
   89.6367   21.2498 -105.7263 O   0  0  0  0  0  0
   90.2271   21.8241 -106.8921 C   0  0  0  0  0  0
   90.7303   23.2116 -106.5966 C   0  0  0  0  0  0
   91.2744   23.5060 -105.3361 C   0  0  0  0  0  0
   91.7117   24.8014 -105.0427 C   0  0  0  0  0  0
   91.6038   25.8114 -106.0028 C   0  0  0  0  0  0
   91.0595   25.5270 -107.2583 C   0  0  0  0  0  0
   90.6230   24.2323 -107.5563 C   0  0  0  0  0  0
  1  2  1  0  0  0
  2  3  1  0  0  0
  3  4  2  0  0  0
  3 26  1  0  0  0
  4  5  1  0  0  0
  5  6  1  0  0  0
  6  7  1  0  0  0
  6  9  1  0  0  0
  7  8  1  0  0  0
  9 10  1  0  0  0
  9 12  1  0  0  0
 10 11  1  0  0  0
 12 13  1  0  0  0
 12 16  1  0  0  0
 13 14  1  0  0  0
 14 15  1  0  0  0
 16 17  1  0  0  0
 17 18  1  0  0  0
 17  5  1  0  0  0
 18 19  1  0  0  0
 19 20  1  0  0  0
 20 21  2  0  0  0
 21 22  1  0  0  0
 22 23  2  0  0  0
 23 24  1  0  0  0
 24 25  2  0  0  0
 25 20  1  0  0  0
 26 27  1  0  0  0
 27 28  1  0  0  0
 28 29  2  0  0  0
 29 30  1  0  0  0
 30 31  2  0  0  0
 31 32  1  0  0  0
 32 33  2  0  0  0
 33 28  1  0  0  0
M  END
>  <CHROM.0>
78.43319825,157.60550145,-69.16559587

>  <CHROM.1>
-8.73207464,175.32134127,-165.45402777,59.75612643,172.45275374,71.21089327
171.69898014,176.77848132,-174.72171333,-117.30446540,58.70019504,35.32647640
88.16821859,23.69035653,-103.83467371,-1.49236809,0.55333888,-1.04891268

>  <Energy>
56.46382294275877

>  <Genealogy>
OC[C@H]1O[C@@H](OCc2ccccc2)[C@H](N=C(O)OCc2ccccc2)[C@H](O)[C@@H]1O (tautomer)
OC[C@H]1O[C@@H](OCc2ccccc2)[C@H](/N=C(/O)OCc2ccccc2)[C@H](O)[C@@H]1O (cis-trans isomerization)
OC[C@H]1O[C@@H](OCc2ccccc2)[C@H](/N=C(/O)OCc2ccccc2)[C@H](O)[C@@H]1O (3D coordinates assigned)
OC[C@H]1O[C@@H](OCc2ccccc2)[C@H](/N=C(/O)OCc2ccccc2)[C@H](O)[C@@H]1O (nonaromatic ring conformer: 56.46382294275877 kcal/mol)

>  <Name>
ZINC000101361998

>  <RI>
3.62712e+07

>  <Rbt.Current_Directory>
/home/edward/Documentos/Virtual_Screening/rDock/3

>  <Rbt.Executable>
rbdock ($Id: //depot/dev/client3/rdock/2013.1/src/exe/rbdock.cxx#4 $)

>  <Rbt.Library>
libRbt.so (2013.1, Build901 2013/11/27)

>  <Rbt.Parameter_File>
/home/edward/anaconda3/envs/MD/share/rdock-2013.1-1/data/scripts/dock.prm

>  <Rbt.Receptor>
parameters.prm

>  <SCORE>
-15.0906

>  <SCORE.INTER>
-13.2976

>  <SCORE.INTER.CONST>
1

>  <SCORE.INTER.POLAR>
-2.7264

>  <SCORE.INTER.REPUL>
0

>  <SCORE.INTER.ROT>
8

>  <SCORE.INTER.VDW>
-17.4278

>  <SCORE.INTER.norm>
-0.458538

>  <SCORE.INTRA>
-5.04716

>  <SCORE.INTRA.DIHEDRAL>
-7.68386

>  <SCORE.INTRA.DIHEDRAL.0>
13.0741

>  <SCORE.INTRA.POLAR>
-0.397942

>  <SCORE.INTRA.POLAR.0>
0

>  <SCORE.INTRA.REPUL>
-0.0421881

>  <SCORE.INTRA.REPUL.0>
0.0421881

>  <SCORE.INTRA.VDW>
0.358716

>  <SCORE.INTRA.VDW.0>
-3.64862

>  <SCORE.INTRA.norm>
-0.17404

>  <SCORE.RESTR>
0

>  <SCORE.RESTR.CAVITY>
0

>  <SCORE.RESTR.norm>
0

>  <SCORE.SYSTEM>
3.2542

>  <SCORE.SYSTEM.CONST>
0

>  <SCORE.SYSTEM.DIHEDRAL>
4.0499

>  <SCORE.SYSTEM.VDW>
1.22925

>  <SCORE.SYSTEM.norm>
0.112214

>  <SCORE.heavy>
29

>  <SCORE.norm>
-0.520364

>  <SMILES>
OC[C@H]1O[C@@H](OCc2ccccc2)[C@H](/N=C(/O)OCc2ccccc2)[C@H](O)[C@@H]1O

>  <UniqueID>
381

$$$$
ZINC000102205030
  rDOCK(R)          3D
libRbt.so/2013.1/901 2013/11/27
 24 24  0  0  0  0  0  0  0  0999 V2000
   92.7712   19.7534 -105.3345 H   0  0  0  0  0  0
   92.1437   19.9144 -106.1098 O   0  0  0  0  0  0
   90.7550   19.7746 -106.0316 C   0  0  0  0  0  0
   90.1356   19.5187 -104.9140 N   0  0  0  0  0  0
   90.7263   19.3909 -103.5778 C   0  0  0  0  0  0
   90.3842   17.9990 -103.0008 C   0  0  0  0  0  0
   89.0425   17.6418 -103.2445 O   0  0  0  0  0  0
   88.8843   17.6623 -104.2217 H   0  0  0  0  0  0
   90.7361   17.9136 -101.4978 C   0  0  0  0  0  0
   90.1810   16.7511 -100.9369 O   0  0  0  0  0  0
   89.2204   16.7438 -101.1878 H   0  0  0  0  0  0
   90.2265   19.1621 -100.7402 C   0  0  0  0  0  0
   90.6857   19.1298  -99.2748 C   0  0  0  0  0  0
   92.0864   19.1452  -99.2014 O   0  0  0  0  0  0
   92.4035   18.2882  -99.5894 H   0  0  0  0  0  0
   90.7347   20.3396 -101.3430 O   0  0  0  0  0  0
   90.2045   20.5087 -102.6465 C   0  0  0  0  0  0
   90.6431   21.7575 -103.1473 O   0  0  0  0  0  0
   89.9774   22.8327 -102.5101 C   0  0  0  0  0  0
   90.4334   24.1668 -103.1005 C   0  0  0  0  0  0
   90.2923   24.1442 -104.5492 N   0  0  0  0  0  0
   91.2855   24.1488 -105.2763 N   0  3  0  0  0  0
   92.2775   24.1546 -106.0033 N   0  5  0  0  0  0
   89.9531   19.9050 -107.2823 C   0  0  0  0  0  0
  1  2  1  0  0  0
  2  3  1  0  0  0
  3  4  2  0  0  0
  3 24  1  0  0  0
  4  5  1  0  0  0
  5  6  1  0  0  0
  6  7  1  0  0  0
  6  9  1  0  0  0
  7  8  1  0  0  0
  9 10  1  0  0  0
  9 12  1  0  0  0
 10 11  1  0  0  0
 12 13  1  0  0  0
 12 16  1  0  0  0
 13 14  1  0  0  0
 14 15  1  0  0  0
 16 17  1  0  0  0
 17 18  1  0  0  0
 17  5  1  0  0  0
 18 19  1  0  0  0
 19 20  1  0  0  0
 20 21  1  0  0  0
 21 22  2  0  0  0
 22 23  2  0  0  0
M  END
>  <CHROM.0>
-178.61227132,154.22605217,-63.58493329

>  <CHROM.1>
5.32713397,-122.42405592,57.62757740,-51.13995761,61.62692268,-66.36296834
167.79628517,-178.09526397,52.73911285,-111.62029485,90.65420333,20.36241549
-103.18444357,0.99070537,-1.44422526,-1.33975967

>  <Energy>
33.84595458334942

>  <Genealogy>
CC(O)=N[C@@H]1[C@H](O)[C@H](O)[C@@H](CO)O[C@H]1OCCN=[N+]=[N-] (tautomer)
C/C(O)=N\[C@@H]1[C@H](O)[C@H](O)[C@@H](CO)O[C@H]1OCCN=[N+]=[N-] (cis-trans isomerization)
C/C(O)=N\[C@@H]1[C@H](O)[C@H](O)[C@@H](CO)O[C@H]1OCCN=[N+]=[N-] (3D coordinates assigned)
C/C(O)=N\[C@@H]1[C@H](O)[C@H](O)[C@@H](CO)O[C@H]1OCCN=[N+]=[N-] (nonaromatic ring conformer: 33.84595458334942 kcal/mol)

>  <Name>
ZINC000102205030

>  <RI>
3.62712e+07

>  <Rbt.Current_Directory>
/home/edward/Documentos/Virtual_Screening/rDock/3

>  <Rbt.Executable>
rbdock ($Id: //depot/dev/client3/rdock/2013.1/src/exe/rbdock.cxx#4 $)

>  <Rbt.Library>
libRbt.so (2013.1, Build901 2013/11/27)

>  <Rbt.Parameter_File>
/home/edward/anaconda3/envs/MD/share/rdock-2013.1-1/data/scripts/dock.prm

>  <Rbt.Receptor>
parameters.prm

>  <SCORE>
-17.3432

>  <SCORE.INTER>
-13.9616

>  <SCORE.INTER.CONST>
1

>  <SCORE.INTER.POLAR>
-2.55927

>  <SCORE.INTER.REPUL>
0.00136979

>  <SCORE.INTER.ROT>
6

>  <SCORE.INTER.VDW>
-16.6669

>  <SCORE.INTER.norm>
-0.698079

>  <SCORE.INTRA>
-5.13723

>  <SCORE.INTRA.DIHEDRAL>
-11.8414

>  <SCORE.INTRA.DIHEDRAL.0>
13.8679

>  <SCORE.INTRA.POLAR>
-0.143594

>  <SCORE.INTRA.POLAR.0>
0

>  <SCORE.INTRA.REPUL>
0

>  <SCORE.INTRA.REPUL.0>
0

>  <SCORE.INTRA.VDW>
1.27171

>  <SCORE.INTRA.VDW.0>
-3.36542

>  <SCORE.INTRA.norm>
-0.256862

>  <SCORE.RESTR>
0

>  <SCORE.RESTR.CAVITY>
0

>  <SCORE.RESTR.norm>
0

>  <SCORE.SYSTEM>
1.75559

>  <SCORE.SYSTEM.CONST>
0

>  <SCORE.SYSTEM.DIHEDRAL>
3.17661

>  <SCORE.SYSTEM.VDW>
0.167282

>  <SCORE.SYSTEM.norm>
0.0877793

>  <SCORE.heavy>
20

>  <SCORE.norm>
-0.867161

>  <SMILES>
C/C(O)=N\[C@@H]1[C@H](O)[C@H](O)[C@@H](CO)O[C@H]1OCCN=[N+]=[N-]

>  <UniqueID>
382

$$$$
ZINC000102863660
  rDOCK(R)          3D
libRbt.so/2013.1/901 2013/11/27
 23 23  0  0  0  0  0  0  0  0999 V2000
   86.7544   22.6141  -99.5766 H   0  0  0  0  0  0
   86.2477   22.9846 -100.3721 O   0  0  0  0  0  0
   86.3917   24.3135 -100.7608 C   0  0  0  0  0  0
   85.7187   24.7482 -101.7887 N   0  0  0  0  0  0
   85.7284   26.1108 -102.3321 C   0  0  0  0  0  0
   86.1335   26.0606 -103.8171 C   0  0  0  0  0  0
   87.4500   25.5356 -103.8960 O   0  0  0  0  0  0
   87.8354   25.0638 -105.1871 C   0  0  0  0  0  0
   87.9297   26.1925 -106.2444 C   0  0  0  0  0  0
   89.2401   24.4600 -105.0188 C   0  0  0  0  0  0
   86.8906   23.9399 -105.6699 C   0  0  0  0  0  0
   86.1419   27.3721 -104.3554 O   0  0  0  0  0  0
   84.8323   27.9150 -104.3834 C   0  0  0  0  0  0
   84.8813   29.2547 -105.1323 C   0  0  0  0  0  0
   85.8537   30.0946 -104.5703 O   0  0  0  0  0  0
   86.7099   29.5924 -104.5914 H   0  0  0  0  0  0
   84.3057   28.1033 -102.9400 C   0  0  0  0  0  0
   82.9903   28.5999 -102.9543 O   0  0  0  0  0  0
   82.7213   28.7464 -102.0100 H   0  0  0  0  0  0
   84.3356   26.7573 -102.1913 C   0  0  0  0  0  0
   83.3560   25.8880 -102.7072 O   0  0  0  0  0  0
   82.4731   26.2418 -102.4228 H   0  0  0  0  0  0
   87.3393   25.1839  -99.9886 C   0  0  0  0  0  0
  1  2  1  0  0  0
  2  3  1  0  0  0
  3  4  2  0  0  0
  3 23  1  0  0  0
  4  5  1  0  0  0
  5  6  1  0  0  0
  6  7  1  0  0  0
  6 12  1  0  0  0
  7  8  1  0  0  0
  8  9  1  0  0  0
  8 10  1  0  0  0
  8 11  1  0  0  0
 12 13  1  0  0  0
 13 14  1  0  0  0
 13 17  1  0  0  0
 14 15  1  0  0  0
 15 16  1  0  0  0
 17 18  1  0  0  0
 17 20  1  0  0  0
 18 19  1  0  0  0
 20 21  1  0  0  0
 20  5  1  0  0  0
 21 22  1  0  0  0
M  END
>  <CHROM.0>
178.72385189,153.99136916,-64.76750395

>  <CHROM.1>
-179.87700227,123.45788225,162.74949305,65.83265463,-53.53327652,55.89129808
-177.06795625,167.86584678,85.95996221,26.26083630,-103.37940718,0.92843496
-0.74153620,2.27604993

>  <Energy>
40.825845498693255

>  <Genealogy>
CC(O)=N[C@H]1[C@H](OC(C)(C)C)O[C@H](CO)[C@@H](O)[C@H]1O (tautomer)
C/C(O)=N/[C@H]1[C@H](OC(C)(C)C)O[C@H](CO)[C@@H](O)[C@H]1O (cis-trans isomerization)
C/C(O)=N/[C@H]1[C@H](OC(C)(C)C)O[C@H](CO)[C@@H](O)[C@H]1O (3D coordinates assigned)
C/C(O)=N/[C@H]1[C@H](OC(C)(C)C)O[C@H](CO)[C@@H](O)[C@H]1O (nonaromatic ring conformer: 40.825845498693255 kcal/mol)

>  <Name>
ZINC000102863660

>  <RI>
3.62712e+07

>  <Rbt.Current_Directory>
/home/edward/Documentos/Virtual_Screening/rDock/3

>  <Rbt.Executable>
rbdock ($Id: //depot/dev/client3/rdock/2013.1/src/exe/rbdock.cxx#4 $)

>  <Rbt.Library>
libRbt.so (2013.1, Build901 2013/11/27)

>  <Rbt.Parameter_File>
/home/edward/anaconda3/envs/MD/share/rdock-2013.1-1/data/scripts/dock.prm

>  <Rbt.Receptor>
parameters.prm

>  <SCORE>
-19.2709

>  <SCORE.INTER>
-15.8244

>  <SCORE.INTER.CONST>
1

>  <SCORE.INTER.POLAR>
-2.75763

>  <SCORE.INTER.REPUL>
0

>  <SCORE.INTER.ROT>
4

>  <SCORE.INTER.VDW>
-15.8485

>  <SCORE.INTER.norm>
-0.832863

>  <SCORE.INTRA>
-5.20181

>  <SCORE.INTRA.DIHEDRAL>
-11.5626

>  <SCORE.INTRA.DIHEDRAL.0>
14.0272

>  <SCORE.INTRA.POLAR>
-0.0652623

>  <SCORE.INTRA.POLAR.0>
0

>  <SCORE.INTRA.REPUL>
0

>  <SCORE.INTRA.REPUL.0>
0

>  <SCORE.INTRA.VDW>
0.801359

>  <SCORE.INTRA.VDW.0>
-0.483674

>  <SCORE.INTRA.norm>
-0.273779

>  <SCORE.RESTR>
0.0128849

>  <SCORE.RESTR.CAVITY>
0.0128849

>  <SCORE.RESTR.norm>
0.000678155

>  <SCORE.SYSTEM>
1.74242

>  <SCORE.SYSTEM.CONST>
0

>  <SCORE.SYSTEM.DIHEDRAL>
3.1942

>  <SCORE.SYSTEM.VDW>
0.145325

>  <SCORE.SYSTEM.norm>
0.0917065

>  <SCORE.heavy>
19

>  <SCORE.norm>
-1.01426

>  <SMILES>
C/C(O)=N/[C@H]1[C@H](OC(C)(C)C)O[C@H](CO)[C@@H](O)[C@H]1O

>  <UniqueID>
386

$$$$
ZINC000102974493
  rDOCK(R)          3D
libRbt.so/2013.1/901 2013/11/27
 26 27  0  0  0  0  0  0  0  0999 V2000
   88.7005   14.4059 -102.1380 H   0  0  0  0  0  0
   89.4101   14.0284 -102.7545 O   0  0  0  0  0  0
   89.5023   14.4336 -104.0840 C   0  0  0  0  0  0
   88.6857   15.3165 -104.5835 N   0  0  0  0  0  0
   87.5992   16.0416 -103.9081 C   0  0  0  0  0  0
   87.4297   17.4931 -104.4043 C   0  0  0  0  0  0
   88.6824   18.1673 -104.2951 O   0  0  0  0  0  0
   89.3974   18.3417 -103.1001 C   0  0  0  0  0  0
   89.8112   19.6084 -102.6404 C   0  0  0  0  0  0
   90.5208   19.7244 -101.4410 C   0  0  0  0  0  0
   90.8250   18.5838 -100.6917 C   0  0  0  0  0  0
   91.7155   18.7323  -99.1878 Cl  0  0  0  0  0  0
   90.4185   17.3246 -101.1434 C   0  0  0  0  0  0
   89.7085   17.2058 -102.3420 C   0  0  0  0  0  0
   86.4745   18.1604 -103.5968 O   0  0  0  0  0  0
   85.1873   17.5864 -103.7673 C   0  0  0  0  0  0
   84.1675   18.4442 -103.0049 C   0  0  0  0  0  0
   84.3983   18.3643 -101.6236 O   0  0  0  0  0  0
   83.6211   18.7914 -101.1774 H   0  0  0  0  0  0
   85.1792   16.1231 -103.2424 C   0  0  0  0  0  0
   83.9118   15.5234 -103.3658 O   0  0  0  0  0  0
   83.9695   14.6062 -102.9909 H   0  0  0  0  0  0
   86.2584   15.2821 -103.9604 C   0  0  0  0  0  0
   85.8812   15.0439 -105.2932 O   0  0  0  0  0  0
   86.4717   14.3251 -105.6400 H   0  0  0  0  0  0
   90.5342   13.8135 -104.9699 C   0  0  0  0  0  0
  1  2  1  0  0  0
  2  3  1  0  0  0
  3  4  2  0  0  0
  3 26  1  0  0  0
  4  5  1  0  0  0
  5  6  1  0  0  0
  6  7  1  0  0  0
  6 15  1  0  0  0
  7  8  1  0  0  0
  8  9  2  0  0  0
  9 10  1  0  0  0
 10 11  2  0  0  0
 11 12  1  0  0  0
 11 13  1  0  0  0
 13 14  2  0  0  0
 14  8  1  0  0  0
 15 16  1  0  0  0
 16 17  1  0  0  0
 16 20  1  0  0  0
 17 18  1  0  0  0
 18 19  1  0  0  0
 20 21  1  0  0  0
 20 23  1  0  0  0
 21 22  1  0  0  0
 23 24  1  0  0  0
 23  5  1  0  0  0
 24 25  1  0  0  0
M  END
>  <CHROM.0>
-174.23294661,150.07873507,-64.68808056

>  <CHROM.1>
0.34145765,144.17901450,-59.21319386,-125.29310170,-66.49628525,-169.69012482
-178.38625548,73.68913720,88.11673267,17.02805580,-102.84342051,-2.56698731
-0.22235805,0.64085667

>  <Energy>
40.88128327750633

>  <Genealogy>
CC(O)=N[C@H]1[C@H](Oc2ccc(Cl)cc2)O[C@H](CO)[C@@H](O)[C@H]1O (tautomer)
C/C(O)=N/[C@H]1[C@H](Oc2ccc(Cl)cc2)O[C@H](CO)[C@@H](O)[C@H]1O (cis-trans isomerization)
C/C(O)=N/[C@H]1[C@H](Oc2ccc(Cl)cc2)O[C@H](CO)[C@@H](O)[C@H]1O (3D coordinates assigned)
C/C(O)=N/[C@H]1[C@H](Oc2ccc(Cl)cc2)O[C@H](CO)[C@@H](O)[C@H]1O (nonaromatic ring conformer: 40.88128327750633 kcal/mol)

>  <Name>
ZINC000102974493

>  <RI>
3.62712e+07

>  <Rbt.Current_Directory>
/home/edward/Documentos/Virtual_Screening/rDock/3

>  <Rbt.Executable>
rbdock ($Id: //depot/dev/client3/rdock/2013.1/src/exe/rbdock.cxx#4 $)

>  <Rbt.Library>
libRbt.so (2013.1, Build901 2013/11/27)

>  <Rbt.Parameter_File>
/home/edward/anaconda3/envs/MD/share/rdock-2013.1-1/data/scripts/dock.prm

>  <Rbt.Receptor>
parameters.prm

>  <SCORE>
-19.823

>  <SCORE.INTER>
-19.9752

>  <SCORE.INTER.CONST>
1

>  <SCORE.INTER.POLAR>
-2.87901

>  <SCORE.INTER.REPUL>
0.0958653

>  <SCORE.INTER.ROT>
4

>  <SCORE.INTER.VDW>
-20.0659

>  <SCORE.INTER.norm>
-0.907965

>  <SCORE.INTRA>
-1.70627

>  <SCORE.INTRA.DIHEDRAL>
-2.67486

>  <SCORE.INTRA.DIHEDRAL.0>
8.3749

>  <SCORE.INTRA.POLAR>
0

>  <SCORE.INTRA.POLAR.0>
0

>  <SCORE.INTRA.REPUL>
-0.0510214

>  <SCORE.INTRA.REPUL.0>
0.0510214

>  <SCORE.INTRA.VDW>
-0.11373

>  <SCORE.INTRA.VDW.0>
-2.15636

>  <SCORE.INTRA.norm>
-0.0775576

>  <SCORE.RESTR>
0

>  <SCORE.RESTR.CAVITY>
0

>  <SCORE.RESTR.norm>
0

>  <SCORE.SYSTEM>
1.85854

>  <SCORE.SYSTEM.CONST>
0

>  <SCORE.SYSTEM.DIHEDRAL>
4.08051

>  <SCORE.SYSTEM.VDW>
-0.181708

>  <SCORE.SYSTEM.norm>
0.0844793

>  <SCORE.heavy>
22

>  <SCORE.norm>
-0.901044

>  <SMILES>
C/C(O)=N/[C@H]1[C@H](Oc2ccc(Cl)cc2)O[C@H](CO)[C@@H](O)[C@H]1O

>  <UniqueID>
390

$$$$
ZINC000105341667
  rDOCK(R)          3D
libRbt.so/2013.1/901 2013/11/27
 19 19  0  0  0  0  0  0  0  0999 V2000
   89.9064   14.7518 -104.5016 C   0  0  0  0  0  0
   88.5699   14.5259 -104.1126 O   0  0  0  0  0  0
   88.1555   15.4765 -103.1397 C   0  0  0  0  0  0
   87.2058   14.7993 -102.1333 C   0  0  0  0  0  0
   87.8086   13.6425 -101.6111 O   0  0  0  0  0  0
   85.8698   14.4339 -102.8234 C   0  0  0  0  0  0
   84.8976   13.7990 -101.8175 C   0  0  0  0  0  0
   83.6553   13.5599 -102.4233 O   0  0  0  0  0  0
   85.2544   15.5916 -103.3703 O   0  0  0  0  0  0
   86.0509   16.1809 -104.3877 C   0  0  0  0  0  0
   86.2129   15.3055 -105.4763 O   0  0  0  0  0  0
   87.4158   16.6442 -103.8268 C   0  0  0  0  0  0
   88.2422   17.2657 -104.8704 N   0  3  0  0  0  0
   88.6833   13.9219 -101.2335 H   0  0  0  0  0  0
   83.0677   13.1650 -101.7273 H   0  0  0  0  0  0
   86.7366   14.5331 -105.1384 H   0  0  0  0  0  0
   89.1775   17.5449 -104.4955 H   0  0  0  0  0  0
   88.3795   16.5919 -105.6584 H   0  0  0  0  0  0
   87.7574   18.1132 -105.2456 H   0  0  0  0  0  0
  1  2  1  0  0  0
  2  3  1  0  0  0
  3  4  1  0  0  0
  4  5  1  0  0  0
  4  6  1  0  0  0
  5 14  1  0  0  0
  6  7  1  0  0  0
  6  9  1  0  0  0
  7  8  1  0  0  0
  8 15  1  0  0  0
  9 10  1  0  0  0
 10 11  1  0  0  0
 10 12  1  0  0  0
 11 16  1  0  0  0
 12 13  1  0  0  0
 12  3  1  0  0  0
 13 17  1  0  0  0
 13 18  1  0  0  0
 13 19  1  0  0  0
M  END
>  <CHROM.0>
-178.64310174,153.18026376,-66.65194124

>  <CHROM.1>
-144.38248451,55.02429002,175.67748832,-179.14524969,-65.39680472,-53.26899244
86.86358020,15.05182800,-103.44639220,-0.63269906,-0.02339580,2.31621304

>  <Energy>
29.773283244133868

>  <Genealogy>
CO[C@@H]1[C@H](O)[C@@H](CO)O[C@H](O)[C@@H]1[NH3+] (protonated)
CO[C@@H]1[C@H](O)[C@@H](CO)O[C@H](O)[C@@H]1[NH3+] (3D coordinates assigned)
CO[C@@H]1[C@H](O)[C@@H](CO)O[C@H](O)[C@@H]1[NH3+] (nonaromatic ring conformer: 29.773283244133868 kcal/mol)

>  <Name>
ZINC000105341667

>  <RI>
3.62712e+07

>  <Rbt.Current_Directory>
/home/edward/Documentos/Virtual_Screening/rDock/3

>  <Rbt.Executable>
rbdock ($Id: //depot/dev/client3/rdock/2013.1/src/exe/rbdock.cxx#4 $)

>  <Rbt.Library>
libRbt.so (2013.1, Build901 2013/11/27)

>  <Rbt.Parameter_File>
/home/edward/anaconda3/envs/MD/share/rdock-2013.1-1/data/scripts/dock.prm

>  <Rbt.Receptor>
parameters.prm

>  <SCORE>
-17.1302

>  <SCORE.INTER>
-15.5187

>  <SCORE.INTER.CONST>
1

>  <SCORE.INTER.POLAR>
-3.83277

>  <SCORE.INTER.REPUL>
0.0821038

>  <SCORE.INTER.ROT>
2

>  <SCORE.INTER.VDW>
-10.2978

>  <SCORE.INTER.norm>
-1.19374

>  <SCORE.INTRA>
-3.35129

>  <SCORE.INTRA.DIHEDRAL>
-5.34537

>  <SCORE.INTRA.DIHEDRAL.0>
10.539

>  <SCORE.INTRA.POLAR>
-0.580153

>  <SCORE.INTRA.POLAR.0>
0

>  <SCORE.INTRA.REPUL>
-0.000998169

>  <SCORE.INTRA.REPUL.0>
0.000998169

>  <SCORE.INTRA.VDW>
1.29891

>  <SCORE.INTRA.VDW.0>
-1.64395

>  <SCORE.INTRA.norm>
-0.257791

>  <SCORE.RESTR>
0

>  <SCORE.RESTR.CAVITY>
0

>  <SCORE.RESTR.norm>
0

>  <SCORE.SYSTEM>
1.73979

>  <SCORE.SYSTEM.CONST>
0

>  <SCORE.SYSTEM.DIHEDRAL>
3.31838

>  <SCORE.SYSTEM.VDW>
0.0806032

>  <SCORE.SYSTEM.norm>
0.13383

>  <SCORE.heavy>
13

>  <SCORE.norm>
-1.31771

>  <SMILES>
CO[C@@H]1[C@H](O)[C@@H](CO)O[C@H](O)[C@@H]1[NH3+]

>  <UniqueID>
391

$$$$
ZINC000106381125
  rDOCK(R)          3D
libRbt.so/2013.1/901 2013/11/27
 24 24  0  0  0  0  0  0  0  0999 V2000
   85.6843   22.3875 -100.7994 H   0  0  0  0  0  0
   86.1862   23.0637 -100.2366 O   0  0  0  0  0  0
   86.2978   24.3972 -100.6221 C   0  0  0  0  0  0
   85.7228   24.7694 -101.7295 N   0  0  0  0  0  0
   85.7068   26.1201 -102.3013 C   0  0  0  0  0  0
   86.1522   26.0543 -103.7743 C   0  0  0  0  0  0
   87.4852   25.5620 -103.8109 O   0  0  0  0  0  0
   87.8966   25.0003 -105.0588 C   0  0  0  0  0  0
   86.9244   23.8387 -105.3485 C   0  0  0  0  0  0
   87.7335   26.0198 -106.2149 C   0  0  0  0  0  0
   89.3603   24.4558 -105.0297 C   0  0  0  0  0  0
   89.6574   23.5162 -103.8558 C   0  0  0  0  0  0
   86.1435   27.3572 -104.3313 O   0  0  0  0  0  0
   84.8237   27.8688 -104.4052 C   0  0  0  0  0  0
   84.8639   29.2013 -105.1671 C   0  0  0  0  0  0
   85.7229   30.1057 -104.5262 O   0  0  0  0  0  0
   86.6155   29.6725 -104.4887 H   0  0  0  0  0  0
   84.2494   28.0656 -102.9833 C   0  0  0  0  0  0
   82.9275   28.5350 -103.0605 O   0  0  0  0  0  0
   82.4135   27.8577 -103.5732 H   0  0  0  0  0  0
   84.2924   26.7347 -102.2088 C   0  0  0  0  0  0
   83.3353   25.8505 -102.7408 O   0  0  0  0  0  0
   82.4432   26.1869 -102.4638 H   0  0  0  0  0  0
   87.0932   25.3485  -99.7698 C   0  0  0  0  0  0
  1  2  1  0  0  0
  2  3  1  0  0  0
  3  4  2  0  0  0
  3 24  1  0  0  0
  4  5  1  0  0  0
  5  6  1  0  0  0
  6  7  1  0  0  0
  6 13  1  0  0  0
  7  8  1  0  0  0
  8  9  1  0  0  0
  8 10  1  0  0  0
  8 11  1  0  0  0
 11 12  1  0  0  0
 13 14  1  0  0  0
 14 15  1  0  0  0
 14 18  1  0  0  0
 15 16  1  0  0  0
 16 17  1  0  0  0
 18 19  1  0  0  0
 18 21  1  0  0  0
 19 20  1  0  0  0
 21 22  1  0  0  0
 21  5  1  0  0  0
 22 23  1  0  0  0
M  END
>  <CHROM.0>
-177.65182917,152.87401883,-64.84534118

>  <CHROM.1>
0.79624678,128.99581510,159.05759083,-59.15812943,50.68464735,-58.00810098
58.13932358,58.69807573,166.69228168,86.09884854,26.11043585,-103.35890131
0.64431452,-0.69630791,2.25376544

>  <Energy>
43.788222457211795

>  <Genealogy>
CCC(C)(C)O[C@@H]1O[C@H](CO)[C@@H](O)[C@@H](O)[C@H]1N=C(C)O (tautomer)
CCC(C)(C)O[C@@H]1O[C@H](CO)[C@@H](O)[C@@H](O)[C@H]1/N=C(/C)O (cis-trans isomerization)
CCC(C)(C)O[C@@H]1O[C@H](CO)[C@@H](O)[C@@H](O)[C@H]1/N=C(/C)O (3D coordinates assigned)
CCC(C)(C)O[C@@H]1O[C@H](CO)[C@@H](O)[C@@H](O)[C@H]1/N=C(/C)O (nonaromatic ring conformer: 43.788222457211795 kcal/mol)

>  <Name>
ZINC000106381125

>  <RI>
3.62712e+07

>  <Rbt.Current_Directory>
/home/edward/Documentos/Virtual_Screening/rDock/3

>  <Rbt.Executable>
rbdock ($Id: //depot/dev/client3/rdock/2013.1/src/exe/rbdock.cxx#4 $)

>  <Rbt.Library>
libRbt.so (2013.1, Build901 2013/11/27)

>  <Rbt.Parameter_File>
/home/edward/anaconda3/envs/MD/share/rdock-2013.1-1/data/scripts/dock.prm

>  <Rbt.Receptor>
parameters.prm

>  <SCORE>
-15.3186

>  <SCORE.INTER>
-15.867

>  <SCORE.INTER.CONST>
1

>  <SCORE.INTER.POLAR>
-2.91129

>  <SCORE.INTER.REPUL>
0

>  <SCORE.INTER.ROT>
5

>  <SCORE.INTER.VDW>
-16.3686

>  <SCORE.INTER.norm>
-0.793352

>  <SCORE.INTRA>
-1.22869

>  <SCORE.INTRA.DIHEDRAL>
-8.3664

>  <SCORE.INTRA.DIHEDRAL.0>
11.5934

>  <SCORE.INTRA.POLAR>
-0.0337078

>  <SCORE.INTRA.POLAR.0>
0

>  <SCORE.INTRA.REPUL>
0

>  <SCORE.INTRA.REPUL.0>
0

>  <SCORE.INTRA.VDW>
3.06912

>  <SCORE.INTRA.VDW.0>
0.106388

>  <SCORE.INTRA.norm>
-0.0614344

>  <SCORE.RESTR>
0.0184697

>  <SCORE.RESTR.CAVITY>
0.0184697

>  <SCORE.RESTR.norm>
0.000923485

>  <SCORE.SYSTEM>
1.75864

>  <SCORE.SYSTEM.CONST>
0

>  <SCORE.SYSTEM.DIHEDRAL>
3.41857

>  <SCORE.SYSTEM.VDW>
0.0493551

>  <SCORE.SYSTEM.norm>
0.0879321

>  <SCORE.heavy>
20

>  <SCORE.norm>
-0.765931

>  <SMILES>
CCC(C)(C)O[C@@H]1O[C@H](CO)[C@@H](O)[C@@H](O)[C@H]1/N=C(/C)O

>  <UniqueID>
395

$$$$
ZINC000106382931
  rDOCK(R)          3D
libRbt.so/2013.1/901 2013/11/27
 26 27  0  0  0  0  0  0  0  0999 V2000
   88.8310   22.5972 -104.1518 H   0  0  0  0  0  0
   88.7989   21.7158 -104.6499 O   0  0  0  0  0  0
   89.2679   20.5354 -104.0788 C   0  0  0  0  0  0
   89.1979   19.4402 -104.7801 N   0  0  0  0  0  0
   89.6508   18.1057 -104.3729 C   0  0  0  0  0  0
   88.5191   17.0902 -104.6065 C   0  0  0  0  0  0
   87.3918   17.4701 -103.8180 O   0  0  0  0  0  0
   86.2227   16.7076 -103.6701 C   0  0  0  0  0  0
   86.2020   15.4144 -104.2081 C   0  0  0  0  0  0
   85.0618   14.6140 -104.0881 C   0  0  0  0  0  0
   83.9310   15.1010 -103.4274 C   0  0  0  0  0  0
   82.8258   14.3243 -103.3115 F   0  0  0  0  0  0
   83.9403   16.3891 -102.8854 C   0  0  0  0  0  0
   85.0792   17.1925 -103.0033 C   0  0  0  0  0  0
   88.9396   15.7956 -104.2115 O   0  0  0  0  0  0
   89.9799   15.3280 -105.0536 C   0  0  0  0  0  0
   90.2605   13.8643 -104.6871 C   0  0  0  0  0  0
   91.1357   13.2861 -105.6161 O   0  0  0  0  0  0
   91.9218   13.8898 -105.6666 H   0  0  0  0  0  0
   91.2410   16.2132 -104.8767 C   0  0  0  0  0  0
   92.2679   15.7950 -105.7415 O   0  0  0  0  0  0
   93.1089   16.2179 -105.4261 H   0  0  0  0  0  0
   90.8985   17.6822 -105.1781 C   0  0  0  0  0  0
   90.6692   17.8383 -106.5580 O   0  0  0  0  0  0
   89.8887   17.2701 -106.7893 H   0  0  0  0  0  0
   89.8111   20.5587 -102.6756 C   0  0  0  0  0  0
  1  2  1  0  0  0
  2  3  1  0  0  0
  3  4  2  0  0  0
  3 26  1  0  0  0
  4  5  1  0  0  0
  5  6  1  0  0  0
  6  7  1  0  0  0
  6 15  1  0  0  0
  7  8  1  0  0  0
  8  9  2  0  0  0
  9 10  1  0  0  0
 10 11  2  0  0  0
 11 12  1  0  0  0
 11 13  1  0  0  0
 13 14  2  0  0  0
 14  8  1  0  0  0
 15 16  1  0  0  0
 16 17  1  0  0  0
 16 20  1  0  0  0
 17 18  1  0  0  0
 18 19  1  0  0  0
 20 21  1  0  0  0
 20 23  1  0  0  0
 21 22  1  0  0  0
 23 24  1  0  0  0
 23  5  1  0  0  0
 24 25  1  0  0  0
M  END
>  <CHROM.0>
178.76399904,154.62186112,-69.59732481

>  <CHROM.1>
-179.82533756,129.24852912,-173.23930848,7.40215974,171.08843483,52.78999643
-165.11736624,-59.17860290,88.30110426,16.82462029,-104.37700825,0.30045609
0.29000420,0.12853291

>  <Energy>
38.77546518827223

>  <Genealogy>
CC(O)=N[C@H]1[C@H](Oc2ccc(F)cc2)O[C@H](CO)[C@@H](O)[C@H]1O (tautomer)
C/C(O)=N\[C@H]1[C@H](Oc2ccc(F)cc2)O[C@H](CO)[C@@H](O)[C@H]1O (cis-trans isomerization)
C/C(O)=N\[C@H]1[C@H](Oc2ccc(F)cc2)O[C@H](CO)[C@@H](O)[C@H]1O (3D coordinates assigned)
C/C(O)=N\[C@H]1[C@H](Oc2ccc(F)cc2)O[C@H](CO)[C@@H](O)[C@H]1O (nonaromatic ring conformer: 38.77546518827223 kcal/mol)

>  <Name>
ZINC000106382931

>  <RI>
3.62712e+07

>  <Rbt.Current_Directory>
/home/edward/Documentos/Virtual_Screening/rDock/3

>  <Rbt.Executable>
rbdock ($Id: //depot/dev/client3/rdock/2013.1/src/exe/rbdock.cxx#4 $)

>  <Rbt.Library>
libRbt.so (2013.1, Build901 2013/11/27)

>  <Rbt.Parameter_File>
/home/edward/anaconda3/envs/MD/share/rdock-2013.1-1/data/scripts/dock.prm

>  <Rbt.Receptor>
parameters.prm

>  <SCORE>
-18.0729

>  <SCORE.INTER>
-15.0528

>  <SCORE.INTER.CONST>
1

>  <SCORE.INTER.POLAR>
-1.33465

>  <SCORE.INTER.REPUL>
0.00404898

>  <SCORE.INTER.ROT>
4

>  <SCORE.INTER.VDW>
-19.9353

>  <SCORE.INTER.norm>
-0.68422

>  <SCORE.INTRA>
-4.78723

>  <SCORE.INTRA.DIHEDRAL>
-7.55983

>  <SCORE.INTRA.DIHEDRAL.0>
9.59525

>  <SCORE.INTRA.POLAR>
-0.757127

>  <SCORE.INTRA.POLAR.0>
0

>  <SCORE.INTRA.REPUL>
0

>  <SCORE.INTRA.REPUL.0>
0

>  <SCORE.INTRA.VDW>
1.56692

>  <SCORE.INTRA.VDW.0>
-2.00046

>  <SCORE.INTRA.norm>
-0.217601

>  <SCORE.RESTR>
0

>  <SCORE.RESTR.CAVITY>
0

>  <SCORE.RESTR.norm>
0

>  <SCORE.SYSTEM>
1.76718

>  <SCORE.SYSTEM.CONST>
0

>  <SCORE.SYSTEM.DIHEDRAL>
3.0391

>  <SCORE.SYSTEM.VDW>
0.247628

>  <SCORE.SYSTEM.norm>
0.0803262

>  <SCORE.heavy>
22

>  <SCORE.norm>
-0.821495

>  <SMILES>
C/C(O)=N\[C@H]1[C@H](Oc2ccc(F)cc2)O[C@H](CO)[C@@H](O)[C@H]1O

>  <UniqueID>
399

$$$$
ZINC000106382957
  rDOCK(R)          3D
libRbt.so/2013.1/901 2013/11/27
 27 28  0  0  0  0  0  0  0  0999 V2000
   90.3583   13.0626 -103.9234 H   0  0  0  0  0  0
   89.8591   13.9438 -103.9130 O   0  0  0  0  0  0
   90.2832   15.0213 -104.6903 C   0  0  0  0  0  0
   89.7327   16.1921 -104.5609 N   0  0  0  0  0  0
   88.6511   16.5069 -103.6242 C   0  0  0  0  0  0
   88.4040   18.0336 -103.5300 C   0  0  0  0  0  0
   89.5778   18.6972 -103.0531 O   0  0  0  0  0  0
   89.7151   20.0648 -102.7413 C   0  0  0  0  0  0
   89.1670   21.0855 -103.5487 C   0  0  0  0  0  0
   89.3373   22.4281 -103.2069 C   0  0  0  0  0  0
   90.0486   22.7746 -102.0602 C   0  0  0  0  0  0
   90.5946   21.7796 -101.2491 C   0  0  0  0  0  0
   90.4345   20.4214 -101.5789 C   0  0  0  0  0  0
   91.0273   19.3752 -100.7176 C   0  0  0  0  0  0
   91.7360   19.6782  -99.7210 O   0  0  0  0  0  0
   87.3656   18.2843 -102.5984 O   0  0  0  0  0  0
   86.1295   17.7651 -103.0640 C   0  0  0  0  0  0
   85.0145   18.2275 -102.1139 C   0  0  0  0  0  0
   83.7738   17.6933 -102.4955 O   0  0  0  0  0  0
   83.1027   18.0275 -101.8451 H   0  0  0  0  0  0
   86.1927   16.2219 -103.1627 C   0  0  0  0  0  0
   84.9802   15.7236 -103.6682 O   0  0  0  0  0  0
   84.2592   16.0847 -103.0888 H   0  0  0  0  0  0
   87.3582   15.8030 -104.0773 C   0  0  0  0  0  0
   87.0549   16.1360 -105.4108 O   0  0  0  0  0  0
   86.9503   17.1225 -105.4481 H   0  0  0  0  0  0
   91.4013   14.8353 -105.6641 C   0  0  0  0  0  0
  1  2  1  0  0  0
  2  3  1  0  0  0
  3  4  2  0  0  0
  3 27  1  0  0  0
  4  5  1  0  0  0
  5  6  1  0  0  0
  6  7  1  0  0  0
  6 16  1  0  0  0
  7  8  1  0  0  0
  8  9  2  0  0  0
  9 10  1  0  0  0
 10 11  2  0  0  0
 11 12  1  0  0  0
 12 13  2  0  0  0
 13 14  1  0  0  0
 13  8  1  0  0  0
 14 15  2  0  0  0
 16 17  1  0  0  0
 17 18  1  0  0  0
 17 21  1  0  0  0
 18 19  1  0  0  0
 19 20  1  0  0  0
 21 22  1  0  0  0
 21 24  1  0  0  0
 22 23  1  0  0  0
 24 25  1  0  0  0
 24  5  1  0  0  0
 25 26  1  0  0  0
M  END
>  <CHROM.0>
179.93241335,157.60946067,-65.57693506

>  <CHROM.1>
-172.17949954,169.38139597,-174.93646201,-42.18726762,175.88259940,-177.44095374
179.93638502,-54.11794051,-59.24087154,88.51312954,18.00125905,-103.08235778
-2.07148324,0.03041230,0.43230746

>  <Energy>
41.80469716855105

>  <Genealogy>
CC(O)=N[C@H]1[C@H](Oc2ccccc2C=O)O[C@H](CO)[C@@H](O)[C@H]1O (tautomer)
C/C(O)=N\[C@H]1[C@H](Oc2ccccc2C=O)O[C@H](CO)[C@@H](O)[C@H]1O (cis-trans isomerization)
C/C(O)=N\[C@H]1[C@H](Oc2ccccc2C=O)O[C@H](CO)[C@@H](O)[C@H]1O (3D coordinates assigned)
C/C(O)=N\[C@H]1[C@H](Oc2ccccc2C=O)O[C@H](CO)[C@@H](O)[C@H]1O (nonaromatic ring conformer: 41.80469716855105 kcal/mol)

>  <Name>
ZINC000106382957

>  <RI>
3.62712e+07

>  <Rbt.Current_Directory>
/home/edward/Documentos/Virtual_Screening/rDock/3

>  <Rbt.Executable>
rbdock ($Id: //depot/dev/client3/rdock/2013.1/src/exe/rbdock.cxx#4 $)

>  <Rbt.Library>
libRbt.so (2013.1, Build901 2013/11/27)

>  <Rbt.Parameter_File>
/home/edward/anaconda3/envs/MD/share/rdock-2013.1-1/data/scripts/dock.prm

>  <Rbt.Receptor>
parameters.prm

>  <SCORE>
-21.4528

>  <SCORE.INTER>
-20.3813

>  <SCORE.INTER.CONST>
1

>  <SCORE.INTER.POLAR>
-3.5926

>  <SCORE.INTER.REPUL>
0.0738092

>  <SCORE.INTER.ROT>
5

>  <SCORE.INTER.VDW>
-18.9355

>  <SCORE.INTER.norm>
-0.886143

>  <SCORE.INTRA>
-2.91743

>  <SCORE.INTRA.DIHEDRAL>
-7.26986

>  <SCORE.INTRA.DIHEDRAL.0>
12.407

>  <SCORE.INTRA.POLAR>
-0.721717

>  <SCORE.INTRA.POLAR.0>
0

>  <SCORE.INTRA.REPUL>
0

>  <SCORE.INTRA.REPUL.0>
0

>  <SCORE.INTRA.VDW>
3.17134

>  <SCORE.INTRA.VDW.0>
-3.85897

>  <SCORE.INTRA.norm>
-0.126845

>  <SCORE.RESTR>
0

>  <SCORE.RESTR.CAVITY>
0

>  <SCORE.RESTR.norm>
0

>  <SCORE.SYSTEM>
1.84593

>  <SCORE.SYSTEM.CONST>
0

>  <SCORE.SYSTEM.DIHEDRAL>
2.52497

>  <SCORE.SYSTEM.VDW>
0.583448

>  <SCORE.SYSTEM.norm>
0.0802578

>  <SCORE.heavy>
23

>  <SCORE.norm>
-0.93273

>  <SMILES>
C/C(O)=N\[C@H]1[C@H](Oc2ccccc2C=O)O[C@H](CO)[C@@H](O)[C@H]1O

>  <UniqueID>
402

$$$$
ZINC000106382965
  rDOCK(R)          3D
libRbt.so/2013.1/901 2013/11/27
 27 28  0  0  0  0  0  0  0  0999 V2000
   88.0573   19.9996 -104.1036 H   0  0  0  0  0  0
   87.5259   20.1784 -103.2600 O   0  0  0  0  0  0
   87.4500   19.2298 -102.2407 C   0  0  0  0  0  0
   88.1013   18.1096 -102.3286 N   0  0  0  0  0  0
   88.9342   17.7191 -103.4665 C   0  0  0  0  0  0
   90.4316   17.8245 -103.0951 C   0  0  0  0  0  0
   90.7550   19.1782 -102.7639 O   0  0  0  0  0  0
   90.6401   20.2996 -103.6050 C   0  0  0  0  0  0
   90.3975   21.5418 -103.0075 C   0  0  0  0  0  0
   90.2804   22.6977 -103.7846 C   0  0  0  0  0  0
   90.4007   22.6268 -105.1819 C   0  0  0  0  0  0
   90.2843   23.8342 -106.0199 C   0  0  0  0  0  0
   90.3404   23.7621 -107.2763 O   0  0  0  0  0  0
   90.6341   21.3832 -105.7861 C   0  0  0  0  0  0
   90.7487   20.2271 -105.0083 C   0  0  0  0  0  0
   91.2254   17.4577 -104.2101 O   0  0  0  0  0  0
   91.0447   16.0887 -104.5352 C   0  0  0  0  0  0
   92.0671   15.7037 -105.6169 C   0  0  0  0  0  0
   91.9179   14.3636 -106.0051 O   0  0  0  0  0  0
   92.6138   14.1849 -106.6901 H   0  0  0  0  0  0
   89.5900   15.8334 -105.0036 C   0  0  0  0  0  0
   89.3910   14.4687 -105.2768 O   0  0  0  0  0  0
   90.2051   14.1411 -105.7409 H   0  0  0  0  0  0
   88.6049   16.2780 -103.9113 C   0  0  0  0  0  0
   88.6836   15.3964 -102.8171 O   0  0  0  0  0  0
   88.5306   14.4809 -103.1694 H   0  0  0  0  0  0
   86.6464   19.5163 -101.0138 C   0  0  0  0  0  0
  1  2  1  0  0  0
  2  3  1  0  0  0
  3  4  2  0  0  0
  3 27  1  0  0  0
  4  5  1  0  0  0
  5  6  1  0  0  0
  6  7  1  0  0  0
  6 16  1  0  0  0
  7  8  1  0  0  0
  8  9  2  0  0  0
  9 10  1  0  0  0
 10 11  2  0  0  0
 11 12  1  0  0  0
 11 14  1  0  0  0
 12 13  2  0  0  0
 14 15  2  0  0  0
 15  8  1  0  0  0
 16 17  1  0  0  0
 17 18  1  0  0  0
 17 21  1  0  0  0
 18 19  1  0  0  0
 19 20  1  0  0  0
 21 22  1  0  0  0
 21 24  1  0  0  0
 22 23  1  0  0  0
 24 25  1  0  0  0
 24  5  1  0  0  0
 25 26  1  0  0  0
M  END
>  <CHROM.0>
-179.07202431,153.54886998,-62.94446758

>  <CHROM.1>
2.52176662,106.08220722,-60.55044655,151.06381961,-177.20479133,-178.61595637
-179.19978522,-40.70858772,-175.88546766,89.82495627,18.72702446,-104.15762726
1.59194143,0.81932057,-0.07861921

>  <Energy>
40.3199007105945

>  <Genealogy>
CC(O)=N[C@H]1[C@H](Oc2ccc(C=O)cc2)O[C@H](CO)[C@@H](O)[C@H]1O (tautomer)
C/C(O)=N\[C@H]1[C@H](Oc2ccc(C=O)cc2)O[C@H](CO)[C@@H](O)[C@H]1O (cis-trans isomerization)
C/C(O)=N\[C@H]1[C@H](Oc2ccc(C=O)cc2)O[C@H](CO)[C@@H](O)[C@H]1O (3D coordinates assigned)
C/C(O)=N\[C@H]1[C@H](Oc2ccc(C=O)cc2)O[C@H](CO)[C@@H](O)[C@H]1O (nonaromatic ring conformer: 40.3199007105945 kcal/mol)

>  <Name>
ZINC000106382965

>  <RI>
3.62712e+07

>  <Rbt.Current_Directory>
/home/edward/Documentos/Virtual_Screening/rDock/3

>  <Rbt.Executable>
rbdock ($Id: //depot/dev/client3/rdock/2013.1/src/exe/rbdock.cxx#4 $)

>  <Rbt.Library>
libRbt.so (2013.1, Build901 2013/11/27)

>  <Rbt.Parameter_File>
/home/edward/anaconda3/envs/MD/share/rdock-2013.1-1/data/scripts/dock.prm

>  <Rbt.Receptor>
parameters.prm

>  <SCORE>
-17.9174

>  <SCORE.INTER>
-12.4687

>  <SCORE.INTER.CONST>
1

>  <SCORE.INTER.POLAR>
-1.5748

>  <SCORE.INTER.REPUL>
0

>  <SCORE.INTER.ROT>
5

>  <SCORE.INTER.VDW>
-17.5144

>  <SCORE.INTER.norm>
-0.542118

>  <SCORE.INTRA>
-7.25089

>  <SCORE.INTRA.DIHEDRAL>
-9.19642

>  <SCORE.INTRA.DIHEDRAL.0>
12.4618

>  <SCORE.INTRA.POLAR>
-0.988824

>  <SCORE.INTRA.POLAR.0>
0

>  <SCORE.INTRA.REPUL>
0

>  <SCORE.INTRA.REPUL.0>
0

>  <SCORE.INTRA.VDW>
0.709319

>  <SCORE.INTRA.VDW.0>
-2.71483

>  <SCORE.INTRA.norm>
-0.315256

>  <SCORE.RESTR>
0.0406044

>  <SCORE.RESTR.CAVITY>
0.0406044

>  <SCORE.RESTR.norm>
0.00176541

>  <SCORE.SYSTEM>
1.76156

>  <SCORE.SYSTEM.CONST>
0

>  <SCORE.SYSTEM.DIHEDRAL>
3.31135

>  <SCORE.SYSTEM.VDW>
0.105882

>  <SCORE.SYSTEM.norm>
0.0765895

>  <SCORE.heavy>
23

>  <SCORE.norm>
-0.779019

>  <SMILES>
C/C(O)=N\[C@H]1[C@H](Oc2ccc(C=O)cc2)O[C@H](CO)[C@@H](O)[C@H]1O

>  <UniqueID>
403

$$$$
ZINC000106384102
  rDOCK(R)          3D
libRbt.so/2013.1/901 2013/11/27
 26 27  0  0  0  0  0  0  0  0999 V2000
   88.7477   15.4973 -105.5947 H   0  0  0  0  0  0
   89.3193   14.6755 -105.4535 O   0  0  0  0  0  0
   90.7148   14.7074 -105.3838 C   0  0  0  0  0  0
   91.3877   15.8216 -105.3709 N   0  0  0  0  0  0
   90.8414   17.1777 -105.4392 C   0  0  0  0  0  0
   90.8178   17.8104 -104.0281 C   0  0  0  0  0  0
   89.9615   17.0495 -103.1711 O   0  0  0  0  0  0
   89.6282   17.3410 -101.8341 C   0  0  0  0  0  0
   90.1668   18.4449 -101.1394 C   0  0  0  0  0  0
   89.8139   18.6845  -99.8095 C   0  0  0  0  0  0
   88.9179   17.8377  -99.1581 C   0  0  0  0  0  0
   88.3676   16.7486  -99.8351 C   0  0  0  0  0  0
   88.7120   16.4966 -101.1736 C   0  0  0  0  0  0
   88.1260   15.3120 -101.8898 C   0  0  0  0  0  0
   90.2861   19.1214 -104.1048 O   0  0  0  0  0  0
   91.1426   19.9776 -104.8435 C   0  0  0  0  0  0
   90.5912   21.4087 -104.7276 C   0  0  0  0  0  0
   90.4879   21.8078 -103.3870 O   0  0  0  0  0  0
   90.1442   22.7391 -103.3925 H   0  0  0  0  0  0
   91.2102   19.5112 -106.3195 C   0  0  0  0  0  0
   92.0910   20.3214 -107.0579 O   0  0  0  0  0  0
   92.0673   20.0027 -107.9978 H   0  0  0  0  0  0
   91.6905   18.0500 -106.3845 C   0  0  0  0  0  0
   93.0461   17.9635 -106.0151 O   0  0  0  0  0  0
   93.1094   18.2526 -105.0675 H   0  0  0  0  0  0
   91.4618   13.4187 -105.3093 C   0  0  0  0  0  0
  1  2  1  0  0  0
  2  3  1  0  0  0
  3  4  2  0  0  0
  3 26  1  0  0  0
  4  5  1  0  0  0
  5  6  1  0  0  0
  6  7  1  0  0  0
  6 15  1  0  0  0
  7  8  1  0  0  0
  8  9  2  0  0  0
  9 10  1  0  0  0
 10 11  2  0  0  0
 11 12  1  0  0  0
 12 13  2  0  0  0
 13 14  1  0  0  0
 13  8  1  0  0  0
 15 16  1  0  0  0
 16 17  1  0  0  0
 16 20  1  0  0  0
 17 18  1  0  0  0
 18 19  1  0  0  0
 20 21  1  0  0  0
 20 23  1  0  0  0
 21 22  1  0  0  0
 23 24  1  0  0  0
 23  5  1  0  0  0
 24 25  1  0  0  0
M  END
>  <CHROM.0>
-179.43773095,154.34115270,52.33024481

>  <CHROM.1>
6.58798146,101.20260575,-176.66161236,-2.49709881,57.12059705,178.98254722
-177.75262863,-57.50180546,90.43684201,17.75344487,-103.82470803,-0.05065954
-1.13141891,-2.84430004

>  <Energy>
43.10089602702706

>  <Genealogy>
CC(O)=N[C@H]1[C@H](Oc2ccccc2C)O[C@H](CO)[C@@H](O)[C@H]1O (tautomer)
C/C(O)=N/[C@H]1[C@H](Oc2ccccc2C)O[C@H](CO)[C@@H](O)[C@H]1O (cis-trans isomerization)
C/C(O)=N/[C@H]1[C@H](Oc2ccccc2C)O[C@H](CO)[C@@H](O)[C@H]1O (3D coordinates assigned)
C/C(O)=N/[C@H]1[C@H](Oc2ccccc2C)O[C@H](CO)[C@@H](O)[C@H]1O (nonaromatic ring conformer: 43.10089602702706 kcal/mol)

>  <Name>
ZINC000106384102

>  <RI>
3.62712e+07

>  <Rbt.Current_Directory>
/home/edward/Documentos/Virtual_Screening/rDock/3

>  <Rbt.Executable>
rbdock ($Id: //depot/dev/client3/rdock/2013.1/src/exe/rbdock.cxx#4 $)

>  <Rbt.Library>
libRbt.so (2013.1, Build901 2013/11/27)

>  <Rbt.Parameter_File>
/home/edward/anaconda3/envs/MD/share/rdock-2013.1-1/data/scripts/dock.prm

>  <Rbt.Receptor>
parameters.prm

>  <SCORE>
-20.4629

>  <SCORE.INTER>
-17.6845

>  <SCORE.INTER.CONST>
1

>  <SCORE.INTER.POLAR>
-2.65564

>  <SCORE.INTER.REPUL>
0

>  <SCORE.INTER.ROT>
4

>  <SCORE.INTER.VDW>
-18.0553

>  <SCORE.INTER.norm>
-0.803839

>  <SCORE.INTRA>
-5.30524

>  <SCORE.INTRA.DIHEDRAL>
-12.336

>  <SCORE.INTRA.DIHEDRAL.0>
13.323

>  <SCORE.INTRA.POLAR>
0

>  <SCORE.INTRA.POLAR.0>
0

>  <SCORE.INTRA.REPUL>
0

>  <SCORE.INTRA.REPUL.0>
0

>  <SCORE.INTRA.VDW>
0.86276

>  <SCORE.INTRA.VDW.0>
-3.10966

>  <SCORE.INTRA.norm>
-0.241147

>  <SCORE.RESTR>
0.139269

>  <SCORE.RESTR.CAVITY>
0.139269

>  <SCORE.RESTR.norm>
0.00633042

>  <SCORE.SYSTEM>
2.3875

>  <SCORE.SYSTEM.CONST>
0

>  <SCORE.SYSTEM.DIHEDRAL>
3.08854

>  <SCORE.SYSTEM.VDW>
0.843235

>  <SCORE.SYSTEM.norm>
0.108523

>  <SCORE.heavy>
22

>  <SCORE.norm>
-0.930133

>  <SMILES>
C/C(O)=N/[C@H]1[C@H](Oc2ccccc2C)O[C@H](CO)[C@@H](O)[C@H]1O

>  <UniqueID>
407

$$$$
ZINC000164373873
  rDOCK(R)          3D
libRbt.so/2013.1/901 2013/11/27
 19 19  0  0  0  0  0  0  0  0999 V2000
   89.7193   19.9173 -105.8427 C   0  0  0  0  0  0
   90.5950   19.1573 -105.0385 O   0  0  0  0  0  0
   90.3826   17.7753 -105.2583 C   0  0  0  0  0  0
   89.1806   17.3877 -104.6099 O   0  0  0  0  0  0
   88.8768   16.0285 -104.8760 C   0  0  0  0  0  0
   87.4781   15.7279 -104.3215 C   0  0  0  0  0  0
   86.4927   16.2761 -105.1539 O   0  0  0  0  0  0
   89.9531   15.1061 -104.2504 C   0  0  0  0  0  0
   89.6777   13.7576 -104.5379 O   0  0  0  0  0  0
   91.3406   15.4740 -104.8072 C   0  0  0  0  0  0
   91.4360   15.1035 -106.1617 O   0  0  0  0  0  0
   91.5763   16.9934 -104.6598 C   0  0  0  0  0  0
   92.8439   17.3933 -105.2878 N   0  3  0  0  0  0
   86.7077   17.2415 -105.2358 H   0  0  0  0  0  0
   90.3869   13.2145 -104.1050 H   0  0  0  0  0  0
   91.3190   14.1186 -106.2030 H   0  0  0  0  0  0
   93.6219   16.7580 -104.9960 H   0  0  0  0  0  0
   92.7509   17.3600 -106.3288 H   0  0  0  0  0  0
   93.0813   18.3751 -105.0163 H   0  0  0  0  0  0
  1  2  1  0  0  0
  2  3  1  0  0  0
  3  4  1  0  0  0
  4  5  1  0  0  0
  5  6  1  0  0  0
  5  8  1  0  0  0
  6  7  1  0  0  0
  7 14  1  0  0  0
  8  9  1  0  0  0
  8 10  1  0  0  0
  9 15  1  0  0  0
 10 11  1  0  0  0
 10 12  1  0  0  0
 11 16  1  0  0  0
 12 13  1  0  0  0
 12  3  1  0  0  0
 13 17  1  0  0  0
 13 18  1  0  0  0
 13 19  1  0  0  0
M  END
>  <CHROM.0>
174.55196767,152.56523188,-64.29805504

>  <CHROM.1>
-75.05348405,75.46467512,-55.11862032,-179.21633001,-61.36886587,-170.72286291
89.96913036,16.62055750,-105.01115265,0.76121686,0.09086689,-0.11380959

>  <Energy>
27.797626291259096

>  <Genealogy>
CO[C@@H]1O[C@H](CO)[C@@H](O)[C@@H](O)[C@H]1[NH3+] (protonated)
CO[C@@H]1O[C@H](CO)[C@@H](O)[C@@H](O)[C@H]1[NH3+] (3D coordinates assigned)
CO[C@@H]1O[C@H](CO)[C@@H](O)[C@@H](O)[C@H]1[NH3+] (nonaromatic ring conformer: 27.797626291259096 kcal/mol)

>  <Name>
ZINC000164373873

>  <RI>
3.62712e+07

>  <Rbt.Current_Directory>
/home/edward/Documentos/Virtual_Screening/rDock/3

>  <Rbt.Executable>
rbdock ($Id: //depot/dev/client3/rdock/2013.1/src/exe/rbdock.cxx#4 $)

>  <Rbt.Library>
libRbt.so (2013.1, Build901 2013/11/27)

>  <Rbt.Parameter_File>
/home/edward/anaconda3/envs/MD/share/rdock-2013.1-1/data/scripts/dock.prm

>  <Rbt.Receptor>
parameters.prm

>  <SCORE>
-21.1506

>  <SCORE.INTER>
-20.7916

>  <SCORE.INTER.CONST>
1

>  <SCORE.INTER.POLAR>
-4.33469

>  <SCORE.INTER.REPUL>
0.0364096

>  <SCORE.INTER.ROT>
2

>  <SCORE.INTER.VDW>
-13.6357

>  <SCORE.INTER.norm>
-1.59935

>  <SCORE.INTRA>
-2.42372

>  <SCORE.INTRA.DIHEDRAL>
-5.80319

>  <SCORE.INTRA.DIHEDRAL.0>
8.03441

>  <SCORE.INTRA.POLAR>
0

>  <SCORE.INTRA.POLAR.0>
0

>  <SCORE.INTRA.REPUL>
0

>  <SCORE.INTRA.REPUL.0>
0

>  <SCORE.INTRA.VDW>
0.477879

>  <SCORE.INTRA.VDW.0>
-0.939633

>  <SCORE.INTRA.norm>
-0.18644

>  <SCORE.RESTR>
0.243871

>  <SCORE.RESTR.CAVITY>
0.243871

>  <SCORE.RESTR.norm>
0.0187593

>  <SCORE.SYSTEM>
1.82081

>  <SCORE.SYSTEM.CONST>
0

>  <SCORE.SYSTEM.DIHEDRAL>
3.60459

>  <SCORE.SYSTEM.VDW>
0.0185126

>  <SCORE.SYSTEM.norm>
0.140062

>  <SCORE.heavy>
13

>  <SCORE.norm>
-1.62697

>  <SMILES>
CO[C@@H]1O[C@H](CO)[C@@H](O)[C@@H](O)[C@H]1[NH3+]

>  <UniqueID>
410

$$$$
ZINC000196304985
  rDOCK(R)          3D
libRbt.so/2013.1/901 2013/11/27
 20 20  0  0  0  0  0  0  0  0999 V2000
   91.5505   17.7400 -105.7326 H   0  0  0  0  0  0
   91.4720   16.7305 -105.7593 O   0  0  0  0  0  0
   90.4942   16.0533 -105.0348 C   0  0  0  0  0  0
   89.6144   16.7556 -104.3799 N   0  0  0  0  0  0
   88.4984   16.2428 -103.5771 C   0  0  0  0  0  0
   87.8301   17.4102 -102.8214 C   0  0  0  0  0  0
   87.4607   18.4439 -103.7219 O   0  0  0  0  0  0
   87.1407   19.6180 -103.0080 C   0  0  0  0  0  0
   86.7169   16.9508 -102.0663 O   0  0  0  0  0  0
   85.7043   16.4047 -102.8988 C   0  0  0  0  0  0
   84.4951   16.0499 -102.0205 C   0  0  0  0  0  0
   83.3923   15.7161 -102.8203 O   0  0  0  0  0  0
   83.6954   15.0080 -103.4464 H   0  0  0  0  0  0
   86.2283   15.1528 -103.6383 C   0  0  0  0  0  0
   85.2256   14.6312 -104.4730 O   0  0  0  0  0  0
   85.6280   13.8634 -104.9571 H   0  0  0  0  0  0
   87.4746   15.5151 -104.4693 C   0  0  0  0  0  0
   87.1197   16.3335 -105.5578 O   0  0  0  0  0  0
   86.9396   17.2397 -105.1945 H   0  0  0  0  0  0
   90.5022   14.5484 -105.0120 C   0  0  0  0  0  0
  1  2  1  0  0  0
  2  3  1  0  0  0
  3  4  2  0  0  0
  3 20  1  0  0  0
  4  5  1  0  0  0
  5  6  1  0  0  0
  6  7  1  0  0  0
  6  9  1  0  0  0
  7  8  1  0  0  0
  9 10  1  0  0  0
 10 11  1  0  0  0
 10 14  1  0  0  0
 11 12  1  0  0  0
 12 13  1  0  0  0
 14 15  1  0  0  0
 14 17  1  0  0  0
 15 16  1  0  0  0
 17 18  1  0  0  0
 17  5  1  0  0  0
 18 19  1  0  0  0
M  END
>  <CHROM.0>
179.98031319,152.48712851,-65.68606144

>  <CHROM.1>
4.41232104,172.16091502,-166.51596793,170.21586492,53.24954185,177.04316764
-46.15890513,87.41578274,16.41951008,-103.85645861,-0.11827568,0.35523232
0.42383059

>  <Energy>
32.49023103626765

>  <Genealogy>
CO[C@H]1O[C@H](CO)[C@@H](O)[C@@H](O)[C@H]1N=C(C)O (tautomer)
CO[C@H]1O[C@H](CO)[C@@H](O)[C@@H](O)[C@H]1/N=C(\C)O (cis-trans isomerization)
CO[C@H]1O[C@H](CO)[C@@H](O)[C@@H](O)[C@H]1/N=C(\C)O (3D coordinates assigned)
CO[C@H]1O[C@H](CO)[C@@H](O)[C@@H](O)[C@H]1/N=C(\C)O (nonaromatic ring conformer: 32.49023103626765 kcal/mol)

>  <Name>
ZINC000196304985

>  <RI>
3.62712e+07

>  <Rbt.Current_Directory>
/home/edward/Documentos/Virtual_Screening/rDock/3

>  <Rbt.Executable>
rbdock ($Id: //depot/dev/client3/rdock/2013.1/src/exe/rbdock.cxx#4 $)

>  <Rbt.Library>
libRbt.so (2013.1, Build901 2013/11/27)

>  <Rbt.Parameter_File>
/home/edward/anaconda3/envs/MD/share/rdock-2013.1-1/data/scripts/dock.prm

>  <Rbt.Receptor>
parameters.prm

>  <SCORE>
-15.1774

>  <SCORE.INTER>
-10.8808

>  <SCORE.INTER.CONST>
1

>  <SCORE.INTER.POLAR>
-2.04551

>  <SCORE.INTER.REPUL>
0.0748341

>  <SCORE.INTER.ROT>
3

>  <SCORE.INTER.VDW>
-12.7002

>  <SCORE.INTER.norm>
-0.680049

>  <SCORE.INTRA>
-6.03985

>  <SCORE.INTRA.DIHEDRAL>
-3.20553

>  <SCORE.INTRA.DIHEDRAL.0>
8.1026

>  <SCORE.INTRA.POLAR>
-1.57724

>  <SCORE.INTRA.POLAR.0>
0

>  <SCORE.INTRA.REPUL>
-0.0739107

>  <SCORE.INTRA.REPUL.0>
0.0739107

>  <SCORE.INTRA.VDW>
1.29507

>  <SCORE.INTRA.VDW.0>
-1.38709

>  <SCORE.INTRA.norm>
-0.377491

>  <SCORE.RESTR>
0

>  <SCORE.RESTR.CAVITY>
0

>  <SCORE.RESTR.norm>
0

>  <SCORE.SYSTEM>
1.74324

>  <SCORE.SYSTEM.CONST>
0

>  <SCORE.SYSTEM.DIHEDRAL>
3.45

>  <SCORE.SYSTEM.VDW>
0.0182383

>  <SCORE.SYSTEM.norm>
0.108952

>  <SCORE.heavy>
16

>  <SCORE.norm>
-0.948587

>  <SMILES>
CO[C@H]1O[C@H](CO)[C@@H](O)[C@@H](O)[C@H]1/N=C(\C)O

>  <UniqueID>
412

$$$$
ZINC000252694384
  rDOCK(R)          3D
libRbt.so/2013.1/901 2013/11/27
 27 27  0  0  0  0  0  0  0  0999 V2000
   91.1849   18.8421  -99.9141 C   0  0  0  0  0  0
   90.3126   18.4947 -101.1170 C   0  0  0  0  0  0
   90.4281   19.5621 -102.2106 C   0  0  0  0  0  0
   89.5011   19.2408 -103.3922 C   0  0  0  0  0  0
   89.6145   20.2694 -104.5289 C   0  0  0  0  0  0
   89.1821   21.6760 -104.0909 C   0  0  0  0  0  0
   87.6960   21.7069 -103.7078 C   0  0  0  0  0  0
   87.2474   23.1236 -103.3482 C   0  0  0  0  0  0
   87.0435   23.8660 -104.5339 O   0  0  0  0  0  0
   86.8222   25.2395 -104.2608 C   0  0  0  0  0  0
   85.6011   25.3462 -103.5497 O   0  0  0  0  0  0
   85.3362   26.6917 -103.1839 C   0  0  0  0  0  0
   84.0919   26.6965 -102.2800 C   0  0  0  0  0  0
   83.0528   25.9377 -102.8385 O   0  0  0  0  0  0
   85.1175   27.5574 -104.4506 C   0  0  0  0  0  0
   84.8969   28.8975 -104.0912 O   0  0  0  0  0  0
   86.3457   27.4609 -105.3744 C   0  0  0  0  0  0
   87.4275   28.1461 -104.7901 O   0  0  0  0  0  0
   86.7042   25.9815 -105.6082 C   0  0  0  0  0  0
   87.9549   25.8691 -106.3671 N   0  0  0  0  0  0
   88.1465   24.9140 -107.4207 C   0  0  0  0  0  0
   89.4248   24.9005 -108.1936 C   0  0  0  0  0  0
   87.2275   24.1093 -107.7325 O   0  0  0  0  0  0
   82.2450   26.1132 -102.2888 H   0  0  0  0  0  0
   84.0375   28.9227 -103.5946 H   0  0  0  0  0  0
   87.6139   27.7083 -103.9188 H   0  0  0  0  0  0
   88.7126   26.5668 -106.1882 H   0  0  0  0  0  0
  1  2  1  0  0  0
  2  3  1  0  0  0
  3  4  1  0  0  0
  4  5  1  0  0  0
  5  6  1  0  0  0
  6  7  1  0  0  0
  7  8  1  0  0  0
  8  9  1  0  0  0
  9 10  1  0  0  0
 10 11  1  0  0  0
 11 12  1  0  0  0
 12 13  1  0  0  0
 12 15  1  0  0  0
 13 14  1  0  0  0
 14 24  1  0  0  0
 15 16  1  0  0  0
 15 17  1  0  0  0
 16 25  1  0  0  0
 17 18  1  0  0  0
 17 19  1  0  0  0
 18 26  1  0  0  0
 19 20  1  0  0  0
 19 10  1  0  0  0
 20 21  1  0  0  0
 20 27  1  0  0  0
 21 22  1  0  0  0
 21 23  2  0  0  0
M  END
>  <CHROM.0>
-178.20630910,152.59549974,52.29427160

>  <CHROM.1>
-177.46265268,-178.48806769,-62.97725952,-63.78621725,-176.76874496,78.25886720
-171.15841745,-65.32884591,-48.45568807,-170.45327459,-65.53516902,60.24649859
98.81950027,87.36463046,24.16185660,-104.20140091,0.75594351,-0.82433016
2.19723493

>  <Energy>
33.896784504193676

>  <Genealogy>
CCCCCCCCO[C@@H]1O[C@H](CO)[C@@H](O)[C@@H](O)[C@H]1NC(C)=O (3D coordinates assigned)
CCCCCCCCO[C@@H]1O[C@H](CO)[C@@H](O)[C@@H](O)[C@H]1NC(C)=O (nonaromatic ring conformer: 33.896784504193676 kcal/mol)

>  <Name>
ZINC000252694384

>  <RI>
3.62712e+07

>  <Rbt.Current_Directory>
/home/edward/Documentos/Virtual_Screening/rDock/3

>  <Rbt.Executable>
rbdock ($Id: //depot/dev/client3/rdock/2013.1/src/exe/rbdock.cxx#4 $)

>  <Rbt.Library>
libRbt.so (2013.1, Build901 2013/11/27)

>  <Rbt.Parameter_File>
/home/edward/anaconda3/envs/MD/share/rdock-2013.1-1/data/scripts/dock.prm

>  <Rbt.Receptor>
parameters.prm

>  <SCORE>
-15.3379

>  <SCORE.INTER>
-14.7931

>  <SCORE.INTER.CONST>
1

>  <SCORE.INTER.POLAR>
-3.2515

>  <SCORE.INTER.REPUL>
0.000462039

>  <SCORE.INTER.ROT>
10

>  <SCORE.INTER.VDW>
-19.1403

>  <SCORE.INTER.norm>
-0.643178

>  <SCORE.INTRA>
-2.94773

>  <SCORE.INTRA.DIHEDRAL>
-11.6931

>  <SCORE.INTRA.DIHEDRAL.0>
15.9867

>  <SCORE.INTRA.POLAR>
0

>  <SCORE.INTRA.POLAR.0>
0

>  <SCORE.INTRA.REPUL>
0

>  <SCORE.INTRA.REPUL.0>
0

>  <SCORE.INTRA.VDW>
2.89882

>  <SCORE.INTRA.VDW.0>
-3.86098

>  <SCORE.INTRA.norm>
-0.128162

>  <SCORE.RESTR>
0

>  <SCORE.RESTR.CAVITY>
0

>  <SCORE.RESTR.norm>
0

>  <SCORE.SYSTEM>
2.40297

>  <SCORE.SYSTEM.CONST>
0

>  <SCORE.SYSTEM.DIHEDRAL>
3.42526

>  <SCORE.SYSTEM.VDW>
0.690345

>  <SCORE.SYSTEM.norm>
0.104477

>  <SCORE.heavy>
23

>  <SCORE.norm>
-0.666863

>  <SMILES>
CCCCCCCCO[C@@H]1O[C@H](CO)[C@@H](O)[C@@H](O)[C@H]1NC(C)=O

>  <UniqueID>
415

$$$$
ZINC000257346145
  rDOCK(R)          3D
libRbt.so/2013.1/901 2013/11/27
 24 26  0  0  0  0  0  0  0  0999 V2000
   83.5657   20.7414 -103.6851 H   0  0  0  0  0  0
   84.0753   19.8711 -103.6199 O   0  0  0  0  0  0
   83.4922   18.6145 -103.7976 C   0  0  0  0  0  0
   84.1706   17.5039 -103.7663 N   0  0  0  0  0  0
   85.6076   17.3513 -103.5183 C   0  0  0  0  0  0
   86.2085   16.3934 -104.5723 C   0  0  0  0  0  0
   85.4819   15.1891 -104.6245 O   0  0  0  0  0  0
   85.9847   14.5712 -105.2168 H   0  0  0  0  0  0
   87.6702   16.0990 -104.2117 C   0  0  0  0  0  0
   88.2096   15.1273 -105.0865 O   0  0  0  0  0  0
   89.5651   14.8302 -104.7572 C   0  0  0  0  0  0
   90.5405   15.9362 -105.1393 C   0  0  0  0  0  0
   91.6704   15.6521 -105.9299 C   0  0  0  0  0  0
   92.5334   16.6776 -106.3276 C   0  0  0  0  0  0
   92.2648   17.9993 -105.9659 C   0  0  0  0  0  0
   91.1257   18.2996 -105.2160 C   0  0  0  0  0  0
   90.2597   17.2777 -104.8161 C   0  0  0  0  0  0
   89.7148   14.3788 -103.4123 O   0  0  0  0  0  0
   89.2077   15.3155 -102.4805 C   0  0  0  0  0  0
   87.7430   15.6061 -102.7660 C   0  0  0  0  0  0
   87.2568   16.5994 -101.8829 O   0  0  0  0  0  0
   85.8638   16.7989 -102.0911 C   0  0  0  0  0  0
   85.3902   17.7374 -101.1448 O   0  0  0  0  0  0
   85.3326   17.1505  -99.8628 C   0  0  0  0  0  0
  1  2  1  0  0  0
  2  3  1  0  0  0
  3  4  2  0  0  0
  4  5  1  0  0  0
  5  6  1  0  0  0
  6  7  1  0  0  0
  6  9  1  0  0  0
  7  8  1  0  0  0
  9 10  1  0  0  0
 10 11  1  0  0  0
 11 12  1  0  0  0
 11 18  1  0  0  0
 12 13  2  0  0  0
 13 14  1  0  0  0
 14 15  2  0  0  0
 15 16  1  0  0  0
 16 17  2  0  0  0
 17 12  1  0  0  0
 18 19  1  0  0  0
 19 20  1  0  0  0
 20 21  1  0  0  0
 20  9  1  0  0  0
 21 22  1  0  0  0
 22 23  1  0  0  0
 22  5  1  0  0  0
 23 24  1  0  0  0
M  END
>  <CHROM.0>
-79.41503569,155.07559669,-64.69934715

>  <CHROM.1>
177.02855750,-133.24317463,-172.11470668,-126.72303551,166.98880387,87.75907417
16.65549751,-103.79910166,3.03930385,-0.43844198,2.42959270

>  <Energy>
57.63582039431629

>  <Genealogy>
CO[C@@H]1O[C@@H]2CO[C@H](c3ccccc3)O[C@H]2[C@@H](O)[C@H]1N=CO (tautomer)
CO[C@@H]1O[C@@H]2CO[C@H](c3ccccc3)O[C@H]2[C@@H](O)[C@H]1/N=C\O (cis-trans isomerization)
CO[C@@H]1O[C@@H]2CO[C@H](c3ccccc3)O[C@H]2[C@@H](O)[C@H]1/N=C\O (3D coordinates assigned)
CO[C@@H]1O[C@@H]2CO[C@H](c3ccccc3)O[C@H]2[C@@H](O)[C@H]1/N=C\O (nonaromatic ring conformer: 57.63582039431629 kcal/mol)

>  <Name>
ZINC000257346145

>  <RI>
3.62712e+07

>  <Rbt.Current_Directory>
/home/edward/Documentos/Virtual_Screening/rDock/3

>  <Rbt.Executable>
rbdock ($Id: //depot/dev/client3/rdock/2013.1/src/exe/rbdock.cxx#4 $)

>  <Rbt.Library>
libRbt.so (2013.1, Build901 2013/11/27)

>  <Rbt.Parameter_File>
/home/edward/anaconda3/envs/MD/share/rdock-2013.1-1/data/scripts/dock.prm

>  <Rbt.Receptor>
parameters.prm

>  <SCORE>
-14.4015

>  <SCORE.INTER>
-16.0955

>  <SCORE.INTER.CONST>
1

>  <SCORE.INTER.POLAR>
-1.97256

>  <SCORE.INTER.REPUL>
0

>  <SCORE.INTER.ROT>
3

>  <SCORE.INTER.VDW>
-17.7888

>  <SCORE.INTER.norm>
-0.731614

>  <SCORE.INTRA>
-1.62721

>  <SCORE.INTRA.DIHEDRAL>
-4.15811

>  <SCORE.INTRA.DIHEDRAL.0>
6.27582

>  <SCORE.INTRA.POLAR>
-0.0907567

>  <SCORE.INTRA.POLAR.0>
0

>  <SCORE.INTRA.REPUL>
0

>  <SCORE.INTRA.REPUL.0>
0

>  <SCORE.INTRA.VDW>
0.760418

>  <SCORE.INTRA.VDW.0>
-1.72873

>  <SCORE.INTRA.norm>
-0.0739641

>  <SCORE.RESTR>
0

>  <SCORE.RESTR.CAVITY>
0

>  <SCORE.RESTR.norm>
0

>  <SCORE.SYSTEM>
3.32122

>  <SCORE.SYSTEM.CONST>
0

>  <SCORE.SYSTEM.DIHEDRAL>
4.6947

>  <SCORE.SYSTEM.VDW>
0.973869

>  <SCORE.SYSTEM.norm>
0.150965

>  <SCORE.heavy>
22

>  <SCORE.norm>
-0.654613

>  <SMILES>
CO[C@@H]1O[C@@H]2CO[C@H](c3ccccc3)O[C@H]2[C@@H](O)[C@H]1/N=C\O

>  <UniqueID>
420

$$$$
ZINC000257346492
  rDOCK(R)          3D
libRbt.so/2013.1/901 2013/11/27
 24 26  0  0  0  0  0  0  0  0999 V2000
   90.0869   19.0912 -101.6406 H   0  0  0  0  0  0
   89.5110   18.4220 -102.0952 O   0  0  0  0  0  0
   90.3138   17.7843 -103.0569 C   0  0  0  0  0  0
   90.8266   18.7896 -104.1229 C   0  0  0  0  0  0
   90.1824   20.0503 -104.0431 O   0  0  0  0  0  0
   90.4498   20.8640 -105.1906 C   0  0  0  0  0  0
   90.6338   22.3106 -104.7257 C   0  0  0  0  0  0
   90.8209   23.2425 -105.8950 C   0  0  0  0  0  0
   89.7814   23.4412 -106.8195 C   0  0  0  0  0  0
   89.9474   24.3312 -107.8851 C   0  0  0  0  0  0
   91.1468   25.0337 -108.0311 C   0  0  0  0  0  0
   92.1812   24.8498 -107.1094 C   0  0  0  0  0  0
   92.0194   23.9609 -106.0421 C   0  0  0  0  0  0
   91.6119   20.4539 -105.9110 O   0  0  0  0  0  0
   91.4277   19.1656 -106.4839 C   0  0  0  0  0  0
   90.6799   18.2164 -105.5346 C   0  0  0  0  0  0
   91.2035   16.9074 -105.5596 O   0  0  0  0  0  0
   90.3210   15.9926 -104.9118 C   0  0  0  0  0  0
   91.1044   14.8976 -104.4667 O   0  0  0  0  0  0
   91.5494   14.1197 -105.5578 C   0  0  0  0  0  0
   89.5479   16.5969 -103.6792 C   0  0  0  0  0  0
   88.2040   17.0263 -104.0667 N   0  0  0  0  0  0
   87.4950   16.3256 -104.7903 N   0  3  0  0  0  0
   86.7875   15.6259 -105.5131 N   0  5  0  0  0  0
  1  2  1  0  0  0
  2  3  1  0  0  0
  3  4  1  0  0  0
  4  5  1  0  0  0
  5  6  1  0  0  0
  6  7  1  0  0  0
  6 14  1  0  0  0
  7  8  1  0  0  0
  8  9  2  0  0  0
  9 10  1  0  0  0
 10 11  2  0  0  0
 11 12  1  0  0  0
 12 13  2  0  0  0
 13  8  1  0  0  0
 14 15  1  0  0  0
 15 16  1  0  0  0
 16 17  1  0  0  0
 16  4  1  0  0  0
 17 18  1  0  0  0
 18 19  1  0  0  0
 18 21  1  0  0  0
 19 20  1  0  0  0
 21 22  1  0  0  0
 21  3  1  0  0  0
 22 23  2  0  0  0
 23 24  2  0  0  0
M  END
>  <CHROM.0>
-179.35850889,154.10626030,-67.08081675

>  <CHROM.1>
-62.02356824,-175.90478221,65.02253947,-70.47910882,167.14163212,90.33815997
19.36518872,-105.22788480,1.76137552,-0.51566727,2.96026166

>  <Energy>
69.60195002445136

>  <Genealogy>
CO[C@@H]1O[C@@H]2CO[C@H](Cc3ccccc3)O[C@H]2[C@@H](O)[C@H]1N=[N+]=[N-] (cis-trans isomerization)
CO[C@@H]1O[C@@H]2CO[C@H](Cc3ccccc3)O[C@H]2[C@@H](O)[C@H]1N=[N+]=[N-] (3D coordinates assigned)
CO[C@@H]1O[C@@H]2CO[C@H](Cc3ccccc3)O[C@H]2[C@@H](O)[C@H]1N=[N+]=[N-] (nonaromatic ring conformer: 69.60195002445136 kcal/mol)

>  <Name>
ZINC000257346492

>  <RI>
3.62712e+07

>  <Rbt.Current_Directory>
/home/edward/Documentos/Virtual_Screening/rDock/3

>  <Rbt.Executable>
rbdock ($Id: //depot/dev/client3/rdock/2013.1/src/exe/rbdock.cxx#4 $)

>  <Rbt.Library>
libRbt.so (2013.1, Build901 2013/11/27)

>  <Rbt.Parameter_File>
/home/edward/anaconda3/envs/MD/share/rdock-2013.1-1/data/scripts/dock.prm

>  <Rbt.Receptor>
parameters.prm

>  <SCORE>
-14.715

>  <SCORE.INTER>
-14.5898

>  <SCORE.INTER.CONST>
1

>  <SCORE.INTER.POLAR>
-1.54549

>  <SCORE.INTER.REPUL>
0.181832

>  <SCORE.INTER.ROT>
4

>  <SCORE.INTER.VDW>
-19.6443

>  <SCORE.INTER.norm>
-0.634337

>  <SCORE.INTRA>
-1.85818

>  <SCORE.INTRA.DIHEDRAL>
-5.36345

>  <SCORE.INTRA.DIHEDRAL.0>
8.99739

>  <SCORE.INTRA.POLAR>
0

>  <SCORE.INTRA.POLAR.0>
0

>  <SCORE.INTRA.REPUL>
0

>  <SCORE.INTRA.REPUL.0>
0

>  <SCORE.INTRA.VDW>
0.823545

>  <SCORE.INTRA.VDW.0>
-1.60819

>  <SCORE.INTRA.norm>
-0.0807905

>  <SCORE.RESTR>
0

>  <SCORE.RESTR.CAVITY>
0

>  <SCORE.RESTR.norm>
0

>  <SCORE.SYSTEM>
1.73296

>  <SCORE.SYSTEM.CONST>
0

>  <SCORE.SYSTEM.DIHEDRAL>
3.1364

>  <SCORE.SYSTEM.VDW>
0.164759

>  <SCORE.SYSTEM.norm>
0.0753461

>  <SCORE.heavy>
23

>  <SCORE.norm>
-0.639781

>  <SMILES>
CO[C@@H]1O[C@@H]2CO[C@H](Cc3ccccc3)O[C@H]2[C@@H](O)[C@H]1N=[N+]=[N-]

>  <UniqueID>
423

$$$$
ZINC000257346903
  rDOCK(R)          3D
libRbt.so/2013.1/901 2013/11/27
 29 30  0  0  0  0  0  0  0  0999 V2000
   91.0171   19.2029 -100.0722 C   0  0  0  0  0  0
   90.4124   19.4242 -101.4545 C   0  0  0  0  0  0
   90.4808   20.7942 -101.8025 O   0  0  0  0  0  0
   89.9225   21.0249 -103.0829 C   0  0  0  0  0  0
   90.7199   20.3677 -104.0536 O   0  0  0  0  0  0
   90.1523   20.5036 -105.3464 C   0  0  0  0  0  0
   90.9657   19.6465 -106.3273 C   0  0  0  0  0  0
   92.3209   20.0052 -106.2813 O   0  0  0  0  0  0
   90.1605   21.9895 -105.7804 C   0  0  0  0  0  0
   89.5757   22.1205 -107.0508 O   0  0  0  0  0  0
   89.3907   22.8475 -104.7556 C   0  0  0  0  0  0
   88.0103   22.5272 -104.8221 O   0  0  0  0  0  0
   87.0536   23.8506 -104.3537 S   0  0  0  0  0  0
   85.7573   24.1461 -105.5382 C   0  0  0  0  0  0
   87.8938   25.0883 -104.2048 O   0  0  0  0  0  0
   86.4228   23.5354 -103.0273 O   0  0  0  0  0  0
   89.9275   22.5436 -103.3424 C   0  0  0  0  0  0
   89.1236   23.2294 -102.3267 N   0  0  0  0  0  0
   89.5584   24.4409 -101.6888 C   0  0  0  0  0  0
   90.5853   25.0374 -102.1144 O   0  0  0  0  0  0
   88.8014   25.0151 -100.5516 C   0  0  0  0  0  0
   89.2335   26.2107  -99.9482 C   0  0  0  0  0  0
   88.5267   26.7572  -98.8725 C   0  0  0  0  0  0
   87.3882   26.1137  -98.3829 C   0  0  0  0  0  0
   86.9557   24.9207  -98.9658 C   0  0  0  0  0  0
   87.6576   24.3702 -100.0427 C   0  0  0  0  0  0
   92.6507   19.7652 -105.3761 H   0  0  0  0  0  0
   89.6723   23.0728 -107.3134 H   0  0  0  0  0  0
   88.1432   22.9018 -102.1730 H   0  0  0  0  0  0
  1  2  1  0  0  0
  2  3  1  0  0  0
  3  4  1  0  0  0
  4  5  1  0  0  0
  5  6  1  0  0  0
  6  7  1  0  0  0
  6  9  1  0  0  0
  7  8  1  0  0  0
  8 27  1  0  0  0
  9 10  1  0  0  0
  9 11  1  0  0  0
 10 28  1  0  0  0
 11 12  1  0  0  0
 11 17  1  0  0  0
 12 13  1  0  0  0
 13 14  1  0  0  0
 13 15  2  0  0  0
 13 16  2  0  0  0
 17 18  1  0  0  0
 17  4  1  0  0  0
 18 19  1  0  0  0
 18 29  1  0  0  0
 19 20  2  0  0  0
 19 21  1  0  0  0
 21 22  2  0  0  0
 22 23  1  0  0  0
 23 24  2  0  0  0
 24 25  1  0  0  0
 25 26  2  0  0  0
 26 21  1  0  0  0
M  END
>  <CHROM.0>
-178.56506774,153.17795361,-67.06154440

>  <CHROM.1>
-179.90791936,-65.26687445,-55.60830080,65.50296336,-175.46687884,-152.18132843
131.18000602,136.34585311,-179.29267864,89.08046783,22.88204409,-103.03621237
-1.00581609,-0.87619064,1.27495200

>  <Energy>
46.717881511477685

>  <Genealogy>
CCO[C@@H]1O[C@H](CO)[C@@H](O)[C@@H](OS(C)(=O)=O)[C@H]1NC(=O)c1ccccc1 (3D coordinates assigned)
CCO[C@@H]1O[C@H](CO)[C@@H](O)[C@@H](OS(C)(=O)=O)[C@H]1NC(=O)c1ccccc1 (nonaromatic ring conformer: 46.717881511477685 kcal/mol)

>  <Name>
ZINC000257346903

>  <RI>
3.62712e+07

>  <Rbt.Current_Directory>
/home/edward/Documentos/Virtual_Screening/rDock/3

>  <Rbt.Executable>
rbdock ($Id: //depot/dev/client3/rdock/2013.1/src/exe/rbdock.cxx#4 $)

>  <Rbt.Library>
libRbt.so (2013.1, Build901 2013/11/27)

>  <Rbt.Parameter_File>
/home/edward/anaconda3/envs/MD/share/rdock-2013.1-1/data/scripts/dock.prm

>  <Rbt.Receptor>
parameters.prm

>  <SCORE>
-18.1057

>  <SCORE.INTER>
-12.1086

>  <SCORE.INTER.CONST>
1

>  <SCORE.INTER.POLAR>
-1.99798

>  <SCORE.INTER.REPUL>
0.00547661

>  <SCORE.INTER.ROT>
7

>  <SCORE.INTER.VDW>
-17.7428

>  <SCORE.INTER.norm>
-0.465714

>  <SCORE.INTRA>
-7.73754

>  <SCORE.INTRA.DIHEDRAL>
-15.2786

>  <SCORE.INTRA.DIHEDRAL.0>
21.0859

>  <SCORE.INTRA.POLAR>
-0.217316

>  <SCORE.INTRA.POLAR.0>
0

>  <SCORE.INTRA.REPUL>
0

>  <SCORE.INTRA.REPUL.0>
0

>  <SCORE.INTRA.VDW>
0.640655

>  <SCORE.INTRA.VDW.0>
-4.3554

>  <SCORE.INTRA.norm>
-0.297598

>  <SCORE.RESTR>
0

>  <SCORE.RESTR.CAVITY>
0

>  <SCORE.RESTR.norm>
0

>  <SCORE.SYSTEM>
1.7404

>  <SCORE.SYSTEM.CONST>
0

>  <SCORE.SYSTEM.DIHEDRAL>
3.31601

>  <SCORE.SYSTEM.VDW>
0.0823972

>  <SCORE.SYSTEM.norm>
0.0669385

>  <SCORE.heavy>
26

>  <SCORE.norm>
-0.696374

>  <SMILES>
CCO[C@@H]1O[C@H](CO)[C@@H](O)[C@@H](OS(C)(=O)=O)[C@H]1NC(=O)c1ccccc1

>  <UniqueID>
425

$$$$
ZINC000257347638
  rDOCK(R)          3D
libRbt.so/2013.1/901 2013/11/27
 33 36  0  0  0  0  0  0  0  0999 V2000
   91.2773   19.2010  -99.5828 C   0  0  0  0  0  0
   90.4649   19.1489 -100.7367 O   0  0  0  0  0  0
   90.3401   20.4401 -101.3021 C   0  0  0  0  0  0
   89.5372   21.2430 -100.4459 O   0  0  0  0  0  0
   89.4429   22.5593 -100.9599 C   0  0  0  0  0  0
   88.7009   23.4786  -99.9726 C   0  0  0  0  0  0
   87.5634   24.0744 -100.5699 O   0  0  0  0  0  0
   87.9375   24.7402 -101.7727 C   0  0  0  0  0  0
   86.7204   25.4422 -102.3304 C   0  0  0  0  0  0
   85.7409   26.0126 -101.4845 C   0  0  0  0  0  0
   84.6269   26.6535 -102.0357 C   0  0  0  0  0  0
   84.4904   26.7523 -103.4266 C   0  0  0  0  0  0
   85.4697   26.2162 -104.2708 C   0  0  0  0  0  0
   86.5813   25.5679 -103.7254 C   0  0  0  0  0  0
   88.5120   23.8772 -102.7586 O   0  0  0  0  0  0
   88.6657   22.5543 -102.2853 C   0  0  0  0  0  0
   89.3998   21.6841 -103.3164 C   0  0  0  0  0  0
   90.6333   22.2896 -103.6670 O   0  0  0  0  0  0
   90.8293   22.3097 -105.3522 S   0  0  0  0  0  0
   91.5803   23.8531 -105.8168 C   0  0  0  0  0  0
   89.4939   22.1917 -106.0365 O   0  0  0  0  0  0
   91.7253   21.1833 -105.7907 O   0  0  0  0  0  0
   89.6685   20.2957 -102.6915 C   0  0  0  0  0  0
   90.5005   19.4863 -103.5899 N   0  0  0  0  0  0
   90.4034   18.0531 -103.6337 C   0  0  0  0  0  0
   89.7385   17.4447 -102.7493 O   0  0  0  0  0  0
   91.0884   17.2736 -104.6913 C   0  0  0  0  0  0
   90.9746   15.8709 -104.7179 C   0  0  0  0  0  0
   91.6167   15.1264 -105.7124 C   0  0  0  0  0  0
   92.3722   15.7722 -106.6943 C   0  0  0  0  0  0
   92.4794   17.1648 -106.6885 C   0  0  0  0  0  0
   91.8391   17.9147 -105.6966 C   0  0  0  0  0  0
   91.2269   19.9636 -104.1721 H   0  0  0  0  0  0
  1  2  1  0  0  0
  2  3  1  0  0  0
  3  4  1  0  0  0
  4  5  1  0  0  0
  5  6  1  0  0  0
  6  7  1  0  0  0
  7  8  1  0  0  0
  8  9  1  0  0  0
  8 15  1  0  0  0
  9 10  2  0  0  0
 10 11  1  0  0  0
 11 12  2  0  0  0
 12 13  1  0  0  0
 13 14  2  0  0  0
 14  9  1  0  0  0
 15 16  1  0  0  0
 16 17  1  0  0  0
 16  5  1  0  0  0
 17 18  1  0  0  0
 17 23  1  0  0  0
 18 19  1  0  0  0
 19 20  1  0  0  0
 19 21  2  0  0  0
 19 22  2  0  0  0
 23 24  1  0  0  0
 23  3  1  0  0  0
 24 25  1  0  0  0
 24 33  1  0  0  0
 25 26  2  0  0  0
 25 27  1  0  0  0
 27 28  2  0  0  0
 28 29  1  0  0  0
 29 30  2  0  0  0
 30 31  1  0  0  0
 31 32  2  0  0  0
 32 27  1  0  0  0
M  END
>  <CHROM.0>
-177.74278414,149.35030882,-65.95404159

>  <CHROM.1>
-70.29965429,34.63778042,-132.58627730,141.09726903,87.21581163,-179.71818719
89.48618762,21.47508838,-103.31851447,0.09238378,-1.03907381,1.97820849

>  <Energy>
75.83789908238481

>  <Genealogy>
CO[C@@H]1O[C@@H]2CO[C@H](c3ccccc3)O[C@H]2[C@@H](OS(C)(=O)=O)[C@H]1NC(=O)c1ccccc1 (3D coordinates assigned)
CO[C@@H]1O[C@@H]2CO[C@H](c3ccccc3)O[C@H]2[C@@H](OS(C)(=O)=O)[C@H]1NC(=O)c1ccccc1 (nonaromatic ring conformer: 75.83789908238481 kcal/mol)

>  <Name>
ZINC000257347638

>  <RI>
3.62712e+07

>  <Rbt.Current_Directory>
/home/edward/Documentos/Virtual_Screening/rDock/3

>  <Rbt.Executable>
rbdock ($Id: //depot/dev/client3/rdock/2013.1/src/exe/rbdock.cxx#4 $)

>  <Rbt.Library>
libRbt.so (2013.1, Build901 2013/11/27)

>  <Rbt.Parameter_File>
/home/edward/anaconda3/envs/MD/share/rdock-2013.1-1/data/scripts/dock.prm

>  <Rbt.Receptor>
parameters.prm

>  <SCORE>
-17.433

>  <SCORE.INTER>
-18.1848

>  <SCORE.INTER.CONST>
1

>  <SCORE.INTER.POLAR>
-0.66148

>  <SCORE.INTER.REPUL>
0.00635784

>  <SCORE.INTER.ROT>
6

>  <SCORE.INTER.VDW>
-27.3675

>  <SCORE.INTER.norm>
-0.568274

>  <SCORE.INTRA>
-1.04954

>  <SCORE.INTRA.DIHEDRAL>
-2.71945

>  <SCORE.INTRA.DIHEDRAL.0>
12.3842

>  <SCORE.INTRA.POLAR>
-0.347717

>  <SCORE.INTRA.POLAR.0>
0

>  <SCORE.INTRA.REPUL>
0

>  <SCORE.INTRA.REPUL.0>
0

>  <SCORE.INTRA.VDW>
1.49242

>  <SCORE.INTRA.VDW.0>
-4.24357

>  <SCORE.INTRA.norm>
-0.0327982

>  <SCORE.RESTR>
0

>  <SCORE.RESTR.CAVITY>
0

>  <SCORE.RESTR.norm>
0

>  <SCORE.SYSTEM>
1.80127

>  <SCORE.SYSTEM.CONST>
0

>  <SCORE.SYSTEM.DIHEDRAL>
4.05974

>  <SCORE.SYSTEM.VDW>
-0.228599

>  <SCORE.SYSTEM.norm>
0.0562897

>  <SCORE.heavy>
32

>  <SCORE.norm>
-0.544783

>  <SMILES>
CO[C@@H]1O[C@@H]2CO[C@H](c3ccccc3)O[C@H]2[C@@H](OS(C)(=O)=O)[C@H]1NC(=O)c1ccccc1

>  <UniqueID>
429

$$$$
ZINC000257347639
  rDOCK(R)          3D
libRbt.so/2013.1/901 2013/11/27
 33 36  0  0  0  0  0  0  0  0999 V2000
   89.7430   14.4247 -105.6279 H   0  0  0  0  0  0
   88.7935   14.6067 -105.3196 O   0  0  0  0  0  0
   88.4569   15.8070 -104.6984 C   0  0  0  0  0  0
   89.3702   16.7264 -104.5568 N   0  0  0  0  0  0
   89.1763   18.0798 -104.0258 C   0  0  0  0  0  0
   89.5690   19.1251 -105.0927 C   0  0  0  0  0  0
   90.8935   18.8757 -105.5360 O   0  0  0  0  0  0
   91.1835   19.6359 -107.0246 S   0  0  0  0  0  0
   89.9076   20.1982 -107.5862 O   0  0  0  0  0  0
   92.1939   20.7334 -106.8608 O   0  0  0  0  0  0
   91.8217   18.4250 -108.1574 C   0  0  0  0  0  0
   89.5007   20.5150 -104.4491 C   0  0  0  0  0  0
   89.9611   21.5052 -105.3446 O   0  0  0  0  0  0
   89.8446   22.7851 -104.7367 C   0  0  0  0  0  0
   90.2770   23.8287 -105.7330 C   0  0  0  0  0  0
   91.6214   23.9019 -106.1365 C   0  0  0  0  0  0
   92.0318   24.8781 -107.0510 C   0  0  0  0  0  0
   91.1081   25.7962 -107.5582 C   0  0  0  0  0  0
   89.7714   25.7399 -107.1525 C   0  0  0  0  0  0
   89.3558   24.7627 -106.2430 C   0  0  0  0  0  0
   90.6837   22.8855 -103.5922 O   0  0  0  0  0  0
   90.2856   21.9462 -102.6103 C   0  0  0  0  0  0
   90.3608   20.5300 -103.1767 C   0  0  0  0  0  0
   89.8766   19.5849 -102.2379 O   0  0  0  0  0  0
   90.0272   18.2664 -102.7477 C   0  0  0  0  0  0
   89.5484   17.3613 -101.7643 O   0  0  0  0  0  0
   90.4191   17.3072 -100.6606 C   0  0  0  0  0  0
   87.0700   15.9837 -104.2296 C   0  0  0  0  0  0
   86.4978   17.2657 -104.1871 C   0  0  0  0  0  0
   85.1606   17.4272 -103.8061 C   0  0  0  0  0  0
   84.3924   16.3109 -103.4690 C   0  0  0  0  0  0
   84.9543   15.0314 -103.5168 C   0  0  0  0  0  0
   86.2855   14.8655 -103.9085 C   0  0  0  0  0  0
  1  2  1  0  0  0
  2  3  1  0  0  0
  3  4  2  0  0  0
  3 28  1  0  0  0
  4  5  1  0  0  0
  5  6  1  0  0  0
  6  7  1  0  0  0
  6 12  1  0  0  0
  7  8  1  0  0  0
  8  9  2  0  0  0
  8 10  2  0  0  0
  8 11  1  0  0  0
 12 13  1  0  0  0
 13 14  1  0  0  0
 14 15  1  0  0  0
 14 21  1  0  0  0
 15 16  2  0  0  0
 16 17  1  0  0  0
 17 18  2  0  0  0
 18 19  1  0  0  0
 19 20  2  0  0  0
 20 15  1  0  0  0
 21 22  1  0  0  0
 22 23  1  0  0  0
 23 24  1  0  0  0
 23 12  1  0  0  0
 24 25  1  0  0  0
 25 26  1  0  0  0
 25  5  1  0  0  0
 26 27  1  0  0  0
 28 29  2  0  0  0
 29 30  1  0  0  0
 30 31  2  0  0  0
 31 32  1  0  0  0
 32 33  2  0  0  0
 33 28  1  0  0  0
M  END
>  <CHROM.0>
-179.02630677,155.22360241,-66.41130691

>  <CHROM.1>
2.47485942,-150.18488254,-119.99431148,161.23602172,-8.59181268,-67.57581996
169.61575809,89.52763539,19.67235276,-104.87083300,-2.52052982,1.04376782
0.53726148

>  <Energy>
74.48748427597805

>  <Genealogy>
CO[C@@H]1O[C@@H]2CO[C@@H](c3ccccc3)O[C@H]2[C@@H](OS(C)(=O)=O)[C@H]1N=C(O)c1ccccc1 (tautomer)
CO[C@@H]1O[C@@H]2CO[C@@H](c3ccccc3)O[C@H]2[C@@H](OS(C)(=O)=O)[C@H]1/N=C(/O)c1ccccc1 (cis-trans isomerization)
CO[C@@H]1O[C@@H]2CO[C@@H](c3ccccc3)O[C@H]2[C@@H](OS(C)(=O)=O)[C@H]1/N=C(/O)c1ccccc1 (3D coordinates assigned)
CO[C@@H]1O[C@@H]2CO[C@@H](c3ccccc3)O[C@H]2[C@@H](OS(C)(=O)=O)[C@H]1/N=C(/O)c1ccccc1 (nonaromatic ring conformer: 74.48748427597805 kcal/mol)

>  <Name>
ZINC000257347639

>  <RI>
3.62712e+07

>  <Rbt.Current_Directory>
/home/edward/Documentos/Virtual_Screening/rDock/3

>  <Rbt.Executable>
rbdock ($Id: //depot/dev/client3/rdock/2013.1/src/exe/rbdock.cxx#4 $)

>  <Rbt.Library>
libRbt.so (2013.1, Build901 2013/11/27)

>  <Rbt.Parameter_File>
/home/edward/anaconda3/envs/MD/share/rdock-2013.1-1/data/scripts/dock.prm

>  <Rbt.Receptor>
parameters.prm

>  <SCORE>
-21.5966

>  <SCORE.INTER>
-16.34

>  <SCORE.INTER.CONST>
1

>  <SCORE.INTER.POLAR>
-1.61718

>  <SCORE.INTER.REPUL>
0.156713

>  <SCORE.INTER.ROT>
6

>  <SCORE.INTER.VDW>
-23.0251

>  <SCORE.INTER.norm>
-0.510624

>  <SCORE.INTRA>
-7.0353

>  <SCORE.INTRA.DIHEDRAL>
-20.6032

>  <SCORE.INTRA.DIHEDRAL.0>
27.3897

>  <SCORE.INTRA.POLAR>
0

>  <SCORE.INTRA.POLAR.0>
0

>  <SCORE.INTRA.REPUL>
0

>  <SCORE.INTRA.REPUL.0>
0

>  <SCORE.INTRA.VDW>
3.2663

>  <SCORE.INTRA.VDW.0>
-5.67117

>  <SCORE.INTRA.norm>
-0.219853

>  <SCORE.RESTR>
0.00125617

>  <SCORE.RESTR.CAVITY>
0.00125617

>  <SCORE.RESTR.norm>
3.92553e-05

>  <SCORE.SYSTEM>
1.7774

>  <SCORE.SYSTEM.CONST>
0

>  <SCORE.SYSTEM.DIHEDRAL>
2.94191

>  <SCORE.SYSTEM.VDW>
0.306438

>  <SCORE.SYSTEM.norm>
0.0555436

>  <SCORE.heavy>
32

>  <SCORE.norm>
-0.674894

>  <SMILES>
CO[C@@H]1O[C@@H]2CO[C@@H](c3ccccc3)O[C@H]2[C@@H](OS(C)(=O)=O)[C@H]1/N=C(/O)c1ccccc1

>  <UniqueID>
432

$$$$
ZINC000307008534
  rDOCK(R)          3D
libRbt.so/2013.1/901 2013/11/27
 19 19  0  0  0  0  0  0  0  0999 V2000
   92.1416   16.9623 -106.1798 C   0  0  0  0  0  0
   92.1267   18.3907 -105.8410 N   0  3  0  0  0  0
   90.7412   18.9326 -105.7488 C   0  0  0  0  0  0
   90.6390   20.0996 -104.7264 C   0  0  0  0  0  0
   91.1419   19.6877 -103.4663 O   0  0  0  0  0  0
   90.2800   18.7519 -102.8541 C   0  0  0  0  0  0
   91.4152   21.2093 -105.1541 O   0  0  0  0  0  0
   90.9641   21.7702 -106.3823 C   0  0  0  0  0  0
   89.6348   22.5437 -106.2227 C   0  0  0  0  0  0
   88.6342   21.7057 -105.7084 O   0  0  0  0  0  0
   90.9456   20.7381 -107.5366 C   0  0  0  0  0  0
   92.2696   20.4564 -107.9162 O   0  0  0  0  0  0
   90.2169   19.4459 -107.1103 C   0  0  0  0  0  0
   90.3347   18.4486 -108.0934 O   0  0  0  0  0  0
   92.6454   18.5241 -104.9419 H   0  0  0  0  0  0
   92.6759   18.8761 -106.5866 H   0  0  0  0  0  0
   87.8121   22.2567 -105.6294 H   0  0  0  0  0  0
   92.6757   21.3115 -108.2155 H   0  0  0  0  0  0
   89.7727   17.6854 -107.7974 H   0  0  0  0  0  0
  1  2  1  0  0  0
  2  3  1  0  0  0
  2 15  1  0  0  0
  2 16  1  0  0  0
  3  4  1  0  0  0
  4  5  1  0  0  0
  4  7  1  0  0  0
  5  6  1  0  0  0
  7  8  1  0  0  0
  8  9  1  0  0  0
  8 11  1  0  0  0
  9 10  1  0  0  0
 10 17  1  0  0  0
 11 12  1  0  0  0
 11 13  1  0  0  0
 12 18  1  0  0  0
 13 14  1  0  0  0
 13  3  1  0  0  0
 14 19  1  0  0  0
M  END
>  <CHROM.0>
-179.29513854,153.94862331,-66.03306119

>  <CHROM.1>
149.69265512,-70.23432733,-57.92299614,179.97540063,-60.20319337,61.49542147
90.83118107,19.92465936,-105.92555771,-0.44339252,1.12471632,-1.22414983

>  <Energy>
40.42622209823629

>  <Genealogy>
C[NH2+][C@H]1[C@@H](OC)O[C@H](CO)[C@@H](O)[C@H]1O (protonated)
C[NH2+][C@H]1[C@@H](OC)O[C@H](CO)[C@@H](O)[C@H]1O (3D coordinates assigned)
C[NH2+][C@H]1[C@@H](OC)O[C@H](CO)[C@@H](O)[C@H]1O (nonaromatic ring conformer: 40.42622209823629 kcal/mol)

>  <Name>
ZINC000307008534

>  <RI>
3.62712e+07

>  <Rbt.Current_Directory>
/home/edward/Documentos/Virtual_Screening/rDock/3

>  <Rbt.Executable>
rbdock ($Id: //depot/dev/client3/rdock/2013.1/src/exe/rbdock.cxx#4 $)

>  <Rbt.Library>
libRbt.so (2013.1, Build901 2013/11/27)

>  <Rbt.Parameter_File>
/home/edward/anaconda3/envs/MD/share/rdock-2013.1-1/data/scripts/dock.prm

>  <Rbt.Receptor>
parameters.prm

>  <SCORE>
-17.9882

>  <SCORE.INTER>
-13.4504

>  <SCORE.INTER.CONST>
1

>  <SCORE.INTER.POLAR>
-2.90992

>  <SCORE.INTER.REPUL>
0.00965187

>  <SCORE.INTER.ROT>
3

>  <SCORE.INTER.VDW>
-12.0049

>  <SCORE.INTER.norm>
-0.960742

>  <SCORE.INTRA>
-6.27216

>  <SCORE.INTRA.DIHEDRAL>
-9.77885

>  <SCORE.INTRA.DIHEDRAL.0>
12.4905

>  <SCORE.INTRA.POLAR>
-0.843453

>  <SCORE.INTRA.POLAR.0>
-0.0304638

>  <SCORE.INTRA.REPUL>
0

>  <SCORE.INTRA.REPUL.0>
0

>  <SCORE.INTRA.VDW>
1.485

>  <SCORE.INTRA.VDW.0>
-1.44569

>  <SCORE.INTRA.norm>
-0.448012

>  <SCORE.RESTR>
0

>  <SCORE.RESTR.CAVITY>
0

>  <SCORE.RESTR.norm>
0

>  <SCORE.SYSTEM>
1.7343

>  <SCORE.SYSTEM.CONST>
0

>  <SCORE.SYSTEM.DIHEDRAL>
3.17699

>  <SCORE.SYSTEM.VDW>
0.145807

>  <SCORE.SYSTEM.norm>
0.123879

>  <SCORE.heavy>
14

>  <SCORE.norm>
-1.28487

>  <SMILES>
C[NH2+][C@H]1[C@@H](OC)O[C@H](CO)[C@@H](O)[C@H]1O

>  <UniqueID>
435

$$$$
ZINC000307565252
  rDOCK(R)          3D
libRbt.so/2013.1/901 2013/11/27
 27 29  0  0  0  0  0  0  0  0999 V2000
   89.1931   17.2114 -100.0574 C   0  0  0  0  0  0
   89.7891   16.6092 -101.1857 O   0  0  0  0  0  0
   88.8757   16.5884 -102.2667 C   0  0  0  0  0  0
   87.8597   15.6365 -101.9867 O   0  0  0  0  0  0
   86.8543   15.6564 -102.9878 C   0  0  0  0  0  0
   85.7140   14.7254 -102.5513 C   0  0  0  0  0  0
   84.6202   14.8526 -103.4200 O   0  0  0  0  0  0
   87.4464   15.1984 -104.3478 C   0  0  0  0  0  0
   86.4752   15.1727 -105.3664 O   0  0  0  0  0  0
   88.6357   16.0969 -104.7459 C   0  0  0  0  0  0
   88.1694   17.3810 -105.0822 O   0  0  0  0  0  0
   89.6344   16.1706 -103.5533 C   0  0  0  0  0  0
   90.8498   17.0008 -103.8027 N   0  3  0  0  0  0
   90.5939   18.4083 -104.0168 C   0  0  0  0  0  0
   90.1621   19.1826 -103.1213 O   0  0  0  0  0  0
   90.9980   18.8473 -105.3441 C   0  0  0  0  0  0
   90.9128   20.0951 -105.9602 C   0  0  0  0  0  0
   91.4062   20.2171 -107.2718 C   0  0  0  0  0  0
   91.9716   19.1019 -107.9277 C   0  0  0  0  0  0
   92.0475   17.8576 -107.2760 C   0  0  0  0  0  0
   91.5464   17.7690 -105.9781 C   0  0  0  0  0  0
   91.4863   16.6493 -105.0516 C   0  0  0  0  0  0
   91.9631   15.5067 -105.2893 O   0  0  0  0  0  0
   84.9619   14.6896 -104.3377 H   0  0  0  0  0  0
   86.8344   14.6345 -106.1190 H   0  0  0  0  0  0
   87.6388   17.2915 -105.9165 H   0  0  0  0  0  0
   91.5507   16.8889 -103.0337 H   0  0  0  0  0  0
  1  2  1  0  0  0
  2  3  1  0  0  0
  3  4  1  0  0  0
  4  5  1  0  0  0
  5  6  1  0  0  0
  5  8  1  0  0  0
  6  7  1  0  0  0
  7 24  1  0  0  0
  8  9  1  0  0  0
  8 10  1  0  0  0
  9 25  1  0  0  0
 10 11  1  0  0  0
 10 12  1  0  0  0
 11 26  1  0  0  0
 12 13  1  0  0  0
 12  3  1  0  0  0
 13 14  1  0  0  0
 13 27  1  0  0  0
 14 15  2  0  0  0
 14 16  1  0  0  0
 16 17  2  0  0  0
 17 18  1  0  0  0
 18 19  2  0  0  0
 19 20  1  0  0  0
 20 21  2  0  0  0
 21 22  1  0  0  0
 21 16  1  0  0  0
 22 23  2  0  0  0
 22 13  1  0  0  0
M  END
>  <CHROM.0>
-175.81430539,154.34966146,51.35121895

>  <CHROM.1>
-71.35431520,172.00038542,54.61908655,-163.76683054,-67.26501156,-62.25333759
89.32747873,16.96356255,-104.20847810,-2.57171826,-0.56778503,-1.51755684

>  <Energy>
76.85282061248539

>  <Genealogy>
CO[C@@H]1O[C@H](CO)[C@@H](O)[C@@H](O)[C@H]1[NH+]1C(=O)c2ccccc2C1=O (protonated)
CO[C@@H]1O[C@H](CO)[C@@H](O)[C@@H](O)[C@H]1[NH+]1C(=O)c2ccccc2C1=O (3D coordinates assigned)
CO[C@@H]1O[C@H](CO)[C@@H](O)[C@@H](O)[C@H]1[NH+]1C(=O)c2ccccc2C1=O (nonaromatic ring conformer: 76.85282061248539 kcal/mol)

>  <Name>
ZINC000307565252

>  <RI>
3.62712e+07

>  <Rbt.Current_Directory>
/home/edward/Documentos/Virtual_Screening/rDock/3

>  <Rbt.Executable>
rbdock ($Id: //depot/dev/client3/rdock/2013.1/src/exe/rbdock.cxx#4 $)

>  <Rbt.Library>
libRbt.so (2013.1, Build901 2013/11/27)

>  <Rbt.Parameter_File>
/home/edward/anaconda3/envs/MD/share/rdock-2013.1-1/data/scripts/dock.prm

>  <Rbt.Receptor>
parameters.prm

>  <SCORE>
-18.9888

>  <SCORE.INTER>
-16.9338

>  <SCORE.INTER.CONST>
1

>  <SCORE.INTER.POLAR>
-3.07122

>  <SCORE.INTER.REPUL>
0.0205749

>  <SCORE.INTER.ROT>
3

>  <SCORE.INTER.VDW>
-14.9945

>  <SCORE.INTER.norm>
-0.736253

>  <SCORE.INTRA>
-4.48507

>  <SCORE.INTRA.DIHEDRAL>
-5.44247

>  <SCORE.INTRA.DIHEDRAL.0>
8.0391

>  <SCORE.INTRA.POLAR>
-0.747555

>  <SCORE.INTRA.POLAR.0>
0

>  <SCORE.INTRA.REPUL>
0

>  <SCORE.INTRA.REPUL.0>
0

>  <SCORE.INTRA.VDW>
0.777845

>  <SCORE.INTRA.VDW.0>
-2.48689

>  <SCORE.INTRA.norm>
-0.195003

>  <SCORE.RESTR>
0

>  <SCORE.RESTR.CAVITY>
0

>  <SCORE.RESTR.norm>
0

>  <SCORE.SYSTEM>
2.43008

>  <SCORE.SYSTEM.CONST>
0

>  <SCORE.SYSTEM.DIHEDRAL>
3.16753

>  <SCORE.SYSTEM.VDW>
0.846316

>  <SCORE.SYSTEM.norm>
0.105656

>  <SCORE.heavy>
23

>  <SCORE.norm>
-0.825601

>  <SMILES>
CO[C@@H]1O[C@H](CO)[C@@H](O)[C@@H](O)[C@H]1[NH+]1C(=O)c2ccccc2C1=O

>  <UniqueID>
437

$$$$
ZINC000383920275
  rDOCK(R)          3D
libRbt.so/2013.1/901 2013/11/27
 18 19  0  0  0  0  0  0  0  0999 V2000
   87.3014   13.3312 -100.4314 C   0  0  0  0  0  0
   86.4631   13.9455 -101.3860 O   0  0  0  0  0  0
   86.7725   15.3290 -101.4955 C   0  0  0  0  0  0
   88.0248   15.5238 -102.1320 O   0  0  0  0  0  0
   88.0075   15.0180 -103.4552 C   0  0  0  0  0  0
   89.4547   14.9306 -103.9589 C   0  0  0  0  0  0
   89.4883   14.4693 -105.2820 O   0  0  0  0  0  0
   87.1465   15.9333 -104.3404 C   0  0  0  0  0  0
   87.0697   15.4276 -105.6502 O   0  0  0  0  0  0
   85.7281   16.0767 -103.7675 C   0  0  0  0  0  0
   84.8531   15.0259 -104.1658 O   0  0  0  0  0  0
   84.0062   14.7492 -103.1152 C   0  0  0  0  0  0
   83.0521   13.9317 -103.1834 O   0  0  0  0  0  0
   84.3536   15.4495 -101.9389 N   0  0  0  0  0  0
   85.6300   16.1021 -102.2130 C   0  0  0  0  0  0
   89.0154   15.1530 -105.8239 H   0  0  0  0  0  0
   86.7890   14.4777 -105.5826 H   0  0  0  0  0  0
   83.9246   15.3094 -100.9970 H   0  0  0  0  0  0
  1  2  1  0  0  0
  2  3  1  0  0  0
  3  4  1  0  0  0
  4  5  1  0  0  0
  5  6  1  0  0  0
  5  8  1  0  0  0
  6  7  1  0  0  0
  7 16  1  0  0  0
  8  9  1  0  0  0
  8 10  1  0  0  0
  9 17  1  0  0  0
 10 11  1  0  0  0
 11 12  1  0  0  0
 12 13  2  0  0  0
 12 14  1  0  0  0
 14 15  1  0  0  0
 14 18  1  0  0  0
 15  3  1  0  0  0
 15 10  1  0  0  0
M  END
>  <CHROM.0>
-178.95106896,153.07249804,-65.84512102

>  <CHROM.1>
70.92472832,-178.33788339,63.12344421,51.60102742,86.51431437,14.97888900
-103.13279271,-2.73156225,0.03934219,-1.33929696

>  <Energy>
51.267067238586385

>  <Genealogy>
CO[C@H]1O[C@H](CO)[C@@H](O)[C@H]2OC(=O)N[C@@H]12 (3D coordinates assigned)
CO[C@H]1O[C@H](CO)[C@@H](O)[C@H]2OC(=O)N[C@@H]12 (nonaromatic ring conformer: 51.267067238586385 kcal/mol)

>  <Name>
ZINC000383920275

>  <RI>
3.62712e+07

>  <Rbt.Current_Directory>
/home/edward/Documentos/Virtual_Screening/rDock/3

>  <Rbt.Executable>
rbdock ($Id: //depot/dev/client3/rdock/2013.1/src/exe/rbdock.cxx#4 $)

>  <Rbt.Library>
libRbt.so (2013.1, Build901 2013/11/27)

>  <Rbt.Parameter_File>
/home/edward/anaconda3/envs/MD/share/rdock-2013.1-1/data/scripts/dock.prm

>  <Rbt.Receptor>
parameters.prm

>  <SCORE>
-15.56

>  <SCORE.INTER>
-15.4573

>  <SCORE.INTER.CONST>
1

>  <SCORE.INTER.POLAR>
-3.44811

>  <SCORE.INTER.REPUL>
0.00290891

>  <SCORE.INTER.ROT>
2

>  <SCORE.INTER.VDW>
-11.1483

>  <SCORE.INTER.norm>
-1.03049

>  <SCORE.INTRA>
-1.84303

>  <SCORE.INTRA.DIHEDRAL>
-3.87571

>  <SCORE.INTRA.DIHEDRAL.0>
4.94569

>  <SCORE.INTRA.POLAR>
-0.214694

>  <SCORE.INTRA.POLAR.0>
0

>  <SCORE.INTRA.REPUL>
0

>  <SCORE.INTRA.REPUL.0>
0

>  <SCORE.INTRA.VDW>
0.824789

>  <SCORE.INTRA.VDW.0>
-0.588992

>  <SCORE.INTRA.norm>
-0.122868

>  <SCORE.RESTR>
0

>  <SCORE.RESTR.CAVITY>
0

>  <SCORE.RESTR.norm>
0

>  <SCORE.SYSTEM>
1.74028

>  <SCORE.SYSTEM.CONST>
0

>  <SCORE.SYSTEM.DIHEDRAL>
3.34435

>  <SCORE.SYSTEM.VDW>
0.0681034

>  <SCORE.SYSTEM.norm>
0.116018

>  <SCORE.heavy>
15

>  <SCORE.norm>
-1.03734

>  <SMILES>
CO[C@H]1O[C@H](CO)[C@@H](O)[C@H]2OC(=O)N[C@@H]12

>  <UniqueID>
441

$$$$
ZINC000394934764
  rDOCK(R)          3D
libRbt.so/2013.1/901 2013/11/27
 18 18  0  0  0  0  0  0  0  0999 V2000
   81.7747    1.9577  -97.2383 H   0  0  0  0  0  0
   82.0334    2.8071  -97.6825 O   0  0  0  0  0  0
   83.0040    2.4794  -98.6406 C   0  0  0  0  0  0
   83.4570    3.7266  -99.4132 C   0  0  0  0  0  0
   84.0480    4.6343  -98.5005 O   0  0  0  0  0  0
   84.1837    5.9339  -99.0729 C   0  0  0  0  0  0
   82.9481    6.6290  -99.0181 O   0  0  0  0  0  0
   83.1665    8.0224  -99.0581 C   0  0  0  0  0  0
   84.7489    5.9061 -100.5323 C   0  0  0  0  0  0
   83.6938    6.1224 -101.5242 N   0  0  0  0  0  0
   83.6762    7.1337 -102.2269 N   0  3  0  0  0  0
   83.6584    8.1437 -102.9286 N   0  5  0  0  0  0
   85.4379    4.5486 -100.7853 C   0  0  0  0  0  0
   86.0465    4.4852 -102.0535 O   0  0  0  0  0  0
   85.3550    4.6622 -102.7418 H   0  0  0  0  0  0
   84.4667    3.3653 -100.5358 C   0  0  0  0  0  0
   83.7520    3.0438 -101.7036 O   0  0  0  0  0  0
   83.2820    3.8687 -101.9943 H   0  0  0  0  0  0
  1  2  1  0  0  0
  2  3  1  0  0  0
  3  4  1  0  0  0
  4  5  1  0  0  0
  5  6  1  0  0  0
  6  7  1  0  0  0
  6  9  1  0  0  0
  7  8  1  0  0  0
  9 10  1  0  0  0
  9 13  1  0  0  0
 10 11  2  0  0  0
 11 12  2  0  0  0
 13 14  1  0  0  0
 13 16  1  0  0  0
 14 15  1  0  0  0
 16 17  1  0  0  0
 16  4  1  0  0  0
 17 18  1  0  0  0
M  END
>  <CHROM.0>
179.57977118,154.22555741,-66.03186818

>  <CHROM.1>
178.82127257,61.98611196,156.28415081,113.82633886,-57.26310435,64.85180385
83.86042259,5.09574246,-100.22843770,1.96485467,-1.07090552,2.84110529

>  <Energy>
37.77723727086177

>  <Genealogy>
CO[C@H]1O[C@H](CO)[C@@H](O)[C@@H](O)[C@H]1N=[N+]=[N-] (cis-trans isomerization)
CO[C@H]1O[C@H](CO)[C@@H](O)[C@@H](O)[C@H]1N=[N+]=[N-] (3D coordinates assigned)
CO[C@H]1O[C@H](CO)[C@@H](O)[C@@H](O)[C@H]1N=[N+]=[N-] (nonaromatic ring conformer: 37.77723727086177 kcal/mol)

>  <Name>
ZINC000394934764

>  <RI>
3.62712e+07

>  <Rbt.Current_Directory>
/home/edward/Documentos/Virtual_Screening/rDock/3

>  <Rbt.Executable>
rbdock ($Id: //depot/dev/client3/rdock/2013.1/src/exe/rbdock.cxx#4 $)

>  <Rbt.Library>
libRbt.so (2013.1, Build901 2013/11/27)

>  <Rbt.Parameter_File>
/home/edward/anaconda3/envs/MD/share/rdock-2013.1-1/data/scripts/dock.prm

>  <Rbt.Receptor>
parameters.prm

>  <SCORE>
-16.0363

>  <SCORE.INTER>
-14.8433

>  <SCORE.INTER.CONST>
1

>  <SCORE.INTER.POLAR>
-3.86709

>  <SCORE.INTER.REPUL>
0.173016

>  <SCORE.INTER.ROT>
3

>  <SCORE.INTER.VDW>
-10.9602

>  <SCORE.INTER.norm>
-0.989551

>  <SCORE.INTRA>
-2.92602

>  <SCORE.INTRA.DIHEDRAL>
-4.09853

>  <SCORE.INTRA.DIHEDRAL.0>
6.96761

>  <SCORE.INTRA.POLAR>
-0.372988

>  <SCORE.INTRA.POLAR.0>
-0.0040744

>  <SCORE.INTRA.REPUL>
0.00323234

>  <SCORE.INTRA.REPUL.0>
0

>  <SCORE.INTRA.VDW>
0.375241

>  <SCORE.INTRA.VDW.0>
-1.02975

>  <SCORE.INTRA.norm>
-0.195068

>  <SCORE.RESTR>
0

>  <SCORE.RESTR.CAVITY>
0

>  <SCORE.RESTR.norm>
0

>  <SCORE.SYSTEM>
1.733

>  <SCORE.SYSTEM.CONST>
0

>  <SCORE.SYSTEM.DIHEDRAL>
3.12456

>  <SCORE.SYSTEM.VDW>
0.170721

>  <SCORE.SYSTEM.norm>
0.115533

>  <SCORE.heavy>
15

>  <SCORE.norm>
-1.06909

>  <SMILES>
CO[C@H]1O[C@H](CO)[C@@H](O)[C@@H](O)[C@H]1N=[N+]=[N-]

>  <UniqueID>
444

$$$$
ZINC000396869768
  rDOCK(R)          3D
libRbt.so/2013.1/901 2013/11/27
 19 19  0  0  0  0  0  0  0  0999 V2000
   88.3335   22.6254 -100.9540 C   0  0  0  0  0  0
   87.8320   22.6880 -102.2712 O   0  0  0  0  0  0
   87.7215   24.0342 -102.6965 C   0  0  0  0  0  0
   87.1850   24.0991 -104.1360 C   0  0  0  0  0  0
   85.8594   23.5948 -104.1419 O   0  0  0  0  0  0
   85.3658   23.4861 -105.4647 C   0  0  0  0  0  0
   84.0988   22.8841 -105.4033 O   0  0  0  0  0  0
   85.2422   24.8928 -106.1005 C   0  0  0  0  0  0
   84.7028   24.8202 -107.4659 N   0  3  0  0  0  0
   86.6161   25.6004 -106.0868 C   0  0  0  0  0  0
   87.4992   24.9435 -106.9877 O   0  0  0  0  0  0
   88.5245   25.8131 -107.4136 C   0  0  0  0  0  0
   87.2087   25.5542 -104.6624 C   0  0  0  0  0  0
   88.5496   26.0199 -104.6868 O   0  0  0  0  0  0
   88.5944   27.4193 -104.5160 C   0  0  0  0  0  0
   84.2324   21.9431 -105.1156 H   0  0  0  0  0  0
   84.3553   25.7608 -107.7620 H   0  0  0  0  0  0
   85.4569   24.5345 -108.1322 H   0  0  0  0  0  0
   83.9169   24.1321 -107.5203 H   0  0  0  0  0  0
  1  2  1  0  0  0
  2  3  1  0  0  0
  3  4  1  0  0  0
  4  5  1  0  0  0
  5  6  1  0  0  0
  6  7  1  0  0  0
  6  8  1  0  0  0
  7 16  1  0  0  0
  8  9  1  0  0  0
  8 10  1  0  0  0
  9 17  1  0  0  0
  9 18  1  0  0  0
  9 19  1  0  0  0
 10 11  1  0  0  0
 10 13  1  0  0  0
 11 12  1  0  0  0
 13 14  1  0  0  0
 13  4  1  0  0  0
 14 15  1  0  0  0
M  END
>  <CHROM.0>
-179.24274243,154.29881145,-66.82795089

>  <CHROM.1>
179.56322520,65.16747086,-68.30113119,162.68238727,156.37637989,-151.44154217
86.87473864,24.53863776,-104.88186916,1.16369311,0.59661927,2.17729900

>  <Energy>
38.454659270038555

>  <Genealogy>
COC[C@H]1O[C@@H](O)[C@H]([NH3+])[C@H](OC)[C@@H]1OC (protonated)
COC[C@H]1O[C@@H](O)[C@H]([NH3+])[C@H](OC)[C@@H]1OC (3D coordinates assigned)
COC[C@H]1O[C@@H](O)[C@H]([NH3+])[C@H](OC)[C@@H]1OC (nonaromatic ring conformer: 38.454659270038555 kcal/mol)

>  <Name>
ZINC000396869768

>  <RI>
3.62712e+07

>  <Rbt.Current_Directory>
/home/edward/Documentos/Virtual_Screening/rDock/3

>  <Rbt.Executable>
rbdock ($Id: //depot/dev/client3/rdock/2013.1/src/exe/rbdock.cxx#4 $)

>  <Rbt.Library>
libRbt.so (2013.1, Build901 2013/11/27)

>  <Rbt.Parameter_File>
/home/edward/anaconda3/envs/MD/share/rdock-2013.1-1/data/scripts/dock.prm

>  <Rbt.Receptor>
parameters.prm

>  <SCORE>
-14.22

>  <SCORE.INTER>
-11.659

>  <SCORE.INTER.CONST>
1

>  <SCORE.INTER.POLAR>
-3.46545

>  <SCORE.INTER.REPUL>
0

>  <SCORE.INTER.ROT>
4

>  <SCORE.INTER.VDW>
-9.27646

>  <SCORE.INTER.norm>
-0.777266

>  <SCORE.INTRA>
-4.29457

>  <SCORE.INTRA.DIHEDRAL>
-13.4908

>  <SCORE.INTRA.DIHEDRAL.0>
20.4292

>  <SCORE.INTRA.POLAR>
-0.0420941

>  <SCORE.INTRA.POLAR.0>
0

>  <SCORE.INTRA.REPUL>
0

>  <SCORE.INTRA.REPUL.0>
0

>  <SCORE.INTRA.VDW>
2.59393

>  <SCORE.INTRA.VDW.0>
-1.58398

>  <SCORE.INTRA.norm>
-0.286305

>  <SCORE.RESTR>
0

>  <SCORE.RESTR.CAVITY>
0

>  <SCORE.RESTR.norm>
0

>  <SCORE.SYSTEM>
1.73354

>  <SCORE.SYSTEM.CONST>
0

>  <SCORE.SYSTEM.DIHEDRAL>
3.10417

>  <SCORE.SYSTEM.VDW>
0.181456

>  <SCORE.SYSTEM.norm>
0.115569

>  <SCORE.heavy>
15

>  <SCORE.norm>
-0.948001

>  <SMILES>
COC[C@H]1O[C@@H](O)[C@H]([NH3+])[C@H](OC)[C@@H]1OC

>  <UniqueID>
446

$$$$
ZINC000575124622
  rDOCK(R)          3D
libRbt.so/2013.1/901 2013/11/27
 25 27  0  0  0  0  0  0  0  0999 V2000
   87.1549   26.8317 -101.6562 H   0  0  0  0  0  0
   86.3523   27.3536 -101.9874 O   0  0  0  0  0  0
   85.3657   26.7448 -102.7625 C   0  0  0  0  0  0
   85.5394   25.5468 -103.2349 N   0  0  0  0  0  0
   86.7527   24.7493 -103.0405 C   0  0  0  0  0  0
   86.9026   23.7026 -104.1669 C   0  0  0  0  0  0
   85.7070   22.9737 -104.3035 O   0  0  0  0  0  0
   85.8683   22.2797 -104.9948 H   0  0  0  0  0  0
   88.0705   22.7613 -103.8328 C   0  0  0  0  0  0
   88.1569   21.7206 -104.7899 O   0  0  0  0  0  0
   89.0114   20.6573 -104.3688 C   0  0  0  0  0  0
   89.8861   20.2597 -105.5274 C   0  0  0  0  0  0
   90.5765   21.2300 -106.2754 C   0  0  0  0  0  0
   91.3802   20.8477 -107.3542 C   0  0  0  0  0  0
   91.4995   19.4980 -107.6962 C   0  0  0  0  0  0
   90.8145   18.5275 -106.9606 C   0  0  0  0  0  0
   90.0093   18.9045 -105.8815 C   0  0  0  0  0  0
   89.8485   21.0050 -103.2731 O   0  0  0  0  0  0
   89.0642   21.2495 -102.1193 C   0  0  0  0  0  0
   87.8874   22.1978 -102.4129 C   0  0  0  0  0  0
   87.8535   23.2518 -101.4666 O   0  0  0  0  0  0
   86.6955   24.0530 -101.6624 C   0  0  0  0  0  0
   86.6531   25.0540 -100.6629 O   0  0  0  0  0  0
   86.3368   24.4796  -99.4133 C   0  0  0  0  0  0
   84.0795   27.4600 -103.0231 C   0  0  0  0  0  0
  1  2  1  0  0  0
  2  3  1  0  0  0
  3  4  2  0  0  0
  3 25  1  0  0  0
  4  5  1  0  0  0
  5  6  1  0  0  0
  6  7  1  0  0  0
  6  9  1  0  0  0
  7  8  1  0  0  0
  9 10  1  0  0  0
 10 11  1  0  0  0
 11 12  1  0  0  0
 11 18  1  0  0  0
 12 13  2  0  0  0
 13 14  1  0  0  0
 14 15  2  0  0  0
 15 16  1  0  0  0
 16 17  2  0  0  0
 17 12  1  0  0  0
 18 19  1  0  0  0
 19 20  1  0  0  0
 20 21  1  0  0  0
 20  9  1  0  0  0
 21 22  1  0  0  0
 22 23  1  0  0  0
 22  5  1  0  0  0
 23 24  1  0  0  0
M  END
>  <CHROM.0>
179.96740057,153.29973463,-59.31453111

>  <CHROM.1>
-9.61022777,-155.63155168,-176.52658233,48.48786857,168.50054487,87.94026184
22.88476298,-103.64982736,2.69936244,-0.93177164,1.66208346

>  <Energy>
58.056338294175724

>  <Genealogy>
CO[C@@H]1O[C@@H]2CO[C@H](c3ccccc3)O[C@H]2[C@@H](O)[C@H]1N=C(C)O (tautomer)
CO[C@@H]1O[C@@H]2CO[C@H](c3ccccc3)O[C@H]2[C@@H](O)[C@H]1/N=C(\C)O (cis-trans isomerization)
CO[C@@H]1O[C@@H]2CO[C@H](c3ccccc3)O[C@H]2[C@@H](O)[C@H]1/N=C(\C)O (3D coordinates assigned)
CO[C@@H]1O[C@@H]2CO[C@H](c3ccccc3)O[C@H]2[C@@H](O)[C@H]1/N=C(\C)O (nonaromatic ring conformer: 58.056338294175724 kcal/mol)

>  <Name>
ZINC000575124622

>  <RI>
3.62712e+07

>  <Rbt.Current_Directory>
/home/edward/Documentos/Virtual_Screening/rDock/3

>  <Rbt.Executable>
rbdock ($Id: //depot/dev/client3/rdock/2013.1/src/exe/rbdock.cxx#4 $)

>  <Rbt.Library>
libRbt.so (2013.1, Build901 2013/11/27)

>  <Rbt.Parameter_File>
/home/edward/anaconda3/envs/MD/share/rdock-2013.1-1/data/scripts/dock.prm

>  <Rbt.Receptor>
parameters.prm

>  <SCORE>
-15.6565

>  <SCORE.INTER>
-15.2897

>  <SCORE.INTER.CONST>
1

>  <SCORE.INTER.POLAR>
-2.22366

>  <SCORE.INTER.REPUL>
0

>  <SCORE.INTER.ROT>
3

>  <SCORE.INTER.VDW>
-16.1293

>  <SCORE.INTER.norm>
-0.66477

>  <SCORE.INTRA>
-2.19692

>  <SCORE.INTRA.DIHEDRAL>
-2.42365

>  <SCORE.INTRA.DIHEDRAL.0>
6.14603

>  <SCORE.INTRA.POLAR>
-0.314195

>  <SCORE.INTRA.POLAR.0>
0

>  <SCORE.INTRA.REPUL>
0

>  <SCORE.INTRA.REPUL.0>
0

>  <SCORE.INTRA.VDW>
0.0831673

>  <SCORE.INTRA.VDW.0>
-1.54133

>  <SCORE.INTRA.norm>
-0.0955183

>  <SCORE.RESTR>
0

>  <SCORE.RESTR.CAVITY>
0

>  <SCORE.RESTR.norm>
0

>  <SCORE.SYSTEM>
1.83015

>  <SCORE.SYSTEM.CONST>
0

>  <SCORE.SYSTEM.DIHEDRAL>
3.46989

>  <SCORE.SYSTEM.VDW>
0.0952104

>  <SCORE.SYSTEM.norm>
0.0795719

>  <SCORE.heavy>
23

>  <SCORE.norm>
-0.680717

>  <SMILES>
CO[C@@H]1O[C@@H]2CO[C@H](c3ccccc3)O[C@H]2[C@@H](O)[C@H]1/N=C(\C)O

>  <UniqueID>
448

$$$$
ZINC000575124647
  rDOCK(R)          3D
libRbt.so/2013.1/901 2013/11/27
 22 22  0  0  0  0  0  0  0  0999 V2000
   91.4050   17.4279 -106.6076 H   0  0  0  0  0  0
   91.5576   16.4413 -106.4370 O   0  0  0  0  0  0
   90.7929   15.7316 -105.5143 C   0  0  0  0  0  0
   89.8748   16.3736 -104.8502 N   0  0  0  0  0  0
   88.9558   15.8119 -103.8540 C   0  0  0  0  0  0
   87.6621   15.3053 -104.5298 C   0  0  0  0  0  0
   87.1072   16.3087 -105.3460 O   0  0  0  0  0  0
   87.8186   16.5988 -105.9746 H   0  0  0  0  0  0
   86.6423   14.8915 -103.4562 C   0  0  0  0  0  0
   85.4137   14.5997 -104.0744 O   0  0  0  0  0  0
   85.5831   13.8827 -104.7396 H   0  0  0  0  0  0
   86.4741   16.0334 -102.4228 C   0  0  0  0  0  0
   85.5021   15.6521 -101.2966 C   0  0  0  0  0  0
   84.1969   15.4963 -101.7889 O   0  0  0  0  0  0
   84.2504   14.8691 -102.5562 H   0  0  0  0  0  0
   87.7261   16.3584 -101.8423 O   0  0  0  0  0  0
   88.6116   16.8935 -102.8119 C   0  0  0  0  0  0
   89.8124   17.2744 -102.1595 O   0  0  0  0  0  0
   89.6083   18.3403 -101.2474 C   0  0  0  0  0  0
   90.9042   18.7662 -100.5407 C   0  0  0  0  0  0
   90.6686   19.9030  -99.5487 C   0  0  0  0  0  0
   91.0668   14.2677 -105.2985 C   0  0  0  0  0  0
  1  2  1  0  0  0
  2  3  1  0  0  0
  3  4  2  0  0  0
  3 22  1  0  0  0
  4  5  1  0  0  0
  5  6  1  0  0  0
  6  7  1  0  0  0
  6  9  1  0  0  0
  7  8  1  0  0  0
  9 10  1  0  0  0
  9 12  1  0  0  0
 10 11  1  0  0  0
 12 13  1  0  0  0
 12 16  1  0  0  0
 13 14  1  0  0  0
 14 15  1  0  0  0
 16 17  1  0  0  0
 17 18  1  0  0  0
 17  5  1  0  0  0
 18 19  1  0  0  0
 19 20  1  0  0  0
 20 21  1  0  0  0
M  END
>  <CHROM.0>
-178.15538994,150.79562530,52.05880969

>  <CHROM.1>
-0.94857791,-89.54341412,54.38925931,57.57880697,-66.18956590,52.08426127
175.67562735,-179.68225508,-179.30279983,88.43607403,16.35688260,-103.18658886
-0.22740778,-0.35091276,-2.11516147

>  <Energy>
34.98611397761327

>  <Genealogy>
CCCO[C@@H]1O[C@H](CO)[C@@H](O)[C@@H](O)[C@H]1N=C(C)O (tautomer)
CCCO[C@@H]1O[C@H](CO)[C@@H](O)[C@@H](O)[C@H]1/N=C(/C)O (cis-trans isomerization)
CCCO[C@@H]1O[C@H](CO)[C@@H](O)[C@@H](O)[C@H]1/N=C(/C)O (3D coordinates assigned)
CCCO[C@@H]1O[C@H](CO)[C@@H](O)[C@@H](O)[C@H]1/N=C(/C)O (nonaromatic ring conformer: 34.98611397761327 kcal/mol)

>  <Name>
ZINC000575124647

>  <RI>
3.62712e+07

>  <Rbt.Current_Directory>
/home/edward/Documentos/Virtual_Screening/rDock/3

>  <Rbt.Executable>
rbdock ($Id: //depot/dev/client3/rdock/2013.1/src/exe/rbdock.cxx#4 $)

>  <Rbt.Library>
libRbt.so (2013.1, Build901 2013/11/27)

>  <Rbt.Parameter_File>
/home/edward/anaconda3/envs/MD/share/rdock-2013.1-1/data/scripts/dock.prm

>  <Rbt.Receptor>
parameters.prm

>  <SCORE>
-17.2241

>  <SCORE.INTER>
-9.75492

>  <SCORE.INTER.CONST>
1

>  <SCORE.INTER.POLAR>
-1.81306

>  <SCORE.INTER.REPUL>
0.18545

>  <SCORE.INTER.ROT>
5

>  <SCORE.INTER.VDW>
-14.9178

>  <SCORE.INTER.norm>
-0.54194

>  <SCORE.INTRA>
-9.88194

>  <SCORE.INTRA.DIHEDRAL>
-15.9667

>  <SCORE.INTRA.DIHEDRAL.0>
17.9338

>  <SCORE.INTRA.POLAR>
-0.780369

>  <SCORE.INTRA.POLAR.0>
0

>  <SCORE.INTRA.REPUL>
0

>  <SCORE.INTRA.REPUL.0>
0

>  <SCORE.INTRA.VDW>
0.754686

>  <SCORE.INTRA.VDW.0>
-1.92042

>  <SCORE.INTRA.norm>
-0.548997

>  <SCORE.RESTR>
0

>  <SCORE.RESTR.CAVITY>
0

>  <SCORE.RESTR.norm>
0

>  <SCORE.SYSTEM>
2.41278

>  <SCORE.SYSTEM.CONST>
0

>  <SCORE.SYSTEM.DIHEDRAL>
3.76175

>  <SCORE.SYSTEM.VDW>
0.531902

>  <SCORE.SYSTEM.norm>
0.134043

>  <SCORE.heavy>
18

>  <SCORE.norm>
-0.956894

>  <SMILES>
CCCO[C@@H]1O[C@H](CO)[C@@H](O)[C@@H](O)[C@H]1/N=C(/C)O

>  <UniqueID>
453

$$$$
ZINC000616582453
  rDOCK(R)          3D
libRbt.so/2013.1/901 2013/11/27
 25 25  0  0  0  0  0  0  0  0999 V2000
   86.4877   21.6399 -102.4649 H   0  0  0  0  0  0
   86.7981   21.0061 -103.1914 O   0  0  0  0  0  0
   87.6705   19.9549 -102.9208 C   0  0  0  0  0  0
   87.9953   19.1553 -103.8958 N   0  0  0  0  0  0
   88.9038   18.0059 -103.8192 C   0  0  0  0  0  0
   90.2089   18.2899 -104.5903 C   0  0  0  0  0  0
   89.9231   18.7247 -105.8980 O   0  0  0  0  0  0
   89.4110   17.9983 -106.3405 H   0  0  0  0  0  0
   91.0690   17.0131 -104.6493 C   0  0  0  0  0  0
   92.1628   17.2184 -105.5065 O   0  0  0  0  0  0
   92.7053   17.9486 -105.1084 H   0  0  0  0  0  0
   90.2164   15.8176 -105.1450 C   0  0  0  0  0  0
   91.0156   14.5062 -105.1190 C   0  0  0  0  0  0
   92.0829   14.5531 -106.0297 O   0  0  0  0  0  0
   92.6430   15.3350 -105.7844 H   0  0  0  0  0  0
   89.0826   15.6485 -104.3101 O   0  0  0  0  0  0
   88.2116   16.7646 -104.4074 C   0  0  0  0  0  0
   87.0483   16.5169 -103.6443 O   0  0  0  0  0  0
   86.2865   15.4745 -104.2170 C   0  0  0  0  0  0
   85.1193   15.1267 -103.2866 C   0  0  0  0  0  0
   84.0468   16.2310 -103.1954 C   0  0  0  0  0  0
   84.4806   17.5167 -102.4671 C   0  0  0  0  0  0
   84.7467   17.3009 -100.9697 C   0  0  0  0  0  0
   85.1455   18.6077 -100.2905 C   0  0  0  0  0  0
   88.1790   19.7594 -101.5180 C   0  0  0  0  0  0
  1  2  1  0  0  0
  2  3  1  0  0  0
  3  4  2  0  0  0
  3 25  1  0  0  0
  4  5  1  0  0  0
  5  6  1  0  0  0
  6  7  1  0  0  0
  6  9  1  0  0  0
  7  8  1  0  0  0
  9 10  1  0  0  0
  9 12  1  0  0  0
 10 11  1  0  0  0
 12 13  1  0  0  0
 12 16  1  0  0  0
 13 14  1  0  0  0
 14 15  1  0  0  0
 16 17  1  0  0  0
 17 18  1  0  0  0
 17  5  1  0  0  0
 18 19  1  0  0  0
 19 20  1  0  0  0
 20 21  1  0  0  0
 21 22  1  0  0  0
 22 23  1  0  0  0
 23 24  1  0  0  0
M  END
>  <CHROM.0>
-174.85137707,154.55086948,-64.11878596

>  <CHROM.1>
177.95069753,-110.38025373,-59.79063792,62.45766771,-65.01420209,57.49230214
173.75261097,173.77838643,68.86392950,-69.43875164,-66.41840623,-178.86995603
88.16415806,17.30327185,-103.79346963,-2.76002921,-0.43509085,-2.87056434

>  <Energy>
36.42366584668868

>  <Genealogy>
CCCCCCO[C@@H]1O[C@H](CO)[C@@H](O)[C@@H](O)[C@H]1N=C(C)O (tautomer)
CCCCCCO[C@@H]1O[C@H](CO)[C@@H](O)[C@@H](O)[C@H]1/N=C(/C)O (cis-trans isomerization)
CCCCCCO[C@@H]1O[C@H](CO)[C@@H](O)[C@@H](O)[C@H]1/N=C(/C)O (3D coordinates assigned)
CCCCCCO[C@@H]1O[C@H](CO)[C@@H](O)[C@@H](O)[C@H]1/N=C(/C)O (nonaromatic ring conformer: 36.42366584668868 kcal/mol)

>  <Name>
ZINC000616582453

>  <RI>
3.62712e+07

>  <Rbt.Current_Directory>
/home/edward/Documentos/Virtual_Screening/rDock/3

>  <Rbt.Executable>
rbdock ($Id: //depot/dev/client3/rdock/2013.1/src/exe/rbdock.cxx#4 $)

>  <Rbt.Library>
libRbt.so (2013.1, Build901 2013/11/27)

>  <Rbt.Parameter_File>
/home/edward/anaconda3/envs/MD/share/rdock-2013.1-1/data/scripts/dock.prm

>  <Rbt.Receptor>
parameters.prm

>  <SCORE>
-15.9142

>  <SCORE.INTER>
-10.2733

>  <SCORE.INTER.CONST>
1

>  <SCORE.INTER.POLAR>
-1.75191

>  <SCORE.INTER.REPUL>
0.00781124

>  <SCORE.INTER.ROT>
8

>  <SCORE.INTER.VDW>
-17.7559

>  <SCORE.INTER.norm>
-0.489207

>  <SCORE.INTRA>
-7.47131

>  <SCORE.INTRA.DIHEDRAL>
-11.7935

>  <SCORE.INTRA.DIHEDRAL.0>
13.3418

>  <SCORE.INTRA.POLAR>
-0.614758

>  <SCORE.INTRA.POLAR.0>
0

>  <SCORE.INTRA.REPUL>
0

>  <SCORE.INTRA.REPUL.0>
0

>  <SCORE.INTRA.VDW>
0.515615

>  <SCORE.INTRA.VDW.0>
-2.24803

>  <SCORE.INTRA.norm>
-0.355777

>  <SCORE.RESTR>
0

>  <SCORE.RESTR.CAVITY>
0

>  <SCORE.RESTR.norm>
0

>  <SCORE.SYSTEM>
1.83047

>  <SCORE.SYSTEM.CONST>
0

>  <SCORE.SYSTEM.DIHEDRAL>
3.22613

>  <SCORE.SYSTEM.VDW>
0.217405

>  <SCORE.SYSTEM.norm>
0.0871653

>  <SCORE.heavy>
21

>  <SCORE.norm>
-0.757818

>  <SMILES>
CCCCCCO[C@@H]1O[C@H](CO)[C@@H](O)[C@@H](O)[C@H]1/N=C(/C)O

>  <UniqueID>
456

$$$$
ZINC000616582683
  rDOCK(R)          3D
libRbt.so/2013.1/901 2013/11/27
 22 22  0  0  0  0  0  0  0  0999 V2000
   89.5945   21.2227 -103.2580 C   0  0  0  0  0  0
   89.0021   20.1231 -102.7839 C   0  0  0  0  0  0
   87.6337   19.7160 -103.2402 C   0  0  0  0  0  0
   87.7065   18.4392 -103.8394 O   0  0  0  0  0  0
   87.9158   17.4419 -102.8518 C   0  0  0  0  0  0
   86.7213   17.1541 -102.1369 O   0  0  0  0  0  0
   85.6982   16.6541 -102.9856 C   0  0  0  0  0  0
   84.4257   16.5005 -102.1393 C   0  0  0  0  0  0
   83.3321   16.1415 -102.9434 O   0  0  0  0  0  0
   86.1270   15.3051 -103.6135 C   0  0  0  0  0  0
   85.1221   14.8243 -104.4692 O   0  0  0  0  0  0
   87.4401   15.4876 -104.3987 C   0  0  0  0  0  0
   87.2140   16.2681 -105.5481 O   0  0  0  0  0  0
   88.4918   16.1611 -103.4951 C   0  0  0  0  0  0
   89.7205   16.4607 -104.2426 N   0  0  0  0  0  0
   90.2786   15.5506 -105.2009 C   0  0  0  0  0  0
   91.5665   15.8830 -105.8809 C   0  0  0  0  0  0
   89.6726   14.4868 -105.5023 O   0  0  0  0  0  0
   83.6045   15.3474 -103.4728 H   0  0  0  0  0  0
   85.4789   14.0016 -104.8954 H   0  0  0  0  0  0
   87.0785   17.2027 -105.2427 H   0  0  0  0  0  0
   90.1967   17.3822 -104.1133 H   0  0  0  0  0  0
  1  2  2  0  0  0
  2  3  1  0  0  0
  3  4  1  0  0  0
  4  5  1  0  0  0
  5  6  1  0  0  0
  6  7  1  0  0  0
  7  8  1  0  0  0
  7 10  1  0  0  0
  8  9  1  0  0  0
  9 19  1  0  0  0
 10 11  1  0  0  0
 10 12  1  0  0  0
 11 20  1  0  0  0
 12 13  1  0  0  0
 12 14  1  0  0  0
 13 21  1  0  0  0
 14 15  1  0  0  0
 14  5  1  0  0  0
 15 16  1  0  0  0
 15 22  1  0  0  0
 16 17  1  0  0  0
 16 18  2  0  0  0
M  END
>  <CHROM.0>
78.45398673,153.11490256,53.79684245

>  <CHROM.1>
119.73695316,72.28713910,76.62034255,173.85658201,52.25393553,175.60286865
72.98281777,-164.09903359,87.58474841,16.84201273,-103.83656992,0.09692155
0.33631624,0.41170451

>  <Energy>
31.354350282375975

>  <Genealogy>
C=CCO[C@H]1O[C@H](CO)[C@@H](O)[C@@H](O)[C@H]1NC(C)=O (3D coordinates assigned)
C=CCO[C@H]1O[C@H](CO)[C@@H](O)[C@@H](O)[C@H]1NC(C)=O (nonaromatic ring conformer: 31.354350282375975 kcal/mol)

>  <Name>
ZINC000616582683

>  <RI>
3.62712e+07

>  <Rbt.Current_Directory>
/home/edward/Documentos/Virtual_Screening/rDock/3

>  <Rbt.Executable>
rbdock ($Id: //depot/dev/client3/rdock/2013.1/src/exe/rbdock.cxx#4 $)

>  <Rbt.Library>
libRbt.so (2013.1, Build901 2013/11/27)

>  <Rbt.Parameter_File>
/home/edward/anaconda3/envs/MD/share/rdock-2013.1-1/data/scripts/dock.prm

>  <Rbt.Receptor>
parameters.prm

>  <SCORE>
-17.7577

>  <SCORE.INTER>
-12.7723

>  <SCORE.INTER.CONST>
1

>  <SCORE.INTER.POLAR>
-2.7027

>  <SCORE.INTER.REPUL>
0.00593099

>  <SCORE.INTER.ROT>
5

>  <SCORE.INTER.VDW>
-14.0128

>  <SCORE.INTER.norm>
-0.709574

>  <SCORE.INTRA>
-8.78568

>  <SCORE.INTRA.DIHEDRAL>
-11.1568

>  <SCORE.INTRA.DIHEDRAL.0>
15.7769

>  <SCORE.INTRA.POLAR>
-1.52543

>  <SCORE.INTRA.POLAR.0>
0

>  <SCORE.INTRA.REPUL>
-0.0824085

>  <SCORE.INTRA.REPUL.0>
0.0824085

>  <SCORE.INTRA.VDW>
2.39123

>  <SCORE.INTRA.VDW.0>
-2.26448

>  <SCORE.INTRA.norm>
-0.488094

>  <SCORE.RESTR>
0

>  <SCORE.RESTR.CAVITY>
0

>  <SCORE.RESTR.norm>
0

>  <SCORE.SYSTEM>
3.80031

>  <SCORE.SYSTEM.CONST>
0

>  <SCORE.SYSTEM.DIHEDRAL>
4.88024

>  <SCORE.SYSTEM.VDW>
1.36019

>  <SCORE.SYSTEM.norm>
0.211128

>  <SCORE.heavy>
18

>  <SCORE.norm>
-0.98654

>  <SMILES>
C=CCO[C@H]1O[C@H](CO)[C@@H](O)[C@@H](O)[C@H]1NC(C)=O

>  <UniqueID>
458

$$$$
ZINC000616582813
  rDOCK(R)          3D
libRbt.so/2013.1/901 2013/11/27
 21 21  0  0  0  0  0  0  0  0999 V2000
   89.3665   16.4150 -101.1905 C   0  0  0  0  0  0
   90.1793   17.3964 -102.0197 C   0  0  0  0  0  0
   90.1806   16.9744 -103.3674 O   0  0  0  0  0  0
   91.0005   17.8105 -104.1683 C   0  0  0  0  0  0
   90.3892   19.0884 -104.2229 O   0  0  0  0  0  0
   91.1833   20.0077 -104.9575 C   0  0  0  0  0  0
   90.5414   21.3957 -104.8243 C   0  0  0  0  0  0
   91.3198   22.3600 -105.4781 O   0  0  0  0  0  0
   91.2771   19.5635 -106.4407 C   0  0  0  0  0  0
   92.0939   20.4425 -107.1739 O   0  0  0  0  0  0
   91.8610   18.1411 -106.5228 C   0  0  0  0  0  0
   93.2209   18.1532 -106.1596 O   0  0  0  0  0  0
   91.0724   17.2065 -105.5864 C   0  0  0  0  0  0
   91.6890   15.8753 -105.5447 N   0  0  0  0  0  0
   90.9194   14.6642 -105.5661 C   0  0  0  0  0  0
   91.5909   13.3519 -105.3257 C   0  0  0  0  0  0
   89.6719   14.6993 -105.7445 O   0  0  0  0  0  0
   90.8510   23.2253 -105.3506 H   0  0  0  0  0  0
   92.0657   20.1493 -108.1220 H   0  0  0  0  0  0
   93.2696   18.4860 -105.2255 H   0  0  0  0  0  0
   92.7056   15.8006 -105.3134 H   0  0  0  0  0  0
  1  2  1  0  0  0
  2  3  1  0  0  0
  3  4  1  0  0  0
  4  5  1  0  0  0
  5  6  1  0  0  0
  6  7  1  0  0  0
  6  9  1  0  0  0
  7  8  1  0  0  0
  8 18  1  0  0  0
  9 10  1  0  0  0
  9 11  1  0  0  0
 10 19  1  0  0  0
 11 12  1  0  0  0
 11 13  1  0  0  0
 12 20  1  0  0  0
 13 14  1  0  0  0
 13  4  1  0  0  0
 14 15  1  0  0  0
 14 21  1  0  0  0
 15 16  1  0  0  0
 15 17  2  0  0  0
M  END
>  <CHROM.0>
-179.98927553,154.09885076,50.94518797

>  <CHROM.1>
-176.13378643,-67.24449488,177.15656307,-179.86201749,-176.05451259,60.47718015
99.55383094,91.04879917,17.90511056,-104.96390989,1.87036231,-1.09943937
-3.09726440

>  <Energy>
30.314055542279814

>  <Genealogy>
CCO[C@@H]1O[C@H](CO)[C@@H](O)[C@@H](O)[C@H]1NC(C)=O (3D coordinates assigned)
CCO[C@@H]1O[C@H](CO)[C@@H](O)[C@@H](O)[C@H]1NC(C)=O (nonaromatic ring conformer: 30.314055542279814 kcal/mol)

>  <Name>
ZINC000616582813

>  <RI>
3.62712e+07

>  <Rbt.Current_Directory>
/home/edward/Documentos/Virtual_Screening/rDock/3

>  <Rbt.Executable>
rbdock ($Id: //depot/dev/client3/rdock/2013.1/src/exe/rbdock.cxx#4 $)

>  <Rbt.Library>
libRbt.so (2013.1, Build901 2013/11/27)

>  <Rbt.Parameter_File>
/home/edward/anaconda3/envs/MD/share/rdock-2013.1-1/data/scripts/dock.prm

>  <Rbt.Receptor>
parameters.prm

>  <SCORE>
-19.5083

>  <SCORE.INTER>
-16.4785

>  <SCORE.INTER.CONST>
1

>  <SCORE.INTER.POLAR>
-2.86246

>  <SCORE.INTER.REPUL>
0

>  <SCORE.INTER.ROT>
4

>  <SCORE.INTER.VDW>
-16.1461

>  <SCORE.INTER.norm>
-0.969323

>  <SCORE.INTRA>
-5.68563

>  <SCORE.INTRA.DIHEDRAL>
-14.7708

>  <SCORE.INTRA.DIHEDRAL.0>
16.1737

>  <SCORE.INTRA.POLAR>
0

>  <SCORE.INTRA.POLAR.0>
0

>  <SCORE.INTRA.REPUL>
0.000176589

>  <SCORE.INTRA.REPUL.0>
0

>  <SCORE.INTRA.VDW>
1.69887

>  <SCORE.INTRA.VDW.0>
-2.9346

>  <SCORE.INTRA.norm>
-0.334449

>  <SCORE.RESTR>
0.270482

>  <SCORE.RESTR.CAVITY>
0.270482

>  <SCORE.RESTR.norm>
0.0159107

>  <SCORE.SYSTEM>
2.38536

>  <SCORE.SYSTEM.CONST>
0

>  <SCORE.SYSTEM.DIHEDRAL>
3.12692

>  <SCORE.SYSTEM.VDW>
0.821896

>  <SCORE.SYSTEM.norm>
0.140315

>  <SCORE.heavy>
17

>  <SCORE.norm>
-1.14755

>  <SMILES>
CCO[C@@H]1O[C@H](CO)[C@@H](O)[C@@H](O)[C@H]1NC(C)=O

>  <UniqueID>
461

$$$$
ZINC000616582904
  rDOCK(R)          3D
libRbt.so/2013.1/901 2013/11/27
 22 22  0  0  0  0  0  0  0  0999 V2000
   83.9737   14.5967 -103.2046 C   0  0  0  0  0  0
   84.9252   15.1433 -103.7037 C   0  0  0  0  0  0
   86.0802   15.8066 -104.3094 C   0  0  0  0  0  0
   87.2580   15.1741 -103.8563 O   0  0  0  0  0  0
   88.3961   15.7951 -104.4241 C   0  0  0  0  0  0
   89.4712   14.8686 -104.4340 O   0  0  0  0  0  0
   90.6044   15.4154 -105.0881 C   0  0  0  0  0  0
   91.6555   14.3004 -105.2189 C   0  0  0  0  0  0
   91.1203   13.1677 -105.8498 O   0  0  0  0  0  0
   91.8719   12.5322 -105.9803 H   0  0  0  0  0  0
   91.1489   16.6207 -104.2801 C   0  0  0  0  0  0
   92.2468   17.2048 -104.9366 O   0  0  0  0  0  0
   92.7146   17.7789 -104.2755 H   0  0  0  0  0  0
   90.0421   17.6774 -104.1039 C   0  0  0  0  0  0
   89.7590   18.2999 -105.3344 O   0  0  0  0  0  0
   89.4450   17.5911 -105.9545 H   0  0  0  0  0  0
   88.7653   17.0114 -103.5540 C   0  0  0  0  0  0
   87.6500   17.9646 -103.5536 N   0  0  0  0  0  0
   86.9781   18.3780 -102.5160 C   0  0  0  0  0  0
   85.9568   19.3062 -102.6981 O   0  0  0  0  0  0
   85.7240   19.6544 -103.6208 H   0  0  0  0  0  0
   87.2449   17.8751 -101.1274 C   0  0  0  0  0  0
  1  2  3  0  0  0
  2  3  1  0  0  0
  3  4  1  0  0  0
  4  5  1  0  0  0
  5  6  1  0  0  0
  6  7  1  0  0  0
  7  8  1  0  0  0
  7 11  1  0  0  0
  8  9  1  0  0  0
  9 10  1  0  0  0
 11 12  1  0  0  0
 11 14  1  0  0  0
 12 13  1  0  0  0
 14 15  1  0  0  0
 14 17  1  0  0  0
 15 16  1  0  0  0
 17 18  1  0  0  0
 17  5  1  0  0  0
 18 19  2  0  0  0
 19 20  1  0  0  0
 19 22  1  0  0  0
 20 21  1  0  0  0
M  END
>  <CHROM.0>
-178.25005642,153.66722159,-65.81634810

>  <CHROM.1>
-17.53509600,-179.91970541,-155.87656227,54.13289661,174.45195278,-163.73814220
60.86881219,120.03973818,0.67354581,88.60125752,16.37759305,-104.04916518
2.76589183,0.28706212,0.31651085

>  <Energy>
31.06655928874912

>  <Genealogy>
C#CCO[C@@H]1O[C@H](CO)[C@@H](O)[C@@H](O)[C@H]1N=C(C)O (tautomer)
C#CCO[C@@H]1O[C@H](CO)[C@@H](O)[C@@H](O)[C@H]1/N=C(/C)O (cis-trans isomerization)
C#CCO[C@@H]1O[C@H](CO)[C@@H](O)[C@@H](O)[C@H]1/N=C(/C)O (3D coordinates assigned)
C#CCO[C@@H]1O[C@H](CO)[C@@H](O)[C@@H](O)[C@H]1/N=C(/C)O (nonaromatic ring conformer: 31.06655928874912 kcal/mol)

>  <Name>
ZINC000616582904

>  <RI>
3.62712e+07

>  <Rbt.Current_Directory>
/home/edward/Documentos/Virtual_Screening/rDock/3

>  <Rbt.Executable>
rbdock ($Id: //depot/dev/client3/rdock/2013.1/src/exe/rbdock.cxx#4 $)

>  <Rbt.Library>
libRbt.so (2013.1, Build901 2013/11/27)

>  <Rbt.Parameter_File>
/home/edward/anaconda3/envs/MD/share/rdock-2013.1-1/data/scripts/dock.prm

>  <Rbt.Receptor>
parameters.prm

>  <SCORE>
-16.354

>  <SCORE.INTER>
-15.0856

>  <SCORE.INTER.CONST>
1

>  <SCORE.INTER.POLAR>
-2.88877

>  <SCORE.INTER.REPUL>
7.87202e-05

>  <SCORE.INTER.ROT>
5

>  <SCORE.INTER.VDW>
-15.6642

>  <SCORE.INTER.norm>
-0.838091

>  <SCORE.INTRA>
-3.01371

>  <SCORE.INTRA.DIHEDRAL>
-7.72874

>  <SCORE.INTRA.DIHEDRAL.0>
11.7679

>  <SCORE.INTRA.POLAR>
0

>  <SCORE.INTRA.POLAR.0>
0

>  <SCORE.INTRA.REPUL>
0

>  <SCORE.INTRA.REPUL.0>
0

>  <SCORE.INTRA.VDW>
0.850659

>  <SCORE.INTRA.VDW.0>
-2.0585

>  <SCORE.INTRA.norm>
-0.167428

>  <SCORE.RESTR>
0.00295519

>  <SCORE.RESTR.CAVITY>
0.00295519

>  <SCORE.RESTR.norm>
0.000164177

>  <SCORE.SYSTEM>
1.74239

>  <SCORE.SYSTEM.CONST>
0

>  <SCORE.SYSTEM.DIHEDRAL>
3.24436

>  <SCORE.SYSTEM.VDW>
0.120208

>  <SCORE.SYSTEM.norm>
0.0967994

>  <SCORE.heavy>
18

>  <SCORE.norm>
-0.908556

>  <SMILES>
C#CCO[C@@H]1O[C@H](CO)[C@@H](O)[C@@H](O)[C@H]1/N=C(/C)O

>  <UniqueID>
465

$$$$
ZINC000616583702
  rDOCK(R)          3D
libRbt.so/2013.1/901 2013/11/27
 24 24  0  0  0  0  0  0  0  0999 V2000
   87.6107   18.8186 -100.1868 H   0  0  0  0  0  0
   88.0545   18.5838 -101.0664 O   0  0  0  0  0  0
   87.8806   19.3785 -102.1976 C   0  0  0  0  0  0
   88.4485   19.0616 -103.3226 N   0  0  0  0  0  0
   89.3151   17.8953 -103.5107 C   0  0  0  0  0  0
   90.6466   18.3028 -104.1724 C   0  0  0  0  0  0
   90.3919   19.0692 -105.3255 O   0  0  0  0  0  0
   91.2718   19.2515 -105.7476 H   0  0  0  0  0  0
   91.4625   17.0429 -104.5323 C   0  0  0  0  0  0
   92.5857   17.3950 -105.2993 O   0  0  0  0  0  0
   93.1367   16.5728 -105.3939 H   0  0  0  0  0  0
   90.5789   16.0362 -105.3103 C   0  0  0  0  0  0
   91.3376   14.7294 -105.5891 C   0  0  0  0  0  0
   92.4612   14.9778 -106.3886 O   0  0  0  0  0  0
   92.7582   14.0922 -106.7278 H   0  0  0  0  0  0
   89.4233   15.7154 -104.5528 O   0  0  0  0  0  0
   88.5940   16.8532 -104.3842 C   0  0  0  0  0  0
   87.4090   16.4576 -103.7176 O   0  0  0  0  0  0
   86.5973   15.6846 -104.5786 C   0  0  0  0  0  0
   85.2612   15.4070 -103.8847 C   0  0  0  0  0  0
   85.3876   14.4282 -102.7000 C   0  0  0  0  0  0
   84.0518   14.0437 -102.0370 C   0  0  0  0  0  0
   84.2278   13.1518 -100.8080 C   0  0  0  0  0  0
   87.0030   20.5863 -102.1306 C   0  0  0  0  0  0
  1  2  1  0  0  0
  2  3  1  0  0  0
  3  4  2  0  0  0
  3 24  1  0  0  0
  4  5  1  0  0  0
  5  6  1  0  0  0
  6  7  1  0  0  0
  6  9  1  0  0  0
  7  8  1  0  0  0
  9 10  1  0  0  0
  9 12  1  0  0  0
 10 11  1  0  0  0
 12 13  1  0  0  0
 12 16  1  0  0  0
 13 14  1  0  0  0
 14 15  1  0  0  0
 16 17  1  0  0  0
 17 18  1  0  0  0
 17  5  1  0  0  0
 18 19  1  0  0  0
 19 20  1  0  0  0
 20 21  1  0  0  0
 21 22  1  0  0  0
 22 23  1  0  0  0
M  END
>  <CHROM.0>
-77.86499249,153.06782831,-63.58599777

>  <CHROM.1>
-179.55077200,-128.83678538,-176.12275468,172.31834509,-61.83334031,-165.24005461
169.70790528,-173.72236173,-70.18714434,-175.84994169,-175.94871387,88.61058019
16.73213921,-103.79518162,3.03705013,-0.50536271,-2.82696333

>  <Energy>
33.09147412749163

>  <Genealogy>
CCCCCO[C@@H]1O[C@H](CO)[C@@H](O)[C@@H](O)[C@H]1N=C(C)O (tautomer)
CCCCCO[C@@H]1O[C@H](CO)[C@@H](O)[C@@H](O)[C@H]1/N=C(\C)O (cis-trans isomerization)
CCCCCO[C@@H]1O[C@H](CO)[C@@H](O)[C@@H](O)[C@H]1/N=C(\C)O (3D coordinates assigned)
CCCCCO[C@@H]1O[C@H](CO)[C@@H](O)[C@@H](O)[C@H]1/N=C(\C)O (nonaromatic ring conformer: 33.09147412749163 kcal/mol)

>  <Name>
ZINC000616583702

>  <RI>
3.62712e+07

>  <Rbt.Current_Directory>
/home/edward/Documentos/Virtual_Screening/rDock/3

>  <Rbt.Executable>
rbdock ($Id: //depot/dev/client3/rdock/2013.1/src/exe/rbdock.cxx#4 $)

>  <Rbt.Library>
libRbt.so (2013.1, Build901 2013/11/27)

>  <Rbt.Parameter_File>
/home/edward/anaconda3/envs/MD/share/rdock-2013.1-1/data/scripts/dock.prm

>  <Rbt.Receptor>
parameters.prm

>  <SCORE>
-13.6389

>  <SCORE.INTER>
-11.8091

>  <SCORE.INTER.CONST>
1

>  <SCORE.INTER.POLAR>
-1.99816

>  <SCORE.INTER.REPUL>
0.0155569

>  <SCORE.INTER.ROT>
7

>  <SCORE.INTER.VDW>
-17.4932

>  <SCORE.INTER.norm>
-0.590457

>  <SCORE.INTRA>
-5.09338

>  <SCORE.INTRA.DIHEDRAL>
-6.07991

>  <SCORE.INTRA.DIHEDRAL.0>
8.85751

>  <SCORE.INTRA.POLAR>
-0.487916

>  <SCORE.INTRA.POLAR.0>
0

>  <SCORE.INTRA.REPUL>
0

>  <SCORE.INTRA.REPUL.0>
0

>  <SCORE.INTRA.VDW>
-0.394513

>  <SCORE.INTRA.VDW.0>
-1.08214

>  <SCORE.INTRA.norm>
-0.254669

>  <SCORE.RESTR>
0

>  <SCORE.RESTR.CAVITY>
0

>  <SCORE.RESTR.norm>
0

>  <SCORE.SYSTEM>
3.26363

>  <SCORE.SYSTEM.CONST>
0

>  <SCORE.SYSTEM.DIHEDRAL>
4.84424

>  <SCORE.SYSTEM.VDW>
0.841506

>  <SCORE.SYSTEM.norm>
0.163181

>  <SCORE.heavy>
20

>  <SCORE.norm>
-0.681944

>  <SMILES>
CCCCCO[C@@H]1O[C@H](CO)[C@@H](O)[C@@H](O)[C@H]1/N=C(\C)O

>  <UniqueID>
467

$$$$
ZINC000616583781
  rDOCK(R)          3D
libRbt.so/2013.1/901 2013/11/27
 23 23  0  0  0  0  0  0  0  0999 V2000
   88.9430   15.4315 -105.6711 H   0  0  0  0  0  0
   89.4293   14.5617 -105.4897 O   0  0  0  0  0  0
   90.8223   14.5071 -105.4480 C   0  0  0  0  0  0
   91.5294   15.5952 -105.5062 N   0  0  0  0  0  0
   90.9684   16.9405 -105.6478 C   0  0  0  0  0  0
   91.8918   17.8269 -106.5067 C   0  0  0  0  0  0
   93.2076   17.7604 -106.0120 O   0  0  0  0  0  0
   93.3475   16.8346 -105.6819 H   0  0  0  0  0  0
   91.3834   19.2829 -106.4862 C   0  0  0  0  0  0
   92.3113   20.1308 -107.1137 O   0  0  0  0  0  0
   91.8871   21.0267 -107.1691 H   0  0  0  0  0  0
   91.1519   19.7393 -105.0257 C   0  0  0  0  0  0
   90.5943   21.1675 -104.9650 C   0  0  0  0  0  0
   91.4027   22.0411 -105.7050 O   0  0  0  0  0  0
   91.0091   22.9446 -105.5894 H   0  0  0  0  0  0
   90.2376   18.8712 -104.3765 O   0  0  0  0  0  0
   90.7827   17.5670 -104.2531 C   0  0  0  0  0  0
   89.8763   16.7605 -103.5238 O   0  0  0  0  0  0
   89.8167   17.1540 -102.1651 C   0  0  0  0  0  0
   88.7616   16.3419 -101.3972 C   0  0  0  0  0  0
   89.0030   14.8230 -101.4430 C   0  0  0  0  0  0
   87.9118   14.0213 -100.7342 C   0  0  0  0  0  0
   91.5133   13.1917 -105.2879 C   0  0  0  0  0  0
  1  2  1  0  0  0
  2  3  1  0  0  0
  3  4  2  0  0  0
  3 23  1  0  0  0
  4  5  1  0  0  0
  5  6  1  0  0  0
  6  7  1  0  0  0
  6  9  1  0  0  0
  7  8  1  0  0  0
  9 10  1  0  0  0
  9 12  1  0  0  0
 10 11  1  0  0  0
 12 13  1  0  0  0
 12 16  1  0  0  0
 13 14  1  0  0  0
 14 15  1  0  0  0
 16 17  1  0  0  0
 17 18  1  0  0  0
 17  5  1  0  0  0
 18 19  1  0  0  0
 19 20  1  0  0  0
 20 21  1  0  0  0
 21 22  1  0  0  0
M  END
>  <CHROM.0>
-176.75462054,153.54238813,-62.78649356

>  <CHROM.1>
7.03154231,-145.13636957,35.19437950,173.31484374,-52.66117544,-177.57230900
170.80419408,176.07478736,57.94235987,-177.21228985,90.67127598,17.32547086
-104.60213303,-2.24159495,0.98889510,0.03730249

>  <Energy>
31.54185544311384

>  <Genealogy>
CCCCO[C@@H]1O[C@H](CO)[C@@H](O)[C@@H](O)[C@H]1N=C(C)O (tautomer)
CCCCO[C@@H]1O[C@H](CO)[C@@H](O)[C@@H](O)[C@H]1/N=C(/C)O (cis-trans isomerization)
CCCCO[C@@H]1O[C@H](CO)[C@@H](O)[C@@H](O)[C@H]1/N=C(/C)O (3D coordinates assigned)
CCCCO[C@@H]1O[C@H](CO)[C@@H](O)[C@@H](O)[C@H]1/N=C(/C)O (nonaromatic ring conformer: 31.54185544311384 kcal/mol)

>  <Name>
ZINC000616583781

>  <RI>
3.62712e+07

>  <Rbt.Current_Directory>
/home/edward/Documentos/Virtual_Screening/rDock/3

>  <Rbt.Executable>
rbdock ($Id: //depot/dev/client3/rdock/2013.1/src/exe/rbdock.cxx#4 $)

>  <Rbt.Library>
libRbt.so (2013.1, Build901 2013/11/27)

>  <Rbt.Parameter_File>
/home/edward/anaconda3/envs/MD/share/rdock-2013.1-1/data/scripts/dock.prm

>  <Rbt.Receptor>
parameters.prm

>  <SCORE>
-16.7814

>  <SCORE.INTER>
-12.9409

>  <SCORE.INTER.CONST>
1

>  <SCORE.INTER.POLAR>
-2.6567

>  <SCORE.INTER.REPUL>
0.133019

>  <SCORE.INTER.ROT>
6

>  <SCORE.INTER.VDW>
-15.9732

>  <SCORE.INTER.norm>
-0.681098

>  <SCORE.INTRA>
-5.763

>  <SCORE.INTRA.DIHEDRAL>
-8.26634

>  <SCORE.INTRA.DIHEDRAL.0>
13.0487

>  <SCORE.INTRA.POLAR>
-0.794135

>  <SCORE.INTRA.POLAR.0>
0

>  <SCORE.INTRA.REPUL>
0

>  <SCORE.INTRA.REPUL.0>
0

>  <SCORE.INTRA.VDW>
1.07023

>  <SCORE.INTRA.VDW.0>
-2.14304

>  <SCORE.INTRA.norm>
-0.303316

>  <SCORE.RESTR>
0.133866

>  <SCORE.RESTR.CAVITY>
0.133866

>  <SCORE.RESTR.norm>
0.00704556

>  <SCORE.SYSTEM>
1.7886

>  <SCORE.SYSTEM.CONST>
0

>  <SCORE.SYSTEM.DIHEDRAL>
3.36418

>  <SCORE.SYSTEM.VDW>
0.10651

>  <SCORE.SYSTEM.norm>
0.0941369

>  <SCORE.heavy>
19

>  <SCORE.norm>
-0.883231

>  <SMILES>
CCCCO[C@@H]1O[C@H](CO)[C@@H](O)[C@@H](O)[C@H]1/N=C(/C)O

>  <UniqueID>
471

$$$$
ZINC000616589990
  rDOCK(R)          3D
libRbt.so/2013.1/901 2013/11/27
 20 20  0  0  0  0  0  0  0  0999 V2000
   89.8517   21.2635 -105.6532 C   0  0  0  0  0  0
   89.6354   19.7778 -105.8942 C   0  0  0  0  0  0
   90.4782   19.0417 -105.0316 O   0  0  0  0  0  0
   90.3207   17.6538 -105.2593 C   0  0  0  0  0  0
   89.1235   17.2197 -104.6318 O   0  0  0  0  0  0
   88.8774   15.8512 -104.9069 C   0  0  0  0  0  0
   87.5324   15.4853 -104.3517 C   0  0  0  0  0  0
   87.3933   15.2508 -103.1218 O   0  0  0  0  0  0
   86.4393   15.3643 -105.2006 O   0  5  0  0  0  0
   89.9722   14.9671 -104.2718 C   0  0  0  0  0  0
   89.7291   13.6160 -104.5722 O   0  0  0  0  0  0
   91.3564   15.3864 -104.7992 C   0  0  0  0  0  0
   91.4774   15.0077 -106.1495 O   0  0  0  0  0  0
   91.5328   16.9149 -104.6436 C   0  0  0  0  0  0
   92.7950   17.3691 -105.2447 N   0  3  0  0  0  0
   90.4211   13.0884 -104.0943 H   0  0  0  0  0  0
   91.4170   14.0173 -106.1819 H   0  0  0  0  0  0
   92.7240   17.3339 -106.2874 H   0  0  0  0  0  0
   92.9853   18.3596 -104.9676 H   0  0  0  0  0  0
   93.5927   16.7654 -104.9397 H   0  0  0  0  0  0
  1  2  1  0  0  0
  2  3  1  0  0  0
  3  4  1  0  0  0
  4  5  1  0  0  0
  5  6  1  0  0  0
  6  7  1  0  0  0
  6 10  1  0  0  0
  7  8  2  0  0  0
  7  9  1  0  0  0
 10 11  1  0  0  0
 10 12  1  0  0  0
 11 16  1  0  0  0
 12 13  1  0  0  0
 12 14  1  0  0  0
 13 17  1  0  0  0
 14 15  1  0  0  0
 14  4  1  0  0  0
 15 18  1  0  0  0
 15 19  1  0  0  0
 15 20  1  0  0  0
M  END
>  <CHROM.0>
178.28247242,154.94958849,53.18521662

>  <CHROM.1>
-178.54141631,-77.93050356,-79.28146164,-176.33449118,-62.70726012,-50.58261704
89.79414579,16.66340544,-104.92874671,1.13931660,0.16639631,-0.13993727

>  <Energy>
26.983182674807253

>  <Genealogy>
CCO[C@@H]1O[C@H](C(=O)[O-])[C@@H](O)[C@@H](O)[C@H]1[NH3+] (protonated)
CCO[C@@H]1O[C@H](C(=O)[O-])[C@@H](O)[C@@H](O)[C@H]1[NH3+] (3D coordinates assigned)
CCO[C@@H]1O[C@H](C(=O)[O-])[C@@H](O)[C@@H](O)[C@H]1[NH3+] (nonaromatic ring conformer: 26.983182674807253 kcal/mol)

>  <Name>
ZINC000616589990

>  <RI>
3.62712e+07

>  <Rbt.Current_Directory>
/home/edward/Documentos/Virtual_Screening/rDock/3

>  <Rbt.Executable>
rbdock ($Id: //depot/dev/client3/rdock/2013.1/src/exe/rbdock.cxx#4 $)

>  <Rbt.Library>
libRbt.so (2013.1, Build901 2013/11/27)

>  <Rbt.Parameter_File>
/home/edward/anaconda3/envs/MD/share/rdock-2013.1-1/data/scripts/dock.prm

>  <Rbt.Receptor>
parameters.prm

>  <SCORE>
-18.423

>  <SCORE.INTER>
-19.23

>  <SCORE.INTER.CONST>
1

>  <SCORE.INTER.POLAR>
-3.98192

>  <SCORE.INTER.REPUL>
0.00892031

>  <SCORE.INTER.ROT>
3

>  <SCORE.INTER.VDW>
-14.1361

>  <SCORE.INTER.norm>
-1.282

>  <SCORE.INTRA>
-1.82519

>  <SCORE.INTRA.DIHEDRAL>
-4.56669

>  <SCORE.INTRA.DIHEDRAL.0>
7.42868

>  <SCORE.INTRA.POLAR>
0

>  <SCORE.INTRA.POLAR.0>
0

>  <SCORE.INTRA.REPUL>
0

>  <SCORE.INTRA.REPUL.0>
0

>  <SCORE.INTRA.VDW>
0.458158

>  <SCORE.INTRA.VDW.0>
-1.73824

>  <SCORE.INTRA.norm>
-0.121679

>  <SCORE.RESTR>
0.194989

>  <SCORE.RESTR.CAVITY>
0.194989

>  <SCORE.RESTR.norm>
0.0129993

>  <SCORE.SYSTEM>
2.43726

>  <SCORE.SYSTEM.CONST>
0

>  <SCORE.SYSTEM.DIHEDRAL>
2.99726

>  <SCORE.SYSTEM.VDW>
0.93863

>  <SCORE.SYSTEM.norm>
0.162484

>  <SCORE.heavy>
15

>  <SCORE.norm>
-1.2282

>  <SMILES>
CCO[C@@H]1O[C@H](C(=O)[O-])[C@@H](O)[C@@H](O)[C@H]1[NH3+]

>  <UniqueID>
475

$$$$
ZINC000616591357
  rDOCK(R)          3D
libRbt.so/2013.1/901 2013/11/27
 25 27  0  0  0  0  0  0  0  0999 V2000
   82.6575   26.2168 -102.2241 H   0  0  0  0  0  0
   83.2169   26.8225 -102.8131 O   0  0  0  0  0  0
   84.6023   26.6967 -102.8642 C   0  0  0  0  0  0
   85.1717   25.7090 -102.2324 N   0  0  0  0  0  0
   86.6059   25.4043 -102.1896 C   0  0  0  0  0  0
   86.9915   24.4278 -103.3287 C   0  0  0  0  0  0
   86.1445   23.3042 -103.3290 O   0  0  0  0  0  0
   86.4565   22.7065 -104.0576 H   0  0  0  0  0  0
   88.4445   23.9802 -103.1299 C   0  0  0  0  0  0
   88.7997   22.9896 -104.0738 O   0  0  0  0  0  0
   90.1579   22.6168 -103.8793 C   0  0  0  0  0  0
   90.5267   21.6071 -104.9339 C   0  0  0  0  0  0
   90.8305   22.0329 -106.2392 C   0  0  0  0  0  0
   91.1742   21.1016 -107.2240 C   0  0  0  0  0  0
   91.2176   19.7396 -106.9152 C   0  0  0  0  0  0
   90.9172   19.3065 -105.6211 C   0  0  0  0  0  0
   90.5728   20.2340 -104.6327 C   0  0  0  0  0  0
   90.3484   22.0205 -102.6032 O   0  0  0  0  0  0
   90.0562   22.9537 -101.5806 C   0  0  0  0  0  0
   88.6127   23.4314 -101.7075 C   0  0  0  0  0  0
   88.3351   24.4431 -100.7581 O   0  0  0  0  0  0
   86.9567   24.7926 -100.8121 C   0  0  0  0  0  0
   86.6875   25.7624  -99.8170 O   0  0  0  0  0  0
   86.7926   25.1842  -98.5340 C   0  0  0  0  0  0
   85.3832   27.7226 -103.6322 C   0  0  0  0  0  0
  1  2  1  0  0  0
  2  3  1  0  0  0
  3  4  2  0  0  0
  3 25  1  0  0  0
  4  5  1  0  0  0
  5  6  1  0  0  0
  6  7  1  0  0  0
  6  9  1  0  0  0
  7  8  1  0  0  0
  9 10  1  0  0  0
 10 11  1  0  0  0
 11 12  1  0  0  0
 11 18  1  0  0  0
 12 13  2  0  0  0
 13 14  1  0  0  0
 14 15  2  0  0  0
 15 16  1  0  0  0
 16 17  2  0  0  0
 17 12  1  0  0  0
 18 19  1  0  0  0
 19 20  1  0  0  0
 20 21  1  0  0  0
 20  9  1  0  0  0
 21 22  1  0  0  0
 22 23  1  0  0  0
 22  5  1  0  0  0
 23 24  1  0  0  0
M  END
>  <CHROM.0>
179.69093132,153.85342549,-70.68403035

>  <CHROM.1>
5.97050511,-91.42985408,-178.28837336,78.99592356,170.87635461,88.09703589
23.65562953,-103.07718308,2.52631410,-0.68348620,1.36971943

>  <Energy>
52.53666038432924

>  <Genealogy>
CO[C@@H]1O[C@@H]2CO[C@@H](c3ccccc3)O[C@H]2[C@@H](O)[C@H]1N=C(C)O (tautomer)
CO[C@@H]1O[C@@H]2CO[C@@H](c3ccccc3)O[C@H]2[C@@H](O)[C@H]1/N=C(\C)O (cis-trans isomerization)
CO[C@@H]1O[C@@H]2CO[C@@H](c3ccccc3)O[C@H]2[C@@H](O)[C@H]1/N=C(\C)O (3D coordinates assigned)
CO[C@@H]1O[C@@H]2CO[C@@H](c3ccccc3)O[C@H]2[C@@H](O)[C@H]1/N=C(\C)O (nonaromatic ring conformer: 52.53666038432924 kcal/mol)

>  <Name>
ZINC000616591357

>  <RI>
3.62712e+07

>  <Rbt.Current_Directory>
/home/edward/Documentos/Virtual_Screening/rDock/3

>  <Rbt.Executable>
rbdock ($Id: //depot/dev/client3/rdock/2013.1/src/exe/rbdock.cxx#4 $)

>  <Rbt.Library>
libRbt.so (2013.1, Build901 2013/11/27)

>  <Rbt.Parameter_File>
/home/edward/anaconda3/envs/MD/share/rdock-2013.1-1/data/scripts/dock.prm

>  <Rbt.Receptor>
parameters.prm

>  <SCORE>
-16.711

>  <SCORE.INTER>
-17.5543

>  <SCORE.INTER.CONST>
1

>  <SCORE.INTER.POLAR>
-2.67846

>  <SCORE.INTER.REPUL>
0.0925045

>  <SCORE.INTER.ROT>
3

>  <SCORE.INTER.VDW>
-17.31

>  <SCORE.INTER.norm>
-0.76323

>  <SCORE.INTRA>
-0.914913

>  <SCORE.INTRA.DIHEDRAL>
-3.35768

>  <SCORE.INTRA.DIHEDRAL.0>
5.89839

>  <SCORE.INTRA.POLAR>
-0.033305

>  <SCORE.INTRA.POLAR.0>
0

>  <SCORE.INTRA.REPUL>
0

>  <SCORE.INTRA.REPUL.0>
0

>  <SCORE.INTRA.VDW>
0.877167

>  <SCORE.INTRA.VDW.0>
-1.69574

>  <SCORE.INTRA.norm>
-0.0397788

>  <SCORE.RESTR>
0

>  <SCORE.RESTR.CAVITY>
0

>  <SCORE.RESTR.norm>
0

>  <SCORE.SYSTEM>
1.75823

>  <SCORE.SYSTEM.CONST>
0

>  <SCORE.SYSTEM.DIHEDRAL>
3.17738

>  <SCORE.SYSTEM.VDW>
0.169539

>  <SCORE.SYSTEM.norm>
0.0764448

>  <SCORE.heavy>
23

>  <SCORE.norm>
-0.726564

>  <SMILES>
CO[C@@H]1O[C@@H]2CO[C@@H](c3ccccc3)O[C@H]2[C@@H](O)[C@H]1/N=C(\C)O

>  <UniqueID>
480

$$$$
