REMARK  Name = 446101
REMARK  9 active torsions:
REMARK  status: ('A' for Active; 'I' for Inactive)
REMARK    1  A    between atoms: O_2  and  C_3
REMARK    2  A    between atoms: C_3  and  C_30
REMARK    3  A    between atoms: N_4  and  C_5
REMARK    4  A    between atoms: C_7  and  O_9
REMARK    5  A    between atoms: C_12  and  C_14
REMARK    6  A    between atoms: C_14  and  O_17
REMARK    7  A    between atoms: C_19  and  O_21
REMARK    8  A    between atoms: O_21  and  S_22
REMARK    9  A    between atoms: C_26  and  O_28
REMARK                            x       y       z     vdW  Elec       q    Type
REMARK                         _______ _______ _______ _____ _____    ______ ____
ROOT
ATOM      1  C   UNL     1       1.279  -0.355   0.328  0.00  0.00    +0.000 C 
ATOM      2  C   UNL     1       0.278  -1.343  -0.313  0.00  0.00    +0.000 C 
ATOM      3  O   UNL     1      -1.026  -1.224   0.238  0.00  0.00    +0.000 OA
ATOM      4  C   UNL     1      -1.591   0.079   0.125  0.00  0.00    +0.000 C 
ATOM      5  C   UNL     1      -0.678   1.191   0.716  0.00  0.00    +0.000 C 
ATOM      6  C   UNL     1       0.767   1.088   0.201  0.00  0.00    +0.000 C 
ENDROOT
BRANCH   1   8
ATOM      7  C   UNL     1       2.200  -1.658   2.185  0.00  0.00    +0.000 C 
ATOM      8  N   UNL     1       1.472  -0.676   1.745  0.00  0.00    +0.000 NA
ATOM      9  C   UNL     1       2.322  -1.881   3.658  0.00  0.00    +0.000 C 
BRANCH   7  11
ATOM     10  H   UNL     1       3.479  -3.237   1.634  0.00  0.00    +0.000 HD
ATOM     11  O   UNL     1       2.895  -2.480   1.298  0.00  0.00    +0.000 OA
ENDBRANCH   7  11
ENDBRANCH   1   8
BRANCH   2  12
ATOM     12  O   UNL     1       0.245  -1.209  -1.711  0.00  0.00    +0.000 OA
ATOM     13  H   UNL     1       1.111  -1.551  -2.055  0.00  0.00    +0.000 HD
ENDBRANCH   2  12
BRANCH   6  14
ATOM     14  O   UNL     1       0.845   1.524  -1.133  0.00  0.00    +0.000 OA
ATOM     15  H   UNL     1       1.802   1.706  -1.322  0.00  0.00    +0.000 HD
ENDBRANCH   6  14
BRANCH   4  16
ATOM     16  C   UNL     1      -2.134   0.357  -1.294  0.00  0.00    +0.000 C 
BRANCH  16  17
ATOM     17  O   UNL     1      -3.134   1.339  -1.242  0.00  0.00    +0.000 OA
ATOM     18  H   UNL     1      -3.447   1.465  -2.175  0.00  0.00    +0.000 HD
ENDBRANCH  16  17
ENDBRANCH   4  16
BRANCH   5  19
ATOM     19  O   UNL     1      -1.186   2.475   0.404  0.00  0.00    +0.000 OA
BRANCH  19  20
ATOM     20  S   UNL     1      -1.974   3.143   1.749  0.00  0.00    +0.000 S 
ATOM     21  O   UNL     1      -2.658   4.413   1.330  0.00  0.00    +0.000 OA
ATOM     22  O   UNL     1      -0.971   3.457   2.823  0.00  0.00    +0.000 OA
ATOM     23  O   UNL     1      -3.128   2.078   2.348  0.00  0.00    +0.000 OA
ENDBRANCH  19  20
ENDBRANCH   5  19
TORSDOF 8
