REMARK  Name = 2801971
REMARK  9 active torsions:
REMARK  status: ('A' for Active; 'I' for Inactive)
REMARK    1  A    between atoms: C_1  and  C_2
REMARK    2  A    between atoms: N_4  and  C_5
REMARK    3  A    between atoms: C_6  and  O_7
REMARK    4  A    between atoms: O_7  and  C_8
REMARK    5  A    between atoms: C_8  and  C_9
REMARK    6  A    between atoms: C_16  and  C_17
REMARK    7  A    between atoms: C_17  and  O_18
REMARK    8  A    between atoms: C_19  and  O_20
REMARK    9  A    between atoms: C_21  and  O_22
REMARK                            x       y       z     vdW  Elec       q    Type
REMARK                         _______ _______ _______ _____ _____    ______ ____
ROOT
ATOM      1  C   UNL     1      -1.963   0.769   0.267  0.00  0.00    +0.000 C 
ATOM      2  C   UNL     1      -0.915   0.628  -0.855  0.00  0.00    +0.000 C 
ATOM      3  O   UNL     1      -1.241  -0.455  -1.714  0.00  0.00    +0.000 OA
ATOM      4  C   UNL     1      -1.222  -1.697  -1.028  0.00  0.00    +0.000 C 
ATOM      5  C   UNL     1      -2.309  -1.723   0.072  0.00  0.00    +0.000 C 
ATOM      6  C   UNL     1      -2.092  -0.554   1.047  0.00  0.00    +0.000 C 
ENDROOT
BRANCH   1  10
ATOM      7  C   UNL     1      -1.322   4.323   1.737  0.00  0.00    +0.000 C 
ATOM      8  C   UNL     1      -1.792   3.247   0.814  0.00  0.00    +0.000 C 
ATOM      9  O   UNL     1      -2.367   3.556  -0.264  0.00  0.00    +0.000 OA
ATOM     10  N   UNL     1      -1.595   1.870   1.165  0.00  0.00    +0.000 N 
ATOM     11  H   UNL     1      -1.147   1.656   2.086  0.00  0.00    +0.000 HD
ENDBRANCH   1  10
BRANCH   5  12
ATOM     12  O   UNL     1      -2.246  -2.937   0.778  0.00  0.00    +0.000 OA
ATOM     13  H   UNL     1      -3.134  -3.071   1.201  0.00  0.00    +0.000 HD
ENDBRANCH   5  12
BRANCH   6  14
ATOM     14  O   UNL     1      -3.181  -0.483   1.931  0.00  0.00    +0.000 OA
ATOM     15  H   UNL     1      -2.862  -0.024   2.751  0.00  0.00    +0.000 HD
ENDBRANCH   6  14
BRANCH   2  16
ATOM     16  O   UNL     1       0.381   0.479  -0.296  0.00  0.00    +0.000 OA
BRANCH  16  17
ATOM     17  C   UNL     1       1.369   0.728  -1.273  0.00  0.00    +0.000 C 
BRANCH  17  18
ATOM     18  C   UNL     1       2.707   0.354  -0.707  0.00  0.00    +0.000 A 
ATOM     19  C   UNL     1       3.498   1.315  -0.055  0.00  0.00    +0.000 A 
ATOM     20  C   UNL     1       4.724   0.952   0.509  0.00  0.00    +0.000 A 
ATOM     21  C   UNL     1       5.163  -0.373   0.439  0.00  0.00    +0.000 A 
ATOM     22  C   UNL     1       4.373  -1.339  -0.191  0.00  0.00    +0.000 A 
ATOM     23  C   UNL     1       3.145  -0.980  -0.757  0.00  0.00    +0.000 A 
ENDBRANCH  17  18
ENDBRANCH  16  17
ENDBRANCH   2  16
BRANCH   4  24
ATOM     24  C   UNL     1      -1.446  -2.809  -2.066  0.00  0.00    +0.000 C 
BRANCH  24  25
ATOM     25  O   UNL     1      -1.245  -4.079  -1.506  0.00  0.00    +0.000 OA
ATOM     26  H   UNL     1      -0.264  -4.195  -1.408  0.00  0.00    +0.000 HD
ENDBRANCH  24  25
ENDBRANCH   4  24
TORSDOF 8
