REMARK  Name = 5284365
REMARK  10 active torsions:
REMARK  status: ('A' for Active; 'I' for Inactive)
REMARK    1  A    between atoms: O_2  and  C_3
REMARK    2  A    between atoms: N_4  and  C_6
REMARK    3  A    between atoms: C_8  and  O_10
REMARK    4  A    between atoms: C_13  and  C_15
REMARK    5  A    between atoms: C_15  and  O_18
REMARK    6  A    between atoms: C_20  and  O_22
REMARK    7  A    between atoms: C_24  and  O_26
REMARK    8  A    between atoms: N_28  and  N_29
REMARK    9  A    between atoms: N_28  and  C_31
REMARK   10  A    between atoms: C_31  and  C_34
REMARK                            x       y       z     vdW  Elec       q    Type
REMARK                         _______ _______ _______ _____ _____    ______ ____
ROOT
ATOM      1  C   UNL     1       0.326  -0.598   0.212  0.00  0.00    +0.000 C 
ATOM      2  C   UNL     1      -1.172  -0.327   0.455  0.00  0.00    +0.000 C 
ATOM      3  O   UNL     1      -1.831  -1.491   0.929  0.00  0.00    +0.000 OA
ATOM      4  C   UNL     1      -1.783  -2.547  -0.021  0.00  0.00    +0.000 C 
ATOM      5  C   UNL     1      -0.320  -2.979  -0.288  0.00  0.00    +0.000 C 
ATOM      6  C   UNL     1       0.503  -1.770  -0.768  0.00  0.00    +0.000 C 
ENDROOT
BRANCH   1   8
ATOM      7  C   UNL     1       2.280   1.024   0.159  0.00  0.00    +0.000 C 
ATOM      8  N   UNL     1       0.982   0.608  -0.305  0.00  0.00    +0.000 N 
ATOM      9  H   UNL     1       0.608   1.004  -1.194  0.00  0.00    +0.000 HD
ATOM     10  N   UNL     1       2.679   2.275   0.074  0.00  0.00    +0.000 N 
BRANCH   7  12
ATOM     11  H   UNL     1       4.037   0.245   1.089  0.00  0.00    +0.000 HD
ATOM     12  O   UNL     1       3.125   0.045   0.700  0.00  0.00    +0.000 OA
ENDBRANCH   7  12
BRANCH  10  13
ATOM     13  N   UNL     1       3.998   2.584   0.464  0.00  0.00    +0.000 NA
ATOM     14  O   UNL     1       4.446   3.748   0.410  0.00  0.00    +0.000 OA
ENDBRANCH  10  13
BRANCH  10  15
ATOM     15  C   UNL     1       1.782   3.386  -0.309  0.00  0.00    +0.000 C 
BRANCH  15  16
ATOM     16  C   UNL     1       1.237   4.100   0.931  0.00  0.00    +0.000 C 
ATOM     17 CL   UNL     1       0.093   3.067   1.825  0.00  0.00    +0.000 Cl
ENDBRANCH  15  16
ENDBRANCH  10  15
ENDBRANCH   1   8
BRANCH   2  18
ATOM     18  O   UNL     1      -1.796   0.172  -0.703  0.00  0.00    +0.000 OA
ATOM     19  H   UNL     1      -2.688   0.500  -0.420  0.00  0.00    +0.000 HD
ENDBRANCH   2  18
BRANCH   5  20
ATOM     20  O   UNL     1      -0.292  -3.981  -1.272  0.00  0.00    +0.000 OA
ATOM     21  H   UNL     1       0.494  -4.555  -1.078  0.00  0.00    +0.000 HD
ENDBRANCH   5  20
BRANCH   6  22
ATOM     22  O   UNL     1       1.863  -2.115  -0.840  0.00  0.00    +0.000 OA
ATOM     23  H   UNL     1       1.996  -2.595  -1.698  0.00  0.00    +0.000 HD
ENDBRANCH   6  22
BRANCH   4  24
ATOM     24  C   UNL     1      -2.615  -3.713   0.531  0.00  0.00    +0.000 C 
BRANCH  24  25
ATOM     25  O   UNL     1      -2.818  -4.685  -0.459  0.00  0.00    +0.000 OA
ATOM     26  H   UNL     1      -3.335  -5.413  -0.029  0.00  0.00    +0.000 HD
ENDBRANCH  24  25
ENDBRANCH   4  24
TORSDOF 10
