REMARK  Name = 446101
REMARK  9 active torsions:
REMARK  status: ('A' for Active; 'I' for Inactive)
REMARK    1  A    between atoms: O_2  and  C_3
REMARK    2  A    between atoms: C_3  and  C_30
REMARK    3  A    between atoms: N_4  and  C_5
REMARK    4  A    between atoms: C_7  and  O_9
REMARK    5  A    between atoms: C_12  and  C_14
REMARK    6  A    between atoms: C_14  and  O_17
REMARK    7  A    between atoms: C_19  and  O_21
REMARK    8  A    between atoms: O_21  and  S_22
REMARK    9  A    between atoms: C_26  and  O_28
REMARK                            x       y       z     vdW  Elec       q    Type
REMARK                         _______ _______ _______ _____ _____    ______ ____
ROOT
ATOM      1  C   UNL     1       0.692  -0.551   0.567  0.00  0.00    +0.000 C 
ATOM      2  C   UNL     1       0.305  -0.917  -0.880  0.00  0.00    +0.000 C 
ATOM      3  O   UNL     1      -0.475   0.115  -1.465  0.00  0.00    +0.000 OA
ATOM      4  C   UNL     1      -1.712   0.246  -0.785  0.00  0.00    +0.000 C 
ATOM      5  C   UNL     1      -1.470   0.764   0.654  0.00  0.00    +0.000 C 
ATOM      6  C   UNL     1      -0.584  -0.267   1.385  0.00  0.00    +0.000 C 
ENDROOT
BRANCH   1   8
ATOM      7  C   UNL     1       2.457  -1.597   1.960  0.00  0.00    +0.000 C 
ATOM      8  N   UNL     1       1.429  -1.670   1.164  0.00  0.00    +0.000 NA
ATOM      9  C   UNL     1       3.080  -0.285   2.354  0.00  0.00    +0.000 C 
BRANCH   7  11
ATOM     10  H   UNL     1       3.816  -2.788   3.047  0.00  0.00    +0.000 HD
ATOM     11  O   UNL     1       3.009  -2.784   2.436  0.00  0.00    +0.000 OA
ENDBRANCH   7  11
ENDBRANCH   1   8
BRANCH   2  12
ATOM     12  O   UNL     1       1.476  -1.081  -1.633  0.00  0.00    +0.000 OA
ATOM     13  H   UNL     1       1.192  -1.419  -2.522  0.00  0.00    +0.000 HD
ENDBRANCH   2  12
BRANCH   6  14
ATOM     14  O   UNL     1      -0.238   0.202   2.661  0.00  0.00    +0.000 OA
ATOM     15  H   UNL     1      -1.018   0.032   3.251  0.00  0.00    +0.000 HD
ENDBRANCH   6  14
BRANCH   4  16
ATOM     16  C   UNL     1      -2.623   1.183  -1.592  0.00  0.00    +0.000 C 
BRANCH  16  17
ATOM     17  O   UNL     1      -3.954   1.074  -1.161  0.00  0.00    +0.000 OA
ATOM     18  H   UNL     1      -4.073   1.718  -0.417  0.00  0.00    +0.000 HD
ENDBRANCH  16  17
ENDBRANCH   4  16
BRANCH   5  19
ATOM     19  O   UNL     1      -0.792   2.008   0.595  0.00  0.00    +0.000 OA
BRANCH  19  20
ATOM     20  S   UNL     1      -1.556   3.163   1.579  0.00  0.00    +0.000 S 
ATOM     21  O   UNL     1      -2.879   3.555   0.985  0.00  0.00    +0.000 OA
ATOM     22  O   UNL     1      -1.765   2.632   2.969  0.00  0.00    +0.000 OA
ATOM     23  O   UNL     1      -0.577   4.525   1.664  0.00  0.00    +0.000 OA
ENDBRANCH  19  20
ENDBRANCH   5  19
TORSDOF 8
