REMARK  Name = 76325328
REMARK  10 active torsions:
REMARK  status: ('A' for Active; 'I' for Inactive)
REMARK    1  A    between atoms: C_1  and  N_2
REMARK    2  A    between atoms: C_3  and  C_4
REMARK    3  A    between atoms: N_6  and  C_7
REMARK    4  A    between atoms: C_8  and  O_9
REMARK    5  A    between atoms: C_11  and  C_12
REMARK    6  A    between atoms: C_12  and  O_13
REMARK    7  A    between atoms: C_14  and  O_15
REMARK    8  A    between atoms: C_16  and  O_17
REMARK    9  A    between atoms: C_21  and  C_22
REMARK   10  A    between atoms: C_29  and  C_30
REMARK                            x       y       z     vdW  Elec       q    Type
REMARK                         _______ _______ _______ _____ _____    ______ ____
ROOT
ATOM      1  C   UNL     1      -0.698   0.729  -0.629  0.00  0.00    +0.000 A 
ATOM      2  C   UNL     1      -0.239   0.310  -1.860  0.00  0.00    +0.000 A 
ATOM      3  N   UNL     1       0.411   1.358  -2.393  0.00  0.00    +0.000 N 
ATOM      4  N   UNL     1       0.362   2.364  -1.533  0.00  0.00    +0.000 NA
ATOM      5  N   UNL     1      -0.308   2.007  -0.447  0.00  0.00    +0.000 NA
ENDROOT
BRANCH   1   8
ATOM      6  C   UNL     1      -1.903   1.726   2.045  0.00  0.00    +0.000 C 
ATOM      7  N   UNL     1      -1.934   0.354   1.531  0.00  0.00    +0.000 N 
ATOM      8  C   UNL     1      -1.447  -0.088   0.345  0.00  0.00    +0.000 A 
ATOM      9  N   UNL     1      -1.706  -1.395   0.131  0.00  0.00    +0.000 NA
ATOM     10  C   UNL     1      -2.369  -1.800   1.232  0.00  0.00    +0.000 A 
ATOM     11  C   UNL     1      -2.509  -0.727   2.102  0.00  0.00    +0.000 A 
BRANCH  10  12
ATOM     12  C   UNL     1      -2.825  -3.194   1.426  0.00  0.00    +0.000 A 
ATOM     13  C   UNL     1      -3.284  -3.934   0.323  0.00  0.00    +0.000 A 
ATOM     14  C   UNL     1      -3.713  -5.255   0.487  0.00  0.00    +0.000 A 
ATOM     15  C   UNL     1      -3.675  -5.853   1.750  0.00  0.00    +0.000 A 
ATOM     16  F   UNL     1      -4.092  -7.133   1.907  0.00  0.00    +0.000 F 
ATOM     17  C   UNL     1      -3.199  -5.132   2.848  0.00  0.00    +0.000 A 
ATOM     18  C   UNL     1      -2.769  -3.811   2.689  0.00  0.00    +0.000 A 
ENDBRANCH  10  12
BRANCH  11  19
ATOM     19  C   UNL     1      -3.236  -0.723   3.390  0.00  0.00    +0.000 A 
ATOM     20  C   UNL     1      -2.599  -0.295   4.562  0.00  0.00    +0.000 A 
ATOM     21  C   UNL     1      -3.298  -0.316   5.771  0.00  0.00    +0.000 A 
ATOM     22  N   UNL     1      -4.584  -0.754   5.808  0.00  0.00    +0.000 NA
ATOM     23  C   UNL     1      -5.224  -1.179   4.687  0.00  0.00    +0.000 A 
ATOM     24  C   UNL     1      -4.562  -1.173   3.457  0.00  0.00    +0.000 A 
ENDBRANCH  11  19
ENDBRANCH   1   8
BRANCH   3  25
ATOM     25  C   UNL     1       1.099   1.395  -3.688  0.00  0.00    +0.000 C 
ATOM     26  C   UNL     1       0.603   2.584  -4.552  0.00  0.00    +0.000 C 
ATOM     27  O   UNL     1       1.319   3.758  -4.219  0.00  0.00    +0.000 OA
ATOM     28  C   UNL     1       2.680   3.702  -4.645  0.00  0.00    +0.000 C 
ATOM     29  C   UNL     1       3.315   2.280  -4.581  0.00  0.00    +0.000 C 
ATOM     30  C   UNL     1       2.633   1.466  -3.465  0.00  0.00    +0.000 C 
BRANCH  26  31
ATOM     31  O   UNL     1      -0.765   2.815  -4.343  0.00  0.00    +0.000 OA
ATOM     32  H   UNL     1      -1.250   2.047  -4.745  0.00  0.00    +0.000 HD
ENDBRANCH  26  31
BRANCH  29  33
ATOM     33  O   UNL     1       4.692   2.391  -4.325  0.00  0.00    +0.000 OA
ATOM     34  H   UNL     1       5.114   1.546  -4.632  0.00  0.00    +0.000 HD
ENDBRANCH  29  33
BRANCH  30  35
ATOM     35  O   UNL     1       3.182   0.175  -3.361  0.00  0.00    +0.000 OA
ATOM     36  H   UNL     1       3.074  -0.270  -4.242  0.00  0.00    +0.000 HD
ENDBRANCH  30  35
BRANCH  28  37
ATOM     37  C   UNL     1       2.821   4.338  -6.036  0.00  0.00    +0.000 C 
BRANCH  37  38
ATOM     38  O   UNL     1       4.175   4.502  -6.356  0.00  0.00    +0.000 OA
ATOM     39  H   UNL     1       4.197   4.904  -7.263  0.00  0.00    +0.000 HD
ENDBRANCH  37  38
ENDBRANCH  28  37
ENDBRANCH   3  25
TORSDOF 9
