REMARK  Name = 5462244
REMARK  10 active torsions:
REMARK  status: ('A' for Active; 'I' for Inactive)
REMARK    1  A    between atoms: C_1  and  C_2
REMARK    2  A    between atoms: N_4  and  C_5
REMARK    3  A    between atoms: C_6  and  O_7
REMARK    4  A    between atoms: C_9  and  C_10
REMARK    5  A    between atoms: C_10  and  O_11
REMARK    6  A    between atoms: C_12  and  O_13
REMARK    7  A    between atoms: C_14  and  O_15
REMARK    8  A    between atoms: O_15  and  C_16
REMARK    9  A    between atoms: C_16  and  C_17
REMARK   10  A    between atoms: C_16  and  C_18
REMARK                            x       y       z     vdW  Elec       q    Type
REMARK                         _______ _______ _______ _____ _____    ______ ____
ROOT
ATOM      1  C   UNL     1      -1.530   0.001  -0.562  0.00  0.00    +0.000 C 
ATOM      2  C   UNL     1      -1.466  -1.492  -0.189  0.00  0.00    +0.000 C 
ATOM      3  O   UNL     1      -1.053  -1.664   1.158  0.00  0.00    +0.000 OA
ATOM      4  C   UNL     1       0.253  -1.153   1.378  0.00  0.00    +0.000 C 
ATOM      5  C   UNL     1       0.291   0.376   1.128  0.00  0.00    +0.000 C 
ATOM      6  C   UNL     1      -0.175   0.683  -0.309  0.00  0.00    +0.000 C 
ENDROOT
BRANCH   1  10
ATOM      7  C   UNL     1      -3.627   0.397  -3.827  0.00  0.00    +0.000 C 
ATOM      8  C   UNL     1      -3.288   0.322  -2.374  0.00  0.00    +0.000 C 
ATOM      9  O   UNL     1      -4.211   0.375  -1.516  0.00  0.00    +0.000 OA
ATOM     10  N   UNL     1      -1.923   0.154  -1.966  0.00  0.00    +0.000 N 
ATOM     11  H   UNL     1      -1.204  -0.000  -2.709  0.00  0.00    +0.000 HD
ENDBRANCH   1  10
BRANCH   2  12
ATOM     12  O   UNL     1      -0.630  -2.198  -1.073  0.00  0.00    +0.000 OA
ATOM     13  H   UNL     1      -0.729  -3.159  -0.844  0.00  0.00    +0.000 HD
ENDBRANCH   2  12
BRANCH   5  14
ATOM     14  O   UNL     1       1.599   0.855   1.310  0.00  0.00    +0.000 OA
ATOM     15  H   UNL     1       1.524   1.811   1.569  0.00  0.00    +0.000 HD
ENDBRANCH   5  14
BRANCH   4  16
ATOM     16  C   UNL     1       0.651  -1.492   2.822  0.00  0.00    +0.000 C 
BRANCH  16  17
ATOM     17  O   UNL     1       2.012  -1.234   3.031  0.00  0.00    +0.000 OA
ATOM     18  H   UNL     1       2.193  -1.458   3.981  0.00  0.00    +0.000 HD
ENDBRANCH  16  17
ENDBRANCH   4  16
BRANCH   6  19
ATOM     19  O   UNL     1      -0.340   2.086  -0.462  0.00  0.00    +0.000 OA
BRANCH  19  20
ATOM     20  C   UNL     1       0.705   2.665  -1.226  0.00  0.00    +0.000 C 
ATOM     21  C   UNL     1       0.826   4.139  -0.849  0.00  0.00    +0.000 C 
BRANCH  20  22
ATOM     22  C   UNL     1       0.398   2.544  -2.692  0.00  0.00    +0.000 C 
ATOM     23  O   UNL     1       1.254   2.063  -3.480  0.00  0.00    +0.000 OA
ATOM     24  O   UNL     1      -0.828   2.972  -3.187  0.00  0.00    +0.000 OA
ENDBRANCH  20  22
ENDBRANCH  19  20
ENDBRANCH   6  19
TORSDOF 8
