REMARK  Name = 16738680
REMARK  11 active torsions:
REMARK  status: ('A' for Active; 'I' for Inactive)
REMARK    1  A    between atoms: O_2  and  C_3
REMARK    2  A    between atoms: C_3  and  C_35
REMARK    3  A    between atoms: N_4  and  C_5
REMARK    4  A    between atoms: C_7  and  O_9
REMARK    5  A    between atoms: C_12  and  C_14
REMARK    6  A    between atoms: C_14  and  O_17
REMARK    7  A    between atoms: C_19  and  O_21
REMARK    8  A    between atoms: C_23  and  O_25
REMARK    9  A    between atoms: O_25  and  C_26
REMARK   10  A    between atoms: C_26  and  C_28
REMARK   11  A    between atoms: C_26  and  C_31
REMARK                            x       y       z     vdW  Elec       q    Type
REMARK                         _______ _______ _______ _____ _____    ______ ____
ROOT
ATOM      1  C   UNL     1      -0.573  -0.749  -0.041  0.00  0.00    +0.000 C 
ATOM      2  C   UNL     1      -0.576  -1.320  -1.474  0.00  0.00    +0.000 C 
ATOM      3  O   UNL     1       0.737  -1.663  -1.892  0.00  0.00    +0.000 OA
ATOM      4  C   UNL     1       1.589  -0.527  -1.928  0.00  0.00    +0.000 C 
ATOM      5  C   UNL     1       1.749   0.082  -0.517  0.00  0.00    +0.000 C 
ATOM      6  C   UNL     1       0.369   0.465   0.046  0.00  0.00    +0.000 C 
ENDROOT
BRANCH   1   8
ATOM      7  C   UNL     1      -2.831  -1.091   0.920  0.00  0.00    +0.000 C 
ATOM      8  N   UNL     1      -1.929  -0.347   0.346  0.00  0.00    +0.000 NA
ATOM      9  C   UNL     1      -2.564  -2.518   1.314  0.00  0.00    +0.000 C 
BRANCH   7  11
ATOM     10  H   UNL     1      -4.805  -1.052   1.660  0.00  0.00    +0.000 HD
ATOM     11  O   UNL     1      -4.072  -0.525   1.200  0.00  0.00    +0.000 OA
ENDBRANCH   7  11
ENDBRANCH   1   8
BRANCH   2  12
ATOM     12  O   UNL     1      -1.179  -0.421  -2.372  0.00  0.00    +0.000 OA
ATOM     13  H   UNL     1      -1.240  -0.894  -3.243  0.00  0.00    +0.000 HD
ENDBRANCH   2  12
BRANCH   5  14
ATOM     14  O   UNL     1       2.563   1.226  -0.587  0.00  0.00    +0.000 OA
ATOM     15  H   UNL     1       2.932   1.373   0.323  0.00  0.00    +0.000 HD
ENDBRANCH   5  14
BRANCH   4  16
ATOM     16  C   UNL     1       2.952  -0.966  -2.485  0.00  0.00    +0.000 C 
BRANCH  16  17
ATOM     17  O   UNL     1       2.801  -1.531  -3.760  0.00  0.00    +0.000 OA
ATOM     18  H   UNL     1       2.658  -0.777  -4.390  0.00  0.00    +0.000 HD
ENDBRANCH  16  17
ENDBRANCH   4  16
BRANCH   6  19
ATOM     19  O   UNL     1       0.526   0.843   1.407  0.00  0.00    +0.000 OA
BRANCH  19  20
ATOM     20  C   UNL     1      -0.231   1.996   1.737  0.00  0.00    +0.000 C 
ATOM     21  C   UNL     1       0.596   3.260   1.483  0.00  0.00    +0.000 C 
BRANCH  20  22
ATOM     22  C   UNL     1      -0.607   1.922   3.186  0.00  0.00    +0.000 C 
ATOM     23  O   UNL     1       0.261   1.643   4.056  0.00  0.00    +0.000 OA
ATOM     24  O   UNL     1      -1.912   2.188   3.581  0.00  0.00    +0.000 OA
ENDBRANCH  20  22
ENDBRANCH  19  20
ENDBRANCH   6  19
TORSDOF 9
