REMARK  Name = 11908605
REMARK  8 active torsions:
REMARK  status: ('A' for Active; 'I' for Inactive)
REMARK    1  A    between atoms: O_2  and  C_3
REMARK    2  A    between atoms: C_3  and  C_27
REMARK    3  A    between atoms: N_4  and  C_5
REMARK    4  A    between atoms: C_7  and  O_9
REMARK    5  A    between atoms: C_11  and  O_13
REMARK    6  A    between atoms: C_15  and  C_17
REMARK    7  A    between atoms: C_17  and  O_20
REMARK    8  A    between atoms: C_23  and  O_25
REMARK                            x       y       z     vdW  Elec       q    Type
REMARK                         _______ _______ _______ _____ _____    ______ ____
ROOT
ATOM      1  C   UNL     1       0.836   0.969  -0.091  0.00  0.00    +0.000 C 
ATOM      2  C   UNL     1      -0.673   0.876  -0.392  0.00  0.00    +0.000 C 
ATOM      3  C   UNL     1      -1.269  -0.400   0.246  0.00  0.00    +0.000 C 
ATOM      4  C   UNL     1      -0.840  -0.524   1.735  0.00  0.00    +0.000 C 
ATOM      5  O   UNL     1       0.574  -0.487   1.838  0.00  0.00    +0.000 OA
ATOM      6  C   UNL     1       1.075   0.771   1.417  0.00  0.00    +0.000 C 
ENDROOT
BRANCH   1   8
ATOM      7  C   UNL     1       2.024   0.043  -2.058  0.00  0.00    +0.000 C 
ATOM      8  N   UNL     1       1.569  -0.059  -0.840  0.00  0.00    +0.000 NA
ATOM      9  C   UNL     1       1.891   1.301  -2.866  0.00  0.00    +0.000 C 
BRANCH   7  11
ATOM     10  H   UNL     1       2.805  -1.908  -2.114  0.00  0.00    +0.000 HD
ATOM     11  O   UNL     1       2.684  -1.042  -2.626  0.00  0.00    +0.000 OA
ENDBRANCH   7  11
ENDBRANCH   1   8
BRANCH   2  12
ATOM     12  O   UNL     1      -1.310   2.025   0.113  0.00  0.00    +0.000 OA
ATOM     13  H   UNL     1      -2.099   2.201  -0.463  0.00  0.00    +0.000 HD
ENDBRANCH   2  12
BRANCH   3  14
ATOM     14  O   UNL     1      -2.668  -0.424   0.091  0.00  0.00    +0.000 OA
ATOM     15  H   UNL     1      -3.055   0.255   0.702  0.00  0.00    +0.000 HD
ENDBRANCH   3  14
BRANCH   6  16
ATOM     16  O   UNL     1       2.452   0.825   1.673  0.00  0.00    +0.000 OA
ATOM     17  H   UNL     1       2.556   0.790   2.660  0.00  0.00    +0.000 HD
ENDBRANCH   6  16
BRANCH   4  18
ATOM     18  C   UNL     1      -1.320  -1.847   2.351  0.00  0.00    +0.000 C 
BRANCH  18  19
ATOM     19  O   UNL     1      -2.714  -1.844   2.519  0.00  0.00    +0.000 OA
ATOM     20  H   UNL     1      -3.095  -2.431   1.815  0.00  0.00    +0.000 HD
ENDBRANCH  18  19
ENDBRANCH   4  18
TORSDOF 7
