REMARK  Name = 16738680
REMARK  11 active torsions:
REMARK  status: ('A' for Active; 'I' for Inactive)
REMARK    1  A    between atoms: O_2  and  C_3
REMARK    2  A    between atoms: C_3  and  C_35
REMARK    3  A    between atoms: N_4  and  C_5
REMARK    4  A    between atoms: C_7  and  O_9
REMARK    5  A    between atoms: C_12  and  C_14
REMARK    6  A    between atoms: C_14  and  O_17
REMARK    7  A    between atoms: C_19  and  O_21
REMARK    8  A    between atoms: C_23  and  O_25
REMARK    9  A    between atoms: O_25  and  C_26
REMARK   10  A    between atoms: C_26  and  C_28
REMARK   11  A    between atoms: C_26  and  C_31
REMARK                            x       y       z     vdW  Elec       q    Type
REMARK                         _______ _______ _______ _____ _____    ______ ____
ROOT
ATOM      1  C   UNL     1       0.314   0.402   1.158  0.00  0.00    +0.000 C 
ATOM      2  C   UNL     1      -0.183   0.473   2.618  0.00  0.00    +0.000 C 
ATOM      3  O   UNL     1       0.070  -0.743   3.308  0.00  0.00    +0.000 OA
ATOM      4  C   UNL     1      -0.622  -1.834   2.720  0.00  0.00    +0.000 C 
ATOM      5  C   UNL     1      -0.143  -2.063   1.264  0.00  0.00    +0.000 C 
ATOM      6  C   UNL     1      -0.342  -0.785   0.429  0.00  0.00    +0.000 C 
ENDROOT
BRANCH   1   8
ATOM      7  C   UNL     1       0.731   2.718   0.384  0.00  0.00    +0.000 C 
ATOM      8  N   UNL     1      -0.007   1.648   0.455  0.00  0.00    +0.000 NA
ATOM      9  C   UNL     1       2.096   2.797   1.013  0.00  0.00    +0.000 C 
BRANCH   7  11
ATOM     10  H   UNL     1       0.781   4.664  -0.428  0.00  0.00    +0.000 HD
ATOM     11  O   UNL     1       0.243   3.811  -0.328  0.00  0.00    +0.000 OA
ENDBRANCH   7  11
ENDBRANCH   1   8
BRANCH   2  12
ATOM     12  O   UNL     1      -1.548   0.812   2.668  0.00  0.00    +0.000 OA
ATOM     13  H   UNL     1      -1.768   0.944   3.627  0.00  0.00    +0.000 HD
ENDBRANCH   2  12
BRANCH   5  14
ATOM     14  O   UNL     1      -0.812  -3.148   0.668  0.00  0.00    +0.000 OA
ATOM     15  H   UNL     1      -1.785  -2.951   0.690  0.00  0.00    +0.000 HD
ENDBRANCH   5  14
BRANCH   4  16
ATOM     16  C   UNL     1      -0.370  -3.082   3.574  0.00  0.00    +0.000 C 
BRANCH  16  17
ATOM     17  O   UNL     1      -0.824  -2.858   4.880  0.00  0.00    +0.000 OA
ATOM     18  H   UNL     1      -0.627  -3.689   5.386  0.00  0.00    +0.000 HD
ENDBRANCH  16  17
ENDBRANCH   4  16
BRANCH   6  19
ATOM     19  O   UNL     1       0.284  -0.971  -0.832  0.00  0.00    +0.000 OA
BRANCH  19  20
ATOM     20  C   UNL     1      -0.499  -0.470  -1.903  0.00  0.00    +0.000 C 
ATOM     21  C   UNL     1      -1.431  -1.564  -2.428  0.00  0.00    +0.000 C 
BRANCH  20  22
ATOM     22  C   UNL     1       0.424  -0.032  -2.999  0.00  0.00    +0.000 C 
ATOM     23  O   UNL     1       0.223   1.056  -3.601  0.00  0.00    +0.000 OA
ATOM     24  O   UNL     1       1.487  -0.841  -3.382  0.00  0.00    +0.000 OA
ENDBRANCH  20  22
ENDBRANCH  19  20
ENDBRANCH   6  19
TORSDOF 9
