REMARK  Name = 440235
REMARK  9 active torsions:
REMARK  status: ('A' for Active; 'I' for Inactive)
REMARK    1  A    between atoms: O_2  and  C_3
REMARK    2  A    between atoms: C_3  and  C_30
REMARK    3  A    between atoms: N_4  and  C_5
REMARK    4  A    between atoms: C_7  and  O_9
REMARK    5  A    between atoms: C_12  and  C_14
REMARK    6  A    between atoms: C_14  and  O_17
REMARK    7  A    between atoms: O_17  and  S_18
REMARK    8  A    between atoms: C_22  and  O_24
REMARK    9  A    between atoms: C_26  and  O_28
REMARK                            x       y       z     vdW  Elec       q    Type
REMARK                         _______ _______ _______ _____ _____    ______ ____
ROOT
ATOM      1  C   UNL     1       0.846  -1.290  -0.186  0.00  0.00    +0.000 C 
ATOM      2  C   UNL     1      -0.271  -1.364   0.881  0.00  0.00    +0.000 C 
ATOM      3  O   UNL     1      -1.343  -0.498   0.547  0.00  0.00    +0.000 OA
ATOM      4  C   UNL     1      -0.923   0.856   0.576  0.00  0.00    +0.000 C 
ATOM      5  C   UNL     1       0.135   1.109  -0.524  0.00  0.00    +0.000 C 
ATOM      6  C   UNL     1       1.329   0.166  -0.320  0.00  0.00    +0.000 C 
ENDROOT
BRANCH   1   8
ATOM      7  C   UNL     1       2.080  -3.404  -0.061  0.00  0.00    +0.000 C 
ATOM      8  N   UNL     1       1.978  -2.135   0.202  0.00  0.00    +0.000 NA
ATOM      9  C   UNL     1       3.292  -4.152   0.392  0.00  0.00    +0.000 C 
BRANCH   7  11
ATOM     10  H   UNL     1       1.175  -5.046  -1.019  0.00  0.00    +0.000 HD
ATOM     11  O   UNL     1       1.093  -4.062  -0.794  0.00  0.00    +0.000 OA
ENDBRANCH   7  11
ENDBRANCH   1   8
BRANCH   2  12
ATOM     12  O   UNL     1      -0.758  -2.676   0.990  0.00  0.00    +0.000 OA
ATOM     13  H   UNL     1      -1.259  -2.872   0.155  0.00  0.00    +0.000 HD
ENDBRANCH   2  12
BRANCH   5  14
ATOM     14  O   UNL     1       0.592   2.438  -0.465  0.00  0.00    +0.000 OA
ATOM     15  H   UNL     1       0.057   2.962  -1.117  0.00  0.00    +0.000 HD
ENDBRANCH   5  14
BRANCH   6  16
ATOM     16  O   UNL     1       2.201   0.285  -1.415  0.00  0.00    +0.000 OA
ATOM     17  H   UNL     1       3.091  -0.034  -1.113  0.00  0.00    +0.000 HD
ENDBRANCH   6  16
BRANCH   4  18
ATOM     18  C   UNL     1      -2.154   1.748   0.374  0.00  0.00    +0.000 C 
BRANCH  18  19
ATOM     19  O   UNL     1      -3.098   1.468   1.380  0.00  0.00    +0.000 OA
BRANCH  19  20
ATOM     20  S   UNL     1      -4.478   2.407   1.094  0.00  0.00    +0.000 S 
ATOM     21  O   UNL     1      -5.437   2.219   2.234  0.00  0.00    +0.000 OA
ATOM     22  O   UNL     1      -5.144   1.971  -0.182  0.00  0.00    +0.000 OA
ATOM     23  O   UNL     1      -4.071   4.035   0.992  0.00  0.00    +0.000 OA
ENDBRANCH  19  20
ENDBRANCH  18  19
ENDBRANCH   4  18
TORSDOF 8
