REMARK  Name = 439213
REMARK  6 active torsions:
REMARK  status: ('A' for Active; 'I' for Inactive)
REMARK    1  A    between atoms: N_1  and  C_2
REMARK    2  A    between atoms: C_3  and  O_4
REMARK    3  A    between atoms: C_6  and  C_7
REMARK    4  A    between atoms: C_7  and  O_8
REMARK    5  A    between atoms: C_9  and  O_10
REMARK    6  A    between atoms: C_11  and  O_12
REMARK                            x       y       z     vdW  Elec       q    Type
REMARK                         _______ _______ _______ _____ _____    ______ ____
ROOT
ATOM      1  C   UNL     1       0.734   1.856  -0.546  0.00  0.00    +0.000 C 
ATOM      2  C   UNL     1      -0.711   2.380  -0.725  0.00  0.00    +0.000 C 
ATOM      3  O   UNL     1      -1.629   1.527  -0.064  0.00  0.00    +0.000 OA
ATOM      4  C   UNL     1      -1.652   0.246  -0.669  0.00  0.00    +0.000 C 
ATOM      5  C   UNL     1      -0.290  -0.459  -0.483  0.00  0.00    +0.000 C 
ATOM      6  C   UNL     1       0.829   0.410  -1.081  0.00  0.00    +0.000 C 
ENDROOT
BRANCH   1   7
ATOM      7  N   UNL     1       1.679   2.720  -1.260  0.00  0.00    +0.000 NA
ATOM      8  H   UNL     1       1.662   3.668  -0.821  0.00  0.00    +0.000 HD
ATOM      9  H   UNL     1       2.648   2.364  -1.096  0.00  0.00    +0.000 HD
ENDBRANCH   1   7
BRANCH   2  10
ATOM     10  O   UNL     1      -0.823   3.657  -0.151  0.00  0.00    +0.000 OA
ATOM     11  H   UNL     1      -0.664   4.322  -0.872  0.00  0.00    +0.000 HD
ENDBRANCH   2  10
BRANCH   5  12
ATOM     12  O   UNL     1      -0.314  -1.708  -1.127  0.00  0.00    +0.000 OA
ATOM     13  H   UNL     1       0.403  -2.258  -0.715  0.00  0.00    +0.000 HD
ENDBRANCH   5  12
BRANCH   6  14
ATOM     14  O   UNL     1       2.073  -0.148  -0.737  0.00  0.00    +0.000 OA
ATOM     15  H   UNL     1       2.678  -0.023  -1.514  0.00  0.00    +0.000 HD
ENDBRANCH   6  14
BRANCH   4  16
ATOM     16  C   UNL     1      -2.796  -0.566  -0.048  0.00  0.00    +0.000 C 
BRANCH  16  17
ATOM     17  O   UNL     1      -2.616  -0.686   1.337  0.00  0.00    +0.000 OA
ATOM     18  H   UNL     1      -3.384  -1.220   1.669  0.00  0.00    +0.000 HD
ENDBRANCH  16  17
ENDBRANCH   4  16
TORSDOF 6
