REMARK  Name = 11096158
REMARK  7 active torsions:
REMARK  status: ('A' for Active; 'I' for Inactive)
REMARK    1  A    between atoms: C_1  and  C_2
REMARK    2  A    between atoms: N_4  and  C_5
REMARK    3  A    between atoms: C_6  and  O_7
REMARK    4  A    between atoms: C_9  and  C_10
REMARK    5  A    between atoms: C_10  and  O_11
REMARK    6  A    between atoms: C_12  and  O_13
REMARK    7  A    between atoms: C_14  and  O_15
REMARK                            x       y       z     vdW  Elec       q    Type
REMARK                         _______ _______ _______ _____ _____    ______ ____
ROOT
ATOM      1  C   UNL     1       0.943  -0.496  -0.550  0.00  0.00    +0.000 C 
ATOM      2  C   UNL     1       1.284   0.548  -1.633  0.00  0.00    +0.000 C 
ATOM      3  O   UNL     1       0.603   0.306  -2.858  0.00  0.00    +0.000 OA
ATOM      4  C   UNL     1      -0.815   0.225  -2.739  0.00  0.00    +0.000 C 
ATOM      5  C   UNL     1      -1.297  -0.766  -1.648  0.00  0.00    +0.000 C 
ATOM      6  C   UNL     1      -0.575  -0.550  -0.309  0.00  0.00    +0.000 C 
ENDROOT
BRANCH   1  10
ATOM      7  C   UNL     1       2.522  -0.854   2.999  0.00  0.00    +0.000 C 
ATOM      8  C   UNL     1       1.802  -1.202   1.738  0.00  0.00    +0.000 C 
ATOM      9  O   UNL     1       1.350  -2.368   1.580  0.00  0.00    +0.000 OA
ATOM     10  N   UNL     1       1.665  -0.221   0.699  0.00  0.00    +0.000 N 
ATOM     11  H   UNL     1       2.139   0.701   0.833  0.00  0.00    +0.000 HD
ENDBRANCH   1  10
BRANCH   2  12
ATOM     12  O   UNL     1       1.058   1.856  -1.174  0.00  0.00    +0.000 OA
ATOM     13  H   UNL     1       1.509   2.462  -1.817  0.00  0.00    +0.000 HD
ENDBRANCH   2  12
BRANCH   5  14
ATOM     14  O   UNL     1      -1.068  -2.078  -2.100  0.00  0.00    +0.000 OA
ATOM     15  H   UNL     1      -1.652  -2.677  -1.564  0.00  0.00    +0.000 HD
ENDBRANCH   5  14
BRANCH   6  16
ATOM     16  O   UNL     1      -1.034   0.632   0.297  0.00  0.00    +0.000 OA
ATOM     17  H   UNL     1      -0.841   0.556   1.268  0.00  0.00    +0.000 HD
ENDBRANCH   6  16
BRANCH   4  18
ATOM     18  C   UNL     1      -1.495   1.608  -2.665  0.00  0.00    +0.000 C 
BRANCH  18  19
ATOM     19  O   UNL     1      -1.118   2.399  -3.760  0.00  0.00    +0.000 OA
ATOM     20  H   UNL     1      -0.239   2.800  -3.535  0.00  0.00    +0.000 HD
ENDBRANCH  18  19
ENDBRANCH   4  18
TORSDOF 6
