REMARK  Name = 440552
REMARK  7 active torsions:
REMARK  status: ('A' for Active; 'I' for Inactive)
REMARK    1  A    between atoms: C_1  and  C_2
REMARK    2  A    between atoms: N_4  and  C_5
REMARK    3  A    between atoms: C_6  and  O_7
REMARK    4  A    between atoms: C_9  and  C_10
REMARK    5  A    between atoms: C_10  and  O_11
REMARK    6  A    between atoms: C_12  and  O_13
REMARK    7  A    between atoms: C_14  and  O_15
REMARK                            x       y       z     vdW  Elec       q    Type
REMARK                         _______ _______ _______ _____ _____    ______ ____
ROOT
ATOM      1  C   UNL     1      -0.101  -0.869  -0.784  0.00  0.00    +0.000 C 
ATOM      2  C   UNL     1       0.393  -1.318  -2.179  0.00  0.00    +0.000 C 
ATOM      3  O   UNL     1       1.691  -1.880  -2.086  0.00  0.00    +0.000 OA
ATOM      4  C   UNL     1       2.630  -0.902  -1.669  0.00  0.00    +0.000 C 
ATOM      5  C   UNL     1       2.327  -0.451  -0.222  0.00  0.00    +0.000 C 
ATOM      6  C   UNL     1       0.900   0.122  -0.164  0.00  0.00    +0.000 C 
ENDROOT
BRANCH   1  10
ATOM      7  C   UNL     1      -3.755   0.298  -0.067  0.00  0.00    +0.000 C 
ATOM      8  C   UNL     1      -2.467  -0.449   0.062  0.00  0.00    +0.000 C 
ATOM      9  O   UNL     1      -2.301  -1.239   1.031  0.00  0.00    +0.000 OA
ATOM     10  N   UNL     1      -1.420  -0.236  -0.894  0.00  0.00    +0.000 N 
ATOM     11  H   UNL     1      -1.561   0.495  -1.628  0.00  0.00    +0.000 HD
ENDBRANCH   1  10
BRANCH   2  12
ATOM     12  O   UNL     1      -0.471  -2.301  -2.686  0.00  0.00    +0.000 OA
ATOM     13  H   UNL     1      -1.258  -1.830  -3.067  0.00  0.00    +0.000 HD
ENDBRANCH   2  12
BRANCH   5  14
ATOM     14  O   UNL     1       2.431  -1.539   0.665  0.00  0.00    +0.000 OA
ATOM     15  H   UNL     1       3.359  -1.542   1.016  0.00  0.00    +0.000 HD
ENDBRANCH   5  14
BRANCH   6  16
ATOM     16  O   UNL     1       0.536   0.389   1.167  0.00  0.00    +0.000 OA
ATOM     17  H   UNL     1       1.034   1.203   1.442  0.00  0.00    +0.000 HD
ENDBRANCH   6  16
BRANCH   4  18
ATOM     18  C   UNL     1       4.043  -1.482  -1.789  0.00  0.00    +0.000 C 
BRANCH  18  19
ATOM     19  O   UNL     1       4.325  -1.761  -3.132  0.00  0.00    +0.000 OA
ATOM     20  H   UNL     1       5.246  -2.130  -3.150  0.00  0.00    +0.000 HD
ENDBRANCH  18  19
ENDBRANCH   4  18
TORSDOF 6
