REMARK  Name = 5284365
REMARK  9 active torsions:
REMARK  status: ('A' for Active; 'I' for Inactive)
REMARK    1  A    between atoms: O_2  and  N_3
REMARK    2  A    between atoms: N_4  and  C_31
REMARK    3  A    between atoms: N_7  and  C_9
REMARK    4  A    between atoms: C_11  and  O_13
REMARK    5  A    between atoms: C_16  and  C_18
REMARK    6  A    between atoms: C_18  and  O_21
REMARK    7  A    between atoms: C_23  and  O_25
REMARK    8  A    between atoms: C_27  and  O_29
REMARK    9  A    between atoms: C_31  and  C_34
REMARK                            x       y       z     vdW  Elec       q    Type
REMARK                         _______ _______ _______ _____ _____    ______ ____
ROOT
ATOM      1  C   UNL     1      -0.629  -0.357  -0.378  0.00  0.00    +0.000 C 
ATOM      2  C   UNL     1      -2.088  -0.457   0.107  0.00  0.00    +0.000 C 
ATOM      3  O   UNL     1      -2.422   0.632   0.956  0.00  0.00    +0.000 OA
ATOM      4  C   UNL     1      -1.619   0.651   2.127  0.00  0.00    +0.000 C 
ATOM      5  C   UNL     1      -0.123   0.847   1.771  0.00  0.00    +0.000 C 
ATOM      6  C   UNL     1       0.329  -0.274   0.822  0.00  0.00    +0.000 C 
ENDROOT
BRANCH   1  11
ATOM      7  N   UNL     1      -0.665  -2.734  -4.620  0.00  0.00    +0.000 NA
ATOM      8  N   UNL     1      -0.113  -2.617  -3.470  0.00  0.00    +0.000 N 
ATOM      9  C   UNL     1      -0.536  -1.515  -2.640  0.00  0.00    +0.000 C 
ATOM     10  O   UNL     1      -1.146  -0.544  -3.169  0.00  0.00    +0.000 OA
ATOM     11  N   UNL     1      -0.293  -1.509  -1.222  0.00  0.00    +0.000 N 
ATOM     12  H   UNL     1      -0.022  -2.397  -0.747  0.00  0.00    +0.000 HD
BRANCH   7  14
ATOM     13  H   UNL     1       0.252  -4.498  -5.347  0.00  0.00    +0.000 HD
ATOM     14  O   UNL     1      -0.388  -3.738  -5.531  0.00  0.00    +0.000 OA
ENDBRANCH   7  14
BRANCH   8  15
ATOM     15  C   UNL     1       0.925  -3.553  -3.002  0.00  0.00    +0.000 C 
BRANCH  15  16
ATOM     16  C   UNL     1       0.293  -4.825  -2.435  0.00  0.00    +0.000 C 
ATOM     17 CL   UNL     1       1.562  -5.929  -1.849  0.00  0.00    +0.000 Cl
ENDBRANCH  15  16
ENDBRANCH   8  15
ENDBRANCH   1  11
BRANCH   2  18
ATOM     18  O   UNL     1      -2.326  -1.689   0.741  0.00  0.00    +0.000 OA
ATOM     19  H   UNL     1      -3.302  -1.727   0.920  0.00  0.00    +0.000 HD
ENDBRANCH   2  18
BRANCH   5  20
ATOM     20  O   UNL     1       0.662   0.801   2.937  0.00  0.00    +0.000 OA
ATOM     21  H   UNL     1       0.791   1.737   3.240  0.00  0.00    +0.000 HD
ENDBRANCH   5  20
BRANCH   6  22
ATOM     22  O   UNL     1       1.629  -0.015   0.357  0.00  0.00    +0.000 OA
ATOM     23  H   UNL     1       2.254  -0.293   1.076  0.00  0.00    +0.000 HD
ENDBRANCH   6  22
BRANCH   4  24
ATOM     24  C   UNL     1      -2.132   1.769   3.044  0.00  0.00    +0.000 C 
BRANCH  24  25
ATOM     25  O   UNL     1      -2.028   3.013   2.406  0.00  0.00    +0.000 OA
ATOM     26  H   UNL     1      -2.370   3.683   3.053  0.00  0.00    +0.000 HD
ENDBRANCH  24  25
ENDBRANCH   4  24
TORSDOF 9
