REMARK  Name = 76325328
REMARK  10 active torsions:
REMARK  status: ('A' for Active; 'I' for Inactive)
REMARK    1  A    between atoms: C_1  and  N_2
REMARK    2  A    between atoms: C_3  and  C_4
REMARK    3  A    between atoms: N_6  and  C_7
REMARK    4  A    between atoms: C_8  and  O_9
REMARK    5  A    between atoms: C_11  and  C_12
REMARK    6  A    between atoms: C_12  and  O_13
REMARK    7  A    between atoms: C_14  and  O_15
REMARK    8  A    between atoms: C_16  and  O_17
REMARK    9  A    between atoms: C_21  and  C_22
REMARK   10  A    between atoms: C_29  and  C_30
REMARK                            x       y       z     vdW  Elec       q    Type
REMARK                         _______ _______ _______ _____ _____    ______ ____
ROOT
ATOM      1  C   UNL     1      -0.095   0.225  -0.537  0.00  0.00    +0.000 A 
ATOM      2  C   UNL     1      -0.332   0.374  -1.886  0.00  0.00    +0.000 A 
ATOM      3  N   UNL     1       0.699   1.085  -2.373  0.00  0.00    +0.000 N 
ATOM      4  N   UNL     1       1.518   1.371  -1.372  0.00  0.00    +0.000 NA
ATOM      5  N   UNL     1       1.063   0.850  -0.241  0.00  0.00    +0.000 NA
ENDROOT
BRANCH   1   8
ATOM      6  C   UNL     1       0.283   0.132   2.537  0.00  0.00    +0.000 C 
ATOM      7  N   UNL     1      -0.748  -0.564   1.762  0.00  0.00    +0.000 N 
ATOM      8  C   UNL     1      -0.948  -0.502   0.423  0.00  0.00    +0.000 A 
ATOM      9  N   UNL     1      -2.038  -1.194   0.027  0.00  0.00    +0.000 NA
ATOM     10  C   UNL     1      -2.538  -1.727   1.160  0.00  0.00    +0.000 A 
ATOM     11  C   UNL     1      -1.745  -1.346   2.234  0.00  0.00    +0.000 A 
BRANCH  10  12
ATOM     12  C   UNL     1      -3.737  -2.593   1.175  0.00  0.00    +0.000 A 
ATOM     13  C   UNL     1      -3.828  -3.700   2.039  0.00  0.00    +0.000 A 
ATOM     14  C   UNL     1      -4.967  -4.511   2.030  0.00  0.00    +0.000 A 
ATOM     15  C   UNL     1      -6.018  -4.234   1.153  0.00  0.00    +0.000 A 
ATOM     16  F   UNL     1      -7.121  -5.022   1.145  0.00  0.00    +0.000 F 
ATOM     17  C   UNL     1      -5.928  -3.149   0.277  0.00  0.00    +0.000 A 
ATOM     18  C   UNL     1      -4.791  -2.335   0.282  0.00  0.00    +0.000 A 
ENDBRANCH  10  12
BRANCH  11  19
ATOM     19  C   UNL     1      -1.988  -1.645   3.661  0.00  0.00    +0.000 A 
ATOM     20  C   UNL     1      -0.991  -2.252   4.438  0.00  0.00    +0.000 A 
ATOM     21  C   UNL     1      -1.247  -2.541   5.780  0.00  0.00    +0.000 A 
ATOM     22  N   UNL     1      -2.456  -2.239   6.325  0.00  0.00    +0.000 NA
ATOM     23  C   UNL     1      -3.441  -1.654   5.593  0.00  0.00    +0.000 A 
ATOM     24  C   UNL     1      -3.226  -1.347   4.247  0.00  0.00    +0.000 A 
ENDBRANCH  11  19
ENDBRANCH   1   8
BRANCH   3  25
ATOM     25  C   UNL     1       0.850   1.561  -3.754  0.00  0.00    +0.000 C 
ATOM     26  C   UNL     1       0.303   3.000  -3.903  0.00  0.00    +0.000 C 
ATOM     27  O   UNL     1       0.890   3.637  -5.025  0.00  0.00    +0.000 OA
ATOM     28  C   UNL     1       2.257   3.958  -4.797  0.00  0.00    +0.000 C 
ATOM     29  C   UNL     1       3.083   2.778  -4.183  0.00  0.00    +0.000 C 
ATOM     30  C   UNL     1       2.320   1.437  -4.247  0.00  0.00    +0.000 C 
BRANCH  26  31
ATOM     31  O   UNL     1       0.491   3.755  -2.729  0.00  0.00    +0.000 OA
ATOM     32  H   UNL     1      -0.005   4.605  -2.859  0.00  0.00    +0.000 HD
ENDBRANCH  26  31
BRANCH  29  33
ATOM     33  O   UNL     1       3.392   3.062  -2.842  0.00  0.00    +0.000 OA
ATOM     34  H   UNL     1       4.114   3.744  -2.852  0.00  0.00    +0.000 HD
ENDBRANCH  29  33
BRANCH  30  35
ATOM     35  O   UNL     1       2.371   0.910  -5.552  0.00  0.00    +0.000 OA
ATOM     36  H   UNL     1       1.825   1.493  -6.141  0.00  0.00    +0.000 HD
ENDBRANCH  30  35
BRANCH  28  37
ATOM     37  C   UNL     1       2.875   4.421  -6.126  0.00  0.00    +0.000 C 
BRANCH  37  38
ATOM     38  O   UNL     1       2.144   5.491  -6.662  0.00  0.00    +0.000 OA
ATOM     39  H   UNL     1       2.387   6.295  -6.134  0.00  0.00    +0.000 HD
ENDBRANCH  37  38
ENDBRANCH  28  37
ENDBRANCH   3  25
TORSDOF 9
