REMARK  Name = 439281
REMARK  8 active torsions:
REMARK  status: ('A' for Active; 'I' for Inactive)
REMARK    1  A    between atoms: C_1  and  C_2
REMARK    2  A    between atoms: C_2  and  O_3
REMARK    3  A    between atoms: N_4  and  C_5
REMARK    4  A    between atoms: C_6  and  O_7
REMARK    5  A    between atoms: C_9  and  C_10
REMARK    6  A    between atoms: C_10  and  O_11
REMARK    7  A    between atoms: C_12  and  O_13
REMARK    8  A    between atoms: C_14  and  O_15
REMARK                            x       y       z     vdW  Elec       q    Type
REMARK                         _______ _______ _______ _____ _____    ______ ____
ROOT
ATOM      1  C   UNL     1       0.576  -0.207  -0.425  0.00  0.00    +0.000 C 
ATOM      2  C   UNL     1      -0.905   0.132  -0.157  0.00  0.00    +0.000 C 
ATOM      3  O   UNL     1      -1.154   1.511  -0.382  0.00  0.00    +0.000 OA
ATOM      4  C   UNL     1      -0.449   2.305   0.559  0.00  0.00    +0.000 C 
ATOM      5  C   UNL     1       1.082   2.136   0.391  0.00  0.00    +0.000 C 
ATOM      6  C   UNL     1       1.456   0.646   0.513  0.00  0.00    +0.000 C 
ENDROOT
BRANCH   1   9
ATOM      7  C   UNL     1       2.054  -0.152  -3.938  0.00  0.00    +0.000 C 
ATOM      8  C   UNL     1       1.833  -0.525  -2.508  0.00  0.00    +0.000 C 
ATOM      9  N   UNL     1       0.894   0.066  -1.831  0.00  0.00    +0.000 NA
BRANCH   8  10
ATOM     10  O   UNL     1       2.606  -1.530  -1.925  0.00  0.00    +0.000 OA
ATOM     11  H   UNL     1       3.327  -2.008  -2.452  0.00  0.00    +0.000 HD
ENDBRANCH   8  10
ENDBRANCH   1   9
BRANCH   2  12
ATOM     12  O   UNL     1      -1.738  -0.644  -0.981  0.00  0.00    +0.000 OA
ATOM     13  H   UNL     1      -1.706  -0.252  -1.893  0.00  0.00    +0.000 HD
ENDBRANCH   2  12
BRANCH   5  14
ATOM     14  O   UNL     1       1.748   2.873   1.383  0.00  0.00    +0.000 OA
ATOM     15  H   UNL     1       2.674   3.025   1.058  0.00  0.00    +0.000 HD
ENDBRANCH   5  14
BRANCH   6  16
ATOM     16  O   UNL     1       2.817   0.475   0.215  0.00  0.00    +0.000 OA
ATOM     17  H   UNL     1       3.081  -0.407   0.585  0.00  0.00    +0.000 HD
ENDBRANCH   6  16
BRANCH   4  18
ATOM     18  C   UNL     1      -0.874   3.772   0.381  0.00  0.00    +0.000 C 
BRANCH  18  19
ATOM     19  O   UNL     1      -0.542   4.246  -0.898  0.00  0.00    +0.000 OA
ATOM     20  H   UNL     1      -1.236   3.903  -1.519  0.00  0.00    +0.000 HD
ENDBRANCH  18  19
ENDBRANCH   4  18
TORSDOF 7
