REMARK  Name = 3052142
REMARK  16 active torsions:
REMARK  status: ('A' for Active; 'I' for Inactive)
REMARK    1  A    between atoms: O_2  and  C_3
REMARK    2  A    between atoms: C_3  and  C_47
REMARK    3  A    between atoms: N_4  and  C_5
REMARK    4  A    between atoms: C_7  and  O_9
REMARK    5  A    between atoms: O_9  and  C_10
REMARK    6  A    between atoms: C_10  and  C_12
REMARK    7  A    between atoms: C_17  and  C_19
REMARK    8  A    between atoms: C_19  and  O_22
REMARK    9  A    between atoms: O_22  and  C_23
REMARK   10  A    between atoms: C_23  and  C_25
REMARK   11  A    between atoms: C_29  and  O_31
REMARK   12  A    between atoms: O_31  and  C_32
REMARK   13  A    between atoms: C_32  and  C_34
REMARK   14  A    between atoms: C_38  and  O_40
REMARK   15  A    between atoms: O_40  and  C_41
REMARK   16  A    between atoms: C_41  and  C_43
REMARK                            x       y       z     vdW  Elec       q    Type
REMARK                         _______ _______ _______ _____ _____    ______ ____
ROOT
ATOM      1  C   UNL     1      -0.315   1.293   1.653  0.00  0.00    +0.000 C 
ATOM      2  C   UNL     1      -0.565   1.129   0.138  0.00  0.00    +0.000 C 
ATOM      3  O   UNL     1      -0.510  -0.239  -0.231  0.00  0.00    +0.000 OA
ATOM      4  C   UNL     1       0.795  -0.752  -0.030  0.00  0.00    +0.000 C 
ATOM      5  C   UNL     1       1.129  -0.774   1.476  0.00  0.00    +0.000 C 
ATOM      6  C   UNL     1       1.044   0.663   2.026  0.00  0.00    +0.000 C 
ENDROOT
BRANCH   1   8
ATOM      7  C   UNL     1      -1.366   3.410   2.297  0.00  0.00    +0.000 C 
ATOM      8  N   UNL     1      -0.307   2.713   2.009  0.00  0.00    +0.000 NA
BRANCH   7  10
ATOM      9  H   UNL     1      -3.462   3.360   2.500  0.00  0.00    +0.000 HD
ATOM     10  O   UNL     1      -2.630   2.820   2.295  0.00  0.00    +0.000 OA
ENDBRANCH   7  10
BRANCH   7  11
ATOM     11  C   UNL     1      -1.224   4.866   2.604  0.00  0.00    +0.000 C 
ATOM     12 CL   UNL     1      -1.492   5.812   1.121  0.00  0.00    +0.000 Cl
ENDBRANCH   7  11
ENDBRANCH   1   8
BRANCH   2  13
ATOM     13  O   UNL     1      -1.856   1.638  -0.183  0.00  0.00    +0.000 OA
BRANCH  13  14
ATOM     14  C   UNL     1      -2.322   1.761  -1.496  0.00  0.00    +0.000 C 
ATOM     15  O   UNL     1      -1.613   1.389  -2.470  0.00  0.00    +0.000 OA
ATOM     16  C   UNL     1      -3.689   2.301  -1.741  0.00  0.00    +0.000 C 
ENDBRANCH  13  14
ENDBRANCH   2  13
BRANCH   4  17
ATOM     17  C   UNL     1       0.875  -2.162  -0.635  0.00  0.00    +0.000 C 
BRANCH  17  18
ATOM     18  O   UNL     1       0.553  -2.130  -2.025  0.00  0.00    +0.000 OA
BRANCH  18  19
ATOM     19  C   UNL     1       1.427  -1.656  -3.009  0.00  0.00    +0.000 C 
ATOM     20  O   UNL     1       2.594  -1.280  -2.713  0.00  0.00    +0.000 OA
ATOM     21  C   UNL     1       0.958  -1.558  -4.421  0.00  0.00    +0.000 C 
ENDBRANCH  18  19
ENDBRANCH  17  18
ENDBRANCH   4  17
BRANCH   5  22
ATOM     22  O   UNL     1       0.204  -1.627   2.159  0.00  0.00    +0.000 OA
BRANCH  22  23
ATOM     23  C   UNL     1       0.490  -2.284   3.361  0.00  0.00    +0.000 C 
ATOM     24  O   UNL     1       1.628  -2.192   3.895  0.00  0.00    +0.000 OA
ATOM     25  C   UNL     1      -0.579  -3.073   4.037  0.00  0.00    +0.000 C 
ENDBRANCH  22  23
ENDBRANCH   5  22
BRANCH   6  26
ATOM     26  O   UNL     1       1.211   0.641   3.446  0.00  0.00    +0.000 OA
BRANCH  26  27
ATOM     27  C   UNL     1       1.698   1.718   4.194  0.00  0.00    +0.000 C 
ATOM     28  O   UNL     1       2.135   2.757   3.628  0.00  0.00    +0.000 OA
ATOM     29  C   UNL     1       1.757   1.609   5.679  0.00  0.00    +0.000 C 
ENDBRANCH  26  27
ENDBRANCH   6  26
TORSDOF 12
