REMARK  Name = 5317448
REMARK  6 active torsions:
REMARK  status: ('A' for Active; 'I' for Inactive)
REMARK    1  A    between atoms: N_1  and  C_2
REMARK    2  A    between atoms: C_3  and  O_4
REMARK    3  A    between atoms: C_6  and  C_7
REMARK    4  A    between atoms: C_7  and  O_8
REMARK    5  A    between atoms: C_9  and  O_10
REMARK    6  A    between atoms: C_11  and  O_12
REMARK                            x       y       z     vdW  Elec       q    Type
REMARK                         _______ _______ _______ _____ _____    ______ ____
ROOT
ATOM      1  C   UNL     1      -1.083   1.072  -0.299  0.00  0.00    +0.000 C 
ATOM      2  C   UNL     1       0.334   1.437   0.193  0.00  0.00    +0.000 C 
ATOM      3  O   UNL     1       0.779   0.533   1.193  0.00  0.00    +0.000 OA
ATOM      4  C   UNL     1       0.908  -0.797   0.706  0.00  0.00    +0.000 C 
ATOM      5  C   UNL     1      -0.424  -1.345   0.127  0.00  0.00    +0.000 C 
ATOM      6  C   UNL     1      -1.081  -0.366  -0.867  0.00  0.00    +0.000 C 
ENDROOT
BRANCH   1   7
ATOM      7  N   UNL     1      -2.079   1.222   0.774  0.00  0.00    +0.000 N 
ATOM      8  H   UNL     1      -1.815   0.667   1.620  0.00  0.00    +0.000 HD
ATOM      9  H   UNL     1      -3.019   0.908   0.438  0.00  0.00    +0.000 HD
ATOM     10  H   UNL     1      -2.160   2.228   1.045  0.00  0.00    +0.000 HD
ENDBRANCH   1   7
BRANCH   2  11
ATOM     11  O   UNL     1       0.320   2.734   0.724  0.00  0.00    +0.000 OA
ATOM     12  H   UNL     1       1.263   2.962   0.938  0.00  0.00    +0.000 HD
ENDBRANCH   2  11
BRANCH   5  13
ATOM     13  O   UNL     1      -0.216  -2.597  -0.476  0.00  0.00    +0.000 OA
ATOM     14  H   UNL     1      -1.111  -3.014  -0.589  0.00  0.00    +0.000 HD
ENDBRANCH   5  13
BRANCH   6  15
ATOM     15  O   UNL     1      -0.399  -0.401  -2.095  0.00  0.00    +0.000 OA
ATOM     16  H   UNL     1      -1.004  -0.001  -2.773  0.00  0.00    +0.000 HD
ENDBRANCH   6  15
BRANCH   4  17
ATOM     17  C   UNL     1       2.133  -0.972  -0.223  0.00  0.00    +0.000 C 
BRANCH  17  18
ATOM     18  O   UNL     1       3.262  -0.355   0.333  0.00  0.00    +0.000 OA
ATOM     19  H   UNL     1       3.562  -0.932   1.083  0.00  0.00    +0.000 HD
ENDBRANCH  17  18
ENDBRANCH   4  17
TORSDOF 6
