REMARK  Name = 2733335
REMARK  9 active torsions:
REMARK  status: ('A' for Active; 'I' for Inactive)
REMARK    1  A    between atoms: O_2  and  C_3
REMARK    2  A    between atoms: N_4  and  C_5
REMARK    3  A    between atoms: C_7  and  O_9
REMARK    4  A    between atoms: C_12  and  C_14
REMARK    5  A    between atoms: C_14  and  O_17
REMARK    6  A    between atoms: C_19  and  O_21
REMARK    7  A    between atoms: C_23  and  O_25
REMARK    8  A    between atoms: N_27  and  N_28
REMARK    9  A    between atoms: N_27  and  C_30
REMARK                            x       y       z     vdW  Elec       q    Type
REMARK                         _______ _______ _______ _____ _____    ______ ____
ROOT
ATOM      1  C   UNL     1       0.977  -0.284  -0.167  0.00  0.00    +0.000 C 
ATOM      2  C   UNL     1      -0.150   0.202   0.772  0.00  0.00    +0.000 C 
ATOM      3  O   UNL     1      -1.432  -0.098   0.239  0.00  0.00    +0.000 OA
ATOM      4  C   UNL     1      -1.649   0.552  -1.004  0.00  0.00    +0.000 C 
ATOM      5  C   UNL     1      -0.639   0.061  -2.066  0.00  0.00    +0.000 C 
ATOM      6  C   UNL     1       0.794   0.318  -1.567  0.00  0.00    +0.000 C 
ENDROOT
BRANCH   1   8
ATOM      7  C   UNL     1       2.886  -0.370   1.412  0.00  0.00    +0.000 C 
ATOM      8  N   UNL     1       2.294   0.101   0.352  0.00  0.00    +0.000 NA
ATOM      9  N   UNL     1       2.300  -1.413   2.208  0.00  0.00    +0.000 N 
ATOM     10  C   UNL     1       2.279  -1.282   3.665  0.00  0.00    +0.000 C 
BRANCH   7  12
ATOM     11  H   UNL     1       4.622  -0.176   2.586  0.00  0.00    +0.000 HD
ATOM     12  O   UNL     1       4.114   0.171   1.781  0.00  0.00    +0.000 OA
ENDBRANCH   7  12
BRANCH   9  13
ATOM     13  N   UNL     1       2.001  -2.646   1.605  0.00  0.00    +0.000 NA
ATOM     14  O   UNL     1       1.589  -3.616   2.275  0.00  0.00    +0.000 OA
ENDBRANCH   9  13
ENDBRANCH   1   8
BRANCH   2  15
ATOM     15  O   UNL     1      -0.020   1.576   1.044  0.00  0.00    +0.000 OA
ATOM     16  H   UNL     1      -0.699   1.790   1.736  0.00  0.00    +0.000 HD
ENDBRANCH   2  15
BRANCH   5  17
ATOM     17  O   UNL     1      -0.852   0.750  -3.272  0.00  0.00    +0.000 OA
ATOM     18  H   UNL     1      -0.521   0.165  -4.003  0.00  0.00    +0.000 HD
ENDBRANCH   5  17
BRANCH   6  19
ATOM     19  O   UNL     1       1.721  -0.269  -2.445  0.00  0.00    +0.000 OA
ATOM     20  H   UNL     1       1.864   0.374  -3.188  0.00  0.00    +0.000 HD
ENDBRANCH   6  19
BRANCH   4  21
ATOM     21  C   UNL     1      -3.099   0.295  -1.442  0.00  0.00    +0.000 C 
BRANCH  21  22
ATOM     22  O   UNL     1      -3.361  -1.081  -1.535  0.00  0.00    +0.000 OA
ATOM     23  H   UNL     1      -3.187  -1.345  -2.475  0.00  0.00    +0.000 HD
ENDBRANCH  21  22
ENDBRANCH   4  21
TORSDOF 8
