REMARK  Name = 440271
REMARK  8 active torsions:
REMARK  status: ('A' for Active; 'I' for Inactive)
REMARK    1  A    between atoms: C_1  and  C_2
REMARK    2  A    between atoms: N_4  and  C_5
REMARK    3  A    between atoms: C_6  and  O_7
REMARK    4  A    between atoms: C_9  and  C_10
REMARK    5  A    between atoms: C_10  and  O_11
REMARK    6  A    between atoms: O_11  and  S_12
REMARK    7  A    between atoms: C_16  and  O_17
REMARK    8  A    between atoms: C_18  and  O_19
REMARK                            x       y       z     vdW  Elec       q    Type
REMARK                         _______ _______ _______ _____ _____    ______ ____
ROOT
ATOM      1  C   UNL     1      -1.067  -0.626  -1.095  0.00  0.00    +0.000 C 
ATOM      2  C   UNL     1      -0.997   0.703  -1.881  0.00  0.00    +0.000 C 
ATOM      3  O   UNL     1       0.307   1.262  -1.816  0.00  0.00    +0.000 OA
ATOM      4  C   UNL     1       0.632   1.610  -0.480  0.00  0.00    +0.000 C 
ATOM      5  C   UNL     1       0.724   0.343   0.400  0.00  0.00    +0.000 C 
ATOM      6  C   UNL     1      -0.630  -0.394   0.362  0.00  0.00    +0.000 C 
ENDROOT
BRANCH   1  10
ATOM      7  C   UNL     1      -4.271  -2.637  -2.055  0.00  0.00    +0.000 C 
ATOM      8  C   UNL     1      -2.840  -2.209  -2.015  0.00  0.00    +0.000 C 
ATOM      9  O   UNL     1      -2.005  -2.760  -2.782  0.00  0.00    +0.000 OA
ATOM     10  N   UNL     1      -2.434  -1.156  -1.129  0.00  0.00    +0.000 N 
ATOM     11  H   UNL     1      -3.174  -0.664  -0.576  0.00  0.00    +0.000 HD
ENDBRANCH   1  10
BRANCH   2  12
ATOM     12  O   UNL     1      -1.340   0.486  -3.225  0.00  0.00    +0.000 OA
ATOM     13  H   UNL     1      -0.613  -0.055  -3.630  0.00  0.00    +0.000 HD
ENDBRANCH   2  12
BRANCH   5  14
ATOM     14  O   UNL     1       1.748  -0.496  -0.077  0.00  0.00    +0.000 OA
ATOM     15  H   UNL     1       2.033  -1.066   0.684  0.00  0.00    +0.000 HD
ENDBRANCH   5  14
BRANCH   6  16
ATOM     16  O   UNL     1      -0.539  -1.628   1.028  0.00  0.00    +0.000 OA
ATOM     17  H   UNL     1      -0.494  -1.425   1.999  0.00  0.00    +0.000 HD
ENDBRANCH   6  16
BRANCH   4  18
ATOM     18  C   UNL     1       1.954   2.385  -0.473  0.00  0.00    +0.000 C 
BRANCH  18  19
ATOM     19  O   UNL     1       1.794   3.577  -1.205  0.00  0.00    +0.000 OA
BRANCH  19  20
ATOM     20  S   UNL     1       3.266   4.418  -1.196  0.00  0.00    +0.000 S 
ATOM     21  O   UNL     1       4.342   3.595  -1.849  0.00  0.00    +0.000 OA
ATOM     22  O   UNL     1       3.669   4.753   0.213  0.00  0.00    +0.000 OA
ATOM     23  O   UNL     1       3.076   5.845  -2.060  0.00  0.00    +0.000 OA
ENDBRANCH  19  20
ENDBRANCH  18  19
ENDBRANCH   4  18
TORSDOF 7
