REMARK  Name = 440235
REMARK  9 active torsions:
REMARK  status: ('A' for Active; 'I' for Inactive)
REMARK    1  A    between atoms: O_2  and  C_3
REMARK    2  A    between atoms: C_3  and  C_30
REMARK    3  A    between atoms: N_4  and  C_5
REMARK    4  A    between atoms: C_7  and  O_9
REMARK    5  A    between atoms: C_12  and  C_14
REMARK    6  A    between atoms: C_14  and  O_17
REMARK    7  A    between atoms: O_17  and  S_18
REMARK    8  A    between atoms: C_22  and  O_24
REMARK    9  A    between atoms: C_26  and  O_28
REMARK                            x       y       z     vdW  Elec       q    Type
REMARK                         _______ _______ _______ _____ _____    ______ ____
ROOT
ATOM      1  C   UNL     1      -0.279  -0.847   1.244  0.00  0.00    +0.000 C 
ATOM      2  C   UNL     1       0.329  -2.143   0.672  0.00  0.00    +0.000 C 
ATOM      3  O   UNL     1       1.510  -1.861  -0.061  0.00  0.00    +0.000 OA
ATOM      4  C   UNL     1       1.209  -1.091  -1.212  0.00  0.00    +0.000 C 
ATOM      5  C   UNL     1       0.666   0.298  -0.802  0.00  0.00    +0.000 C 
ATOM      6  C   UNL     1      -0.579   0.131   0.091  0.00  0.00    +0.000 C 
ENDROOT
BRANCH   1   8
ATOM      7  C   UNL     1      -2.015  -0.463   2.930  0.00  0.00    +0.000 C 
ATOM      8  N   UNL     1      -1.511  -1.174   1.966  0.00  0.00    +0.000 NA
ATOM      9  C   UNL     1      -3.298  -0.890   3.568  0.00  0.00    +0.000 C 
BRANCH   7  11
ATOM     10  H   UNL     1      -1.777   1.269   4.103  0.00  0.00    +0.000 HD
ATOM     11  O   UNL     1      -1.383   0.703   3.361  0.00  0.00    +0.000 OA
ENDBRANCH   7  11
ENDBRANCH   1   8
BRANCH   2  12
ATOM     12  O   UNL     1       0.633  -3.033   1.715  0.00  0.00    +0.000 OA
ATOM     13  H   UNL     1       1.388  -2.639   2.226  0.00  0.00    +0.000 HD
ENDBRANCH   2  12
BRANCH   5  14
ATOM     14  O   UNL     1       0.325   1.029  -1.954  0.00  0.00    +0.000 OA
ATOM     15  H   UNL     1       0.388   1.990  -1.716  0.00  0.00    +0.000 HD
ENDBRANCH   5  14
BRANCH   6  16
ATOM     16  O   UNL     1      -0.955   1.377   0.618  0.00  0.00    +0.000 OA
ATOM     17  H   UNL     1      -1.519   1.824  -0.066  0.00  0.00    +0.000 HD
ENDBRANCH   6  16
BRANCH   4  18
ATOM     18  C   UNL     1       2.486  -0.952  -2.049  0.00  0.00    +0.000 C 
BRANCH  18  19
ATOM     19  O   UNL     1       2.943  -2.233  -2.411  0.00  0.00    +0.000 OA
BRANCH  19  20
ATOM     20  S   UNL     1       4.344  -2.056  -3.346  0.00  0.00    +0.000 S 
ATOM     21  O   UNL     1       4.019  -1.360  -4.639  0.00  0.00    +0.000 OA
ATOM     22  O   UNL     1       4.898  -3.418  -3.652  0.00  0.00    +0.000 OA
ATOM     23  O   UNL     1       5.504  -1.175  -2.506  0.00  0.00    +0.000 OA
ENDBRANCH  19  20
ENDBRANCH  18  19
ENDBRANCH   4  18
TORSDOF 8
