REMARK  Name = 441477
REMARK  6 active torsions:
REMARK  status: ('A' for Active; 'I' for Inactive)
REMARK    1  A    between atoms: N_1  and  C_2
REMARK    2  A    between atoms: C_3  and  O_4
REMARK    3  A    between atoms: C_6  and  C_7
REMARK    4  A    between atoms: C_7  and  O_8
REMARK    5  A    between atoms: C_9  and  O_10
REMARK    6  A    between atoms: C_11  and  O_12
REMARK                            x       y       z     vdW  Elec       q    Type
REMARK                         _______ _______ _______ _____ _____    ______ ____
ROOT
ATOM      1  C   UNL     1       0.546  -1.511   0.184  0.00  0.00    +0.000 C 
ATOM      2  C   UNL     1      -0.371  -1.052   1.343  0.00  0.00    +0.000 C 
ATOM      3  O   UNL     1      -1.325  -0.106   0.887  0.00  0.00    +0.000 OA
ATOM      4  C   UNL     1      -0.684   1.082   0.457  0.00  0.00    +0.000 C 
ATOM      5  C   UNL     1       0.198   0.802  -0.782  0.00  0.00    +0.000 C 
ATOM      6  C   UNL     1       1.237  -0.284  -0.444  0.00  0.00    +0.000 C 
ENDROOT
BRANCH   1   7
ATOM      7  N   UNL     1       1.552  -2.454   0.681  0.00  0.00    +0.000 NA
ATOM      8  H   UNL     1       2.136  -2.775  -0.125  0.00  0.00    +0.000 HD
ATOM      9  H   UNL     1       1.064  -3.310   1.030  0.00  0.00    +0.000 HD
ENDBRANCH   1   7
BRANCH   2  10
ATOM     10  O   UNL     1      -1.047  -2.152   1.895  0.00  0.00    +0.000 OA
ATOM     11  H   UNL     1      -1.686  -2.478   1.209  0.00  0.00    +0.000 HD
ENDBRANCH   2  10
BRANCH   5  12
ATOM     12  O   UNL     1       0.856   1.982  -1.167  0.00  0.00    +0.000 OA
ATOM     13  H   UNL     1       1.057   1.899  -2.136  0.00  0.00    +0.000 HD
ENDBRANCH   5  12
BRANCH   6  14
ATOM     14  O   UNL     1       1.910  -0.677  -1.613  0.00  0.00    +0.000 OA
ATOM     15  H   UNL     1       2.645  -0.026  -1.757  0.00  0.00    +0.000 HD
ENDBRANCH   6  14
BRANCH   4  16
ATOM     16  C   UNL     1      -1.758   2.140   0.156  0.00  0.00    +0.000 C 
BRANCH  16  17
ATOM     17  O   UNL     1      -2.606   1.724  -0.882  0.00  0.00    +0.000 OA
ATOM     18  H   UNL     1      -3.256   1.088  -0.483  0.00  0.00    +0.000 HD
ENDBRANCH  16  17
ENDBRANCH   4  16
TORSDOF 6
