REMARK  Name = 6323218
REMARK  11 active torsions:
REMARK  status: ('A' for Active; 'I' for Inactive)
REMARK    1  A    between atoms: C_1  and  C_2
REMARK    2  A    between atoms: C_2  and  O_3
REMARK    3  A    between atoms: N_4  and  C_5
REMARK    4  A    between atoms: C_6  and  O_7
REMARK    5  A    between atoms: C_9  and  C_10
REMARK    6  A    between atoms: C_10  and  O_11
REMARK    7  A    between atoms: C_12  and  O_13
REMARK    8  A    between atoms: C_14  and  O_15
REMARK    9  A    between atoms: O_15  and  C_16
REMARK   10  A    between atoms: C_16  and  C_17
REMARK   11  A    between atoms: C_16  and  C_18
REMARK                            x       y       z     vdW  Elec       q    Type
REMARK                         _______ _______ _______ _____ _____    ______ ____
ROOT
ATOM      1  C   UNL     1      -1.129   1.137   0.666  0.00  0.00    +0.000 C 
ATOM      2  C   UNL     1      -1.022   2.673   0.703  0.00  0.00    +0.000 C 
ATOM      3  O   UNL     1      -1.228   3.237  -0.585  0.00  0.00    +0.000 OA
ATOM      4  C   UNL     1      -0.243   2.802  -1.511  0.00  0.00    +0.000 C 
ATOM      5  C   UNL     1      -0.298   1.263  -1.695  0.00  0.00    +0.000 C 
ATOM      6  C   UNL     1      -0.114   0.558  -0.339  0.00  0.00    +0.000 C 
ENDROOT
BRANCH   1   9
ATOM      7  C   UNL     1      -2.717  -1.037   1.984  0.00  0.00    +0.000 C 
ATOM      8  C   UNL     1      -1.536  -0.354   2.607  0.00  0.00    +0.000 C 
ATOM      9  N   UNL     1      -0.881   0.603   2.010  0.00  0.00    +0.000 NA
BRANCH   8  10
ATOM     10  O   UNL     1      -1.144  -0.746   3.884  0.00  0.00    +0.000 OA
ATOM     11  H   UNL     1      -0.355  -0.309   4.346  0.00  0.00    +0.000 HD
ENDBRANCH   8  10
ENDBRANCH   1   9
BRANCH   2  12
ATOM     12  O   UNL     1       0.210   3.081   1.247  0.00  0.00    +0.000 OA
ATOM     13  H   UNL     1       0.159   4.067   1.343  0.00  0.00    +0.000 HD
ENDBRANCH   2  12
BRANCH   5  14
ATOM     14  O   UNL     1       0.670   0.822  -2.615  0.00  0.00    +0.000 OA
ATOM     15  H   UNL     1       1.559   1.113  -2.281  0.00  0.00    +0.000 HD
ENDBRANCH   5  14
BRANCH   4  16
ATOM     16  C   UNL     1      -0.472   3.532  -2.841  0.00  0.00    +0.000 C 
BRANCH  16  17
ATOM     17  O   UNL     1      -1.752   3.254  -3.338  0.00  0.00    +0.000 OA
ATOM     18  H   UNL     1      -1.830   3.752  -4.193  0.00  0.00    +0.000 HD
ENDBRANCH  16  17
ENDBRANCH   4  16
BRANCH   6  19
ATOM     19  O   UNL     1      -0.347  -0.832  -0.518  0.00  0.00    +0.000 OA
BRANCH  19  20
ATOM     20  C   UNL     1       0.625  -1.631   0.137  0.00  0.00    +0.000 C 
ATOM     21  C   UNL     1       1.835  -1.853  -0.775  0.00  0.00    +0.000 C 
BRANCH  20  22
ATOM     22  C   UNL     1       0.008  -2.954   0.477  0.00  0.00    +0.000 C 
ATOM     23  O   UNL     1      -0.665  -3.583  -0.382  0.00  0.00    +0.000 OA
ATOM     24  O   UNL     1       0.199  -3.508   1.737  0.00  0.00    +0.000 OA
ENDBRANCH  20  22
ENDBRANCH  19  20
ENDBRANCH   6  19
TORSDOF 9
