REMARK  Name = 12600646
REMARK  9 active torsions:
REMARK  status: ('A' for Active; 'I' for Inactive)
REMARK    1  A    between atoms: N_2  and  N_3
REMARK    2  A    between atoms: N_3  and  C_4
REMARK    3  A    between atoms: C_4  and  C_5
REMARK    4  A    between atoms: N_9  and  C_10
REMARK    5  A    between atoms: C_11  and  O_12
REMARK    6  A    between atoms: C_14  and  C_15
REMARK    7  A    between atoms: C_15  and  O_16
REMARK    8  A    between atoms: C_17  and  O_18
REMARK    9  A    between atoms: C_19  and  O_20
REMARK                            x       y       z     vdW  Elec       q    Type
REMARK                         _______ _______ _______ _____ _____    ______ ____
ROOT
ATOM      1  C   UNL     1      -0.926  -0.692  -0.468  0.00  0.00    +0.000 C 
ATOM      2  C   UNL     1      -2.058  -1.121   0.492  0.00  0.00    +0.000 C 
ATOM      3  O   UNL     1      -2.022  -0.368   1.693  0.00  0.00    +0.000 OA
ATOM      4  C   UNL     1      -2.234   1.023   1.478  0.00  0.00    +0.000 C 
ATOM      5  C   UNL     1      -1.208   1.641   0.489  0.00  0.00    +0.000 C 
ATOM      6  C   UNL     1      -1.065   0.808  -0.798  0.00  0.00    +0.000 C 
ENDROOT
BRANCH   1  10
ATOM      7  N   UNL     1       2.879  -1.150  -0.046  0.00  0.00    +0.000 N 
ATOM      8  C   UNL     1       1.591  -0.997  -0.674  0.00  0.00    +0.000 C 
ATOM      9  O   UNL     1       1.513  -0.881  -1.928  0.00  0.00    +0.000 OA
ATOM     10  N   UNL     1       0.392  -0.972   0.118  0.00  0.00    +0.000 N 
ATOM     11  H   UNL     1       0.460  -1.185   1.139  0.00  0.00    +0.000 HD
BRANCH   7  13
ATOM     12  O   UNL     1       4.059  -1.173   1.951  0.00  0.00    +0.000 OA
ATOM     13  N   UNL     1       2.962  -1.117   1.358  0.00  0.00    +0.000 NA
ENDBRANCH   7  13
BRANCH   7  14
ATOM     14  C   UNL     1       4.102  -1.209  -0.859  0.00  0.00    +0.000 C 
BRANCH  14  15
ATOM     15  C   UNL     1       4.637   0.198  -1.112  0.00  0.00    +0.000 C 
ATOM     16 CL   UNL     1       6.121   0.123  -2.094  0.00  0.00    +0.000 Cl
ENDBRANCH  14  15
ENDBRANCH   7  14
ENDBRANCH   1  10
BRANCH   2  17
ATOM     17  O   UNL     1      -1.908  -2.477   0.820  0.00  0.00    +0.000 OA
ATOM     18  H   UNL     1      -2.161  -3.001   0.015  0.00  0.00    +0.000 HD
ENDBRANCH   2  17
BRANCH   5  19
ATOM     19  O   UNL     1       0.049   1.733   1.112  0.00  0.00    +0.000 OA
ATOM     20  H   UNL     1       0.018   2.521   1.716  0.00  0.00    +0.000 HD
ENDBRANCH   5  19
BRANCH   6  21
ATOM     21  O   UNL     1      -2.181   1.022  -1.625  0.00  0.00    +0.000 OA
ATOM     22  H   UNL     1      -1.932   0.704  -2.532  0.00  0.00    +0.000 HD
ENDBRANCH   6  21
BRANCH   4  23
ATOM     23  C   UNL     1      -3.701   1.362   1.138  0.00  0.00    +0.000 C 
BRANCH  23  24
ATOM     24  O   UNL     1      -4.564   0.825   2.104  0.00  0.00    +0.000 OA
ATOM     25  H   UNL     1      -4.703  -0.129   1.863  0.00  0.00    +0.000 HD
ENDBRANCH  23  24
ENDBRANCH   4  23
TORSDOF 9
