REMARK  Name = 445621
REMARK  6 active torsions:
REMARK  status: ('A' for Active; 'I' for Inactive)
REMARK    1  A    between atoms: N_1  and  C_2
REMARK    2  A    between atoms: C_3  and  O_4
REMARK    3  A    between atoms: C_6  and  C_7
REMARK    4  A    between atoms: C_7  and  O_8
REMARK    5  A    between atoms: C_9  and  O_10
REMARK    6  A    between atoms: C_11  and  O_12
REMARK                            x       y       z     vdW  Elec       q    Type
REMARK                         _______ _______ _______ _____ _____    ______ ____
ROOT
ATOM      1  C   UNL     1       0.647  -0.499  -1.326  0.00  0.00    +0.000 C 
ATOM      2  C   UNL     1      -0.730  -0.825  -0.699  0.00  0.00    +0.000 C 
ATOM      3  O   UNL     1      -1.622   0.268  -0.853  0.00  0.00    +0.000 OA
ATOM      4  C   UNL     1      -1.158   1.431  -0.182  0.00  0.00    +0.000 C 
ATOM      5  C   UNL     1       0.184   1.914  -0.790  0.00  0.00    +0.000 C 
ATOM      6  C   UNL     1       1.225   0.785  -0.714  0.00  0.00    +0.000 C 
ENDROOT
BRANCH   1   7
ATOM      7  N   UNL     1       1.592  -1.610  -1.179  0.00  0.00    +0.000 NA
ATOM      8  H   UNL     1       1.762  -1.801  -0.165  0.00  0.00    +0.000 HD
ATOM      9  H   UNL     1       1.170  -2.470  -1.598  0.00  0.00    +0.000 HD
ENDBRANCH   1   7
BRANCH   2  10
ATOM     10  O   UNL     1      -0.615  -1.179   0.660  0.00  0.00    +0.000 OA
ATOM     11  H   UNL     1      -0.470  -2.161   0.697  0.00  0.00    +0.000 HD
ENDBRANCH   2  10
BRANCH   5  12
ATOM     12  O   UNL     1       0.669   3.025  -0.077  0.00  0.00    +0.000 OA
ATOM     13  H   UNL     1       0.453   3.834  -0.610  0.00  0.00    +0.000 HD
ENDBRANCH   5  12
BRANCH   6  14
ATOM     14  O   UNL     1       2.383   1.153  -1.419  0.00  0.00    +0.000 OA
ATOM     15  H   UNL     1       2.904   1.755  -0.826  0.00  0.00    +0.000 HD
ENDBRANCH   6  14
BRANCH   4  16
ATOM     16  C   UNL     1      -2.250   2.508  -0.305  0.00  0.00    +0.000 C 
BRANCH  16  17
ATOM     17  O   UNL     1      -1.983   3.603   0.529  0.00  0.00    +0.000 OA
ATOM     18  H   UNL     1      -2.198   3.316   1.455  0.00  0.00    +0.000 HD
ENDBRANCH  16  17
ENDBRANCH   4  16
TORSDOF 6
