REMARK  Name = 408523
REMARK  14 active torsions:
REMARK  status: ('A' for Active; 'I' for Inactive)
REMARK    1  A    between atoms: C_1  and  C_2
REMARK    2  A    between atoms: C_2  and  O_4
REMARK    3  A    between atoms: O_4  and  C_5
REMARK    4  A    between atoms: C_5  and  C_6
REMARK    5  A    between atoms: C_8  and  O_9
REMARK    6  A    between atoms: O_9  and  C_10
REMARK    7  A    between atoms: C_10  and  C_11
REMARK    8  A    between atoms: C_13  and  N_14
REMARK    9  A    between atoms: C_15  and  O_16
REMARK   10  A    between atoms: O_16  and  C_17
REMARK   11  A    between atoms: C_17  and  C_18
REMARK   12  A    between atoms: C_20  and  O_21
REMARK   13  A    between atoms: O_21  and  C_22
REMARK   14  A    between atoms: C_22  and  C_23
REMARK                            x       y       z     vdW  Elec       q    Type
REMARK                         _______ _______ _______ _____ _____    ______ ____
ROOT
ATOM      1  C   UNL     1      -0.488  -1.495  -0.555  0.00  0.00    +0.000 C 
ATOM      2  O   UNL     1      -0.120  -1.965   0.729  0.00  0.00    +0.000 OA
ATOM      3  C   UNL     1      -1.057  -1.531   1.701  0.00  0.00    +0.000 C 
ATOM      4  C   UNL     1      -1.024   0.010   1.833  0.00  0.00    +0.000 C 
ATOM      5  C   UNL     1      -1.286   0.661   0.456  0.00  0.00    +0.000 C 
ATOM      6  C   UNL     1      -0.364   0.044  -0.613  0.00  0.00    +0.000 C 
ENDROOT
BRANCH   4   7
ATOM      7  N   UNL     1      -2.014   0.469   2.818  0.00  0.00    +0.000 N 
ATOM      8  H   UNL     1      -1.804   0.059   3.756  0.00  0.00    +0.000 HD
ATOM      9  H   UNL     1      -1.974   1.510   2.907  0.00  0.00    +0.000 HD
ATOM     10  H   UNL     1      -2.979   0.187   2.529  0.00  0.00    +0.000 HD
ENDBRANCH   4   7
BRANCH   1  11
ATOM     11  C   UNL     1       0.397  -2.178  -1.607  0.00  0.00    +0.000 C 
BRANCH  11  12
ATOM     12  O   UNL     1       0.220  -3.594  -1.568  0.00  0.00    +0.000 OA
BRANCH  12  14
ATOM     13  C   UNL     1      -1.042  -5.719  -1.908  0.00  0.00    +0.000 C 
ATOM     14  C   UNL     1      -0.899  -4.247  -2.094  0.00  0.00    +0.000 C 
ATOM     15  O   UNL     1      -1.805  -3.602  -2.689  0.00  0.00    +0.000 OA
ENDBRANCH  12  14
ENDBRANCH  11  12
ENDBRANCH   1  11
BRANCH   3  16
ATOM     16  O   UNL     1      -0.716  -2.116   2.955  0.00  0.00    +0.000 OA
BRANCH  16  17
ATOM     17  C   UNL     1      -0.762  -3.494   3.188  0.00  0.00    +0.000 C 
ATOM     18  C   UNL     1      -0.404  -4.023   4.535  0.00  0.00    +0.000 C 
ATOM     19  O   UNL     1      -1.143  -4.289   2.287  0.00  0.00    +0.000 OA
ENDBRANCH  16  17
ENDBRANCH   3  16
BRANCH   5  20
ATOM     20  O   UNL     1      -1.062   2.070   0.547  0.00  0.00    +0.000 OA
BRANCH  20  21
ATOM     21  C   UNL     1      -1.493   2.986  -0.419  0.00  0.00    +0.000 C 
ATOM     22  C   UNL     1      -1.169   4.431  -0.254  0.00  0.00    +0.000 C 
ATOM     23  O   UNL     1      -2.192   2.611  -1.399  0.00  0.00    +0.000 OA
ENDBRANCH  20  21
ENDBRANCH   5  20
BRANCH   6  24
ATOM     24  O   UNL     1       0.984   0.456  -0.360  0.00  0.00    +0.000 OA
BRANCH  24  25
ATOM     25  C   UNL     1       1.902   0.791  -1.361  0.00  0.00    +0.000 C 
ATOM     26  C   UNL     1       3.284   1.201  -0.981  0.00  0.00    +0.000 C 
ATOM     27  O   UNL     1       1.570   0.779  -2.578  0.00  0.00    +0.000 OA
ENDBRANCH  24  25
ENDBRANCH   6  24
TORSDOF 10
