REMARK  Name = 5300
REMARK  9 active torsions:
REMARK  status: ('A' for Active; 'I' for Inactive)
REMARK    1  A    between atoms: O_2  and  C_3
REMARK    2  A    between atoms: N_4  and  C_5
REMARK    3  A    between atoms: C_7  and  O_9
REMARK    4  A    between atoms: C_11  and  O_13
REMARK    5  A    between atoms: C_15  and  C_17
REMARK    6  A    between atoms: C_17  and  O_20
REMARK    7  A    between atoms: C_23  and  O_25
REMARK    8  A    between atoms: N_27  and  N_28
REMARK    9  A    between atoms: N_27  and  C_30
REMARK                            x       y       z     vdW  Elec       q    Type
REMARK                         _______ _______ _______ _____ _____    ______ ____
ROOT
ATOM      1  C   UNL     1      -0.531   0.680  -0.280  0.00  0.00    +0.000 C 
ATOM      2  C   UNL     1      -0.180   0.024   1.077  0.00  0.00    +0.000 C 
ATOM      3  C   UNL     1       0.023  -1.488   0.897  0.00  0.00    +0.000 C 
ATOM      4  C   UNL     1       1.014  -1.744  -0.266  0.00  0.00    +0.000 C 
ATOM      5  O   UNL     1       0.525  -1.164  -1.463  0.00  0.00    +0.000 OA
ATOM      6  C   UNL     1       0.489   0.249  -1.356  0.00  0.00    +0.000 C 
ENDROOT
BRANCH   1   8
ATOM      7  C   UNL     1      -1.443   2.858   0.434  0.00  0.00    +0.000 C 
ATOM      8  N   UNL     1      -0.536   2.143  -0.166  0.00  0.00    +0.000 NA
ATOM      9  N   UNL     1      -2.604   2.254   1.025  0.00  0.00    +0.000 N 
ATOM     10  C   UNL     1      -2.848   2.434   2.450  0.00  0.00    +0.000 C 
BRANCH   7  12
ATOM     11  H   UNL     1      -0.468   4.694   0.121  0.00  0.00    +0.000 HD
ATOM     12  O   UNL     1      -1.280   4.237   0.522  0.00  0.00    +0.000 OA
ENDBRANCH   7  12
BRANCH   9  13
ATOM     13  N   UNL     1      -3.656   1.787   0.219  0.00  0.00    +0.000 NA
ATOM     14  O   UNL     1      -3.596   1.843  -1.027  0.00  0.00    +0.000 OA
ENDBRANCH   9  13
ENDBRANCH   1   8
BRANCH   2  15
ATOM     15  O   UNL     1       0.993   0.589   1.608  0.00  0.00    +0.000 OA
ATOM     16  H   UNL     1       0.725   1.408   2.102  0.00  0.00    +0.000 HD
ENDBRANCH   2  15
BRANCH   3  17
ATOM     17  O   UNL     1      -1.220  -2.089   0.625  0.00  0.00    +0.000 OA
ATOM     18  H   UNL     1      -1.204  -2.994   1.034  0.00  0.00    +0.000 HD
ENDBRANCH   3  17
BRANCH   6  19
ATOM     19  O   UNL     1       0.101   0.768  -2.602  0.00  0.00    +0.000 OA
ATOM     20  H   UNL     1       0.415   1.709  -2.638  0.00  0.00    +0.000 HD
ENDBRANCH   6  19
BRANCH   4  21
ATOM     21  C   UNL     1       1.240  -3.245  -0.506  0.00  0.00    +0.000 C 
BRANCH  21  22
ATOM     22  O   UNL     1       1.735  -3.872   0.647  0.00  0.00    +0.000 OA
ATOM     23  H   UNL     1       2.688  -3.604   0.730  0.00  0.00    +0.000 HD
ENDBRANCH  21  22
ENDBRANCH   4  21
TORSDOF 8
