REMARK  Name = 312829
REMARK  15 active torsions:
REMARK  status: ('A' for Active; 'I' for Inactive)
REMARK    1  A    between atoms: C_1  and  C_2
REMARK    2  A    between atoms: N_4  and  C_5
REMARK    3  A    between atoms: C_6  and  O_7
REMARK    4  A    between atoms: O_7  and  C_8
REMARK    5  A    between atoms: C_8  and  C_9
REMARK    6  A    between atoms: C_12  and  C_13
REMARK    7  A    between atoms: C_13  and  O_14
REMARK    8  A    between atoms: O_14  and  C_15
REMARK    9  A    between atoms: C_15  and  C_16
REMARK   10  A    between atoms: C_18  and  O_19
REMARK   11  A    between atoms: O_19  and  C_20
REMARK   12  A    between atoms: C_20  and  C_21
REMARK   13  A    between atoms: C_23  and  O_24
REMARK   14  A    between atoms: O_24  and  C_25
REMARK   15  A    between atoms: C_25  and  C_26
REMARK                            x       y       z     vdW  Elec       q    Type
REMARK                         _______ _______ _______ _____ _____    ______ ____
ROOT
ATOM      1  C   UNL     1       0.213   1.343  -1.791  0.00  0.00    +0.000 C 
ATOM      2  C   UNL     1      -0.351   0.235  -2.706  0.00  0.00    +0.000 C 
ATOM      3  O   UNL     1       0.098  -1.036  -2.273  0.00  0.00    +0.000 OA
ATOM      4  C   UNL     1      -0.439  -1.351  -0.999  0.00  0.00    +0.000 C 
ATOM      5  C   UNL     1       0.114  -0.381   0.073  0.00  0.00    +0.000 C 
ATOM      6  C   UNL     1      -0.198   1.073  -0.329  0.00  0.00    +0.000 C 
ENDROOT
BRANCH   1  10
ATOM      7  C   UNL     1       3.889   2.631  -2.054  0.00  0.00    +0.000 C 
ATOM      8  C   UNL     1       2.395   2.639  -2.054  0.00  0.00    +0.000 C 
ATOM      9  O   UNL     1       1.779   3.733  -2.169  0.00  0.00    +0.000 OA
ATOM     10  N   UNL     1       1.676   1.406  -1.914  0.00  0.00    +0.000 N 
ATOM     11  H   UNL     1       2.228   0.525  -1.806  0.00  0.00    +0.000 HD
ENDBRANCH   1  10
BRANCH   2  12
ATOM     12  O   UNL     1       0.098   0.435  -4.046  0.00  0.00    +0.000 OA
BRANCH  12  13
ATOM     13  C   UNL     1      -0.388   1.444  -4.885  0.00  0.00    +0.000 C 
ATOM     14  C   UNL     1       0.190   1.604  -6.249  0.00  0.00    +0.000 C 
ATOM     15  O   UNL     1      -1.341   2.186  -4.520  0.00  0.00    +0.000 OA
ENDBRANCH  12  13
ENDBRANCH   2  12
BRANCH   4  16
ATOM     16  C   UNL     1      -0.066  -2.805  -0.677  0.00  0.00    +0.000 C 
BRANCH  16  17
ATOM     17  O   UNL     1      -0.724  -3.234   0.512  0.00  0.00    +0.000 OA
BRANCH  17  18
ATOM     18  C   UNL     1      -0.526  -4.497   1.073  0.00  0.00    +0.000 C 
ATOM     19  C   UNL     1      -1.232  -4.857   2.335  0.00  0.00    +0.000 C 
ATOM     20  O   UNL     1       0.211  -5.348   0.503  0.00  0.00    +0.000 OA
ENDBRANCH  17  18
ENDBRANCH  16  17
ENDBRANCH   4  16
BRANCH   5  21
ATOM     21  O   UNL     1      -0.496  -0.669   1.334  0.00  0.00    +0.000 OA
BRANCH  21  22
ATOM     22  C   UNL     1       0.092  -0.378   2.570  0.00  0.00    +0.000 C 
ATOM     23  C   UNL     1      -0.641  -0.705   3.826  0.00  0.00    +0.000 C 
ATOM     24  O   UNL     1       1.241   0.137   2.637  0.00  0.00    +0.000 OA
ENDBRANCH  21  22
ENDBRANCH   5  21
BRANCH   6  25
ATOM     25  O   UNL     1       0.477   1.969   0.554  0.00  0.00    +0.000 OA
BRANCH  25  26
ATOM     26  C   UNL     1       0.147   3.322   0.686  0.00  0.00    +0.000 C 
ATOM     27  C   UNL     1       0.947   4.183   1.602  0.00  0.00    +0.000 C 
ATOM     28  O   UNL     1      -0.844   3.808   0.077  0.00  0.00    +0.000 OA
ENDBRANCH  25  26
ENDBRANCH   6  25
TORSDOF 10
