REMARK  Name = 84265
REMARK  7 active torsions:
REMARK  status: ('A' for Active; 'I' for Inactive)
REMARK    1  A    between atoms: C_1  and  C_2
REMARK    2  A    between atoms: N_4  and  C_5
REMARK    3  A    between atoms: C_6  and  O_7
REMARK    4  A    between atoms: C_9  and  C_10
REMARK    5  A    between atoms: C_10  and  O_11
REMARK    6  A    between atoms: C_12  and  O_13
REMARK    7  A    between atoms: C_14  and  O_15
REMARK                            x       y       z     vdW  Elec       q    Type
REMARK                         _______ _______ _______ _____ _____    ______ ____
ROOT
ATOM      1  C   UNL     1      -0.648  -0.680  -0.259  0.00  0.00    +0.000 C 
ATOM      2  C   UNL     1       0.049  -1.987   0.182  0.00  0.00    +0.000 C 
ATOM      3  O   UNL     1      -0.723  -2.689   1.148  0.00  0.00    +0.000 OA
ATOM      4  C   UNL     1      -0.911  -1.918   2.326  0.00  0.00    +0.000 C 
ATOM      5  C   UNL     1      -1.726  -0.644   2.022  0.00  0.00    +0.000 C 
ATOM      6  C   UNL     1      -0.975   0.192   0.969  0.00  0.00    +0.000 C 
ENDROOT
BRANCH   1  10
ATOM      7  C   UNL     1       1.250   0.426  -3.483  0.00  0.00    +0.000 C 
ATOM      8  C   UNL     1       0.355  -0.350  -2.573  0.00  0.00    +0.000 C 
ATOM      9  O   UNL     1      -0.285  -1.338  -3.024  0.00  0.00    +0.000 OA
ATOM     10  N   UNL     1       0.198   0.057  -1.206  0.00  0.00    +0.000 N 
ATOM     11  H   UNL     1       0.688   0.926  -0.893  0.00  0.00    +0.000 HD
ENDBRANCH   1  10
BRANCH   2  12
ATOM     12  O   UNL     1       1.346  -1.726   0.660  0.00  0.00    +0.000 OA
ATOM     13  H   UNL     1       1.769  -2.610   0.817  0.00  0.00    +0.000 HD
ENDBRANCH   2  12
BRANCH   5  14
ATOM     14  O   UNL     1      -3.003  -0.995   1.546  0.00  0.00    +0.000 OA
ATOM     15  H   UNL     1      -3.600  -0.222   1.722  0.00  0.00    +0.000 HD
ENDBRANCH   5  14
BRANCH   6  16
ATOM     16  O   UNL     1      -1.749   1.293   0.571  0.00  0.00    +0.000 OA
ATOM     17  H   UNL     1      -1.732   1.941   1.323  0.00  0.00    +0.000 HD
ENDBRANCH   6  16
BRANCH   4  18
ATOM     18  C   UNL     1      -1.615  -2.782   3.379  0.00  0.00    +0.000 C 
BRANCH  18  19
ATOM     19  O   UNL     1      -0.805  -3.877   3.706  0.00  0.00    +0.000 OA
ATOM     20  H   UNL     1      -1.308  -4.397   4.386  0.00  0.00    +0.000 HD
ENDBRANCH  18  19
ENDBRANCH   4  18
TORSDOF 6
