REMARK  Name = ZINC000004027859
REMARK  5 active torsions:
REMARK  status: ('A' for Active; 'I' for Inactive)
REMARK    1  A    between atoms: C_1  and  C_2
REMARK    2  A    between atoms: N_4  and  C_5
REMARK    3  A    between atoms: C_6  and  O_7
REMARK    4  A    between atoms: C_10  and  C_11
REMARK    5  A    between atoms: C_21  and  O_22
REMARK                            x       y       z     vdW  Elec       q    Type
REMARK                         _______ _______ _______ _____ _____    ______ ____
ROOT
ATOM      1  C   UNL     1      -2.574   0.477  -0.554  0.00  0.00    +0.000 C 
ATOM      2  C   UNL     1      -1.288  -0.371  -0.448  0.00  0.00    +0.000 C 
ATOM      3  C   UNL     1      -0.087   0.564  -0.241  0.00  0.00    +0.000 C 
ATOM      4  O   UNL     1       1.097  -0.174  -0.015  0.00  0.00    +0.000 OA
ATOM      5  C   UNL     1       2.190   0.720   0.148  0.00  0.00    +0.000 C 
ATOM      6  O   UNL     1       2.018   1.534   1.300  0.00  0.00    +0.000 OA
ATOM      7  C   UNL     1       0.873   2.352   1.153  0.00  0.00    +0.000 C 
ATOM      8  C   UNL     1      -0.367   1.485   0.955  0.00  0.00    +0.000 C 
ATOM      9  O   UNL     1      -1.502   2.290   0.697  0.00  0.00    +0.000 OA
ATOM     10  C   UNL     1      -2.665   1.476   0.629  0.00  0.00    +0.000 C 
ENDROOT
BRANCH   5  11
ATOM     11  C   UNL     1       3.445  -0.093   0.324  0.00  0.00    +0.000 A 
ATOM     12  C   UNL     1       3.553  -0.994   1.398  0.00  0.00    +0.000 A 
ATOM     13  C   UNL     1       4.715  -1.753   1.569  0.00  0.00    +0.000 A 
ATOM     14  C   UNL     1       5.776  -1.620   0.670  0.00  0.00    +0.000 A 
ATOM     15  C   UNL     1       5.678  -0.728  -0.400  0.00  0.00    +0.000 A 
ATOM     16  C   UNL     1       4.519   0.034  -0.575  0.00  0.00    +0.000 A 
ENDBRANCH   5  11
BRANCH   1  20
ATOM     17  C   UNL     1      -5.311  -2.042  -1.725  0.00  0.00    +0.000 C 
ATOM     18  C   UNL     1      -4.118  -1.144  -1.760  0.00  0.00    +0.000 C 
ATOM     19  O   UNL     1      -3.434  -1.056  -2.815  0.00  0.00    +0.000 OA
ATOM     20  N   UNL     1      -3.757  -0.390  -0.594  0.00  0.00    +0.000 N 
ATOM     21  H   UNL     1      -4.380  -0.451   0.244  0.00  0.00    +0.000 HD
ENDBRANCH   1  20
BRANCH   2  22
ATOM     22  O   UNL     1      -1.400  -1.277   0.623  0.00  0.00    +0.000 OA
ATOM     23  H   UNL     1      -0.749  -2.008   0.453  0.00  0.00    +0.000 HD
ENDBRANCH   2  22
BRANCH  10  24
ATOM     24  O   UNL     1      -3.783   2.300   0.440  0.00  0.00    +0.000 OA
ATOM     25  H   UNL     1      -3.872   2.845   1.264  0.00  0.00    +0.000 HD
ENDBRANCH  10  24
TORSDOF 4
