REMARK  Name = 439174
REMARK  8 active torsions:
REMARK  status: ('A' for Active; 'I' for Inactive)
REMARK    1  A    between atoms: O_2  and  C_3
REMARK    2  A    between atoms: C_3  and  C_27
REMARK    3  A    between atoms: N_4  and  C_5
REMARK    4  A    between atoms: C_7  and  O_9
REMARK    5  A    between atoms: C_12  and  C_14
REMARK    6  A    between atoms: C_14  and  O_17
REMARK    7  A    between atoms: C_19  and  O_21
REMARK    8  A    between atoms: C_23  and  O_25
REMARK                            x       y       z     vdW  Elec       q    Type
REMARK                         _______ _______ _______ _____ _____    ______ ____
ROOT
ATOM      1  C   UNL     1       0.023  -0.127   0.343  0.00  0.00    +0.000 C 
ATOM      2  C   UNL     1       1.301   0.738   0.387  0.00  0.00    +0.000 C 
ATOM      3  O   UNL     1       1.757   0.871   1.723  0.00  0.00    +0.000 OA
ATOM      4  C   UNL     1       0.831   1.612   2.500  0.00  0.00    +0.000 C 
ATOM      5  C   UNL     1      -0.503   0.829   2.620  0.00  0.00    +0.000 C 
ATOM      6  C   UNL     1      -1.064   0.519   1.220  0.00  0.00    +0.000 C 
ENDROOT
BRANCH   1   8
ATOM      7  C   UNL     1      -0.079  -1.122  -1.895  0.00  0.00    +0.000 C 
ATOM      8  N   UNL     1      -0.473  -0.233  -1.032  0.00  0.00    +0.000 NA
ATOM      9  C   UNL     1      -0.644  -1.105  -3.279  0.00  0.00    +0.000 C 
BRANCH   7  11
ATOM     10  H   UNL     1       1.200  -2.763  -2.221  0.00  0.00    +0.000 HD
ATOM     11  O   UNL     1       0.878  -2.076  -1.550  0.00  0.00    +0.000 OA
ENDBRANCH   7  11
ENDBRANCH   1   8
BRANCH   2  12
ATOM     12  O   UNL     1       2.306   0.120  -0.369  0.00  0.00    +0.000 OA
ATOM     13  H   UNL     1       3.064   0.761  -0.406  0.00  0.00    +0.000 HD
ENDBRANCH   2  12
BRANCH   5  14
ATOM     14  O   UNL     1      -1.452   1.536   3.381  0.00  0.00    +0.000 OA
ATOM     15  H   UNL     1      -1.609   2.408   2.933  0.00  0.00    +0.000 HD
ENDBRANCH   5  14
BRANCH   6  16
ATOM     16  O   UNL     1      -2.161  -0.349   1.347  0.00  0.00    +0.000 OA
ATOM     17  H   UNL     1      -2.704  -0.253   0.521  0.00  0.00    +0.000 HD
ENDBRANCH   6  16
BRANCH   4  18
ATOM     18  C   UNL     1       1.462   1.861   3.877  0.00  0.00    +0.000 C 
BRANCH  18  19
ATOM     19  O   UNL     1       0.695   2.777   4.609  0.00  0.00    +0.000 OA
ATOM     20  H   UNL     1       1.149   2.878   5.486  0.00  0.00    +0.000 HD
ENDBRANCH  18  19
ENDBRANCH   4  18
TORSDOF 7
