REMARK  Name = 122253
REMARK  10 active torsions:
REMARK  status: ('A' for Active; 'I' for Inactive)
REMARK    1  A    between atoms: O_2  and  C_3
REMARK    2  A    between atoms: C_3  and  C_40
REMARK    3  A    between atoms: N_4  and  C_5
REMARK    4  A    between atoms: C_7  and  O_9
REMARK    5  A    between atoms: O_9  and  C_10
REMARK    6  A    between atoms: C_10  and  C_13
REMARK    7  A    between atoms: C_25  and  C_27
REMARK    8  A    between atoms: C_27  and  O_30
REMARK    9  A    between atoms: C_32  and  O_34
REMARK   10  A    between atoms: C_36  and  O_38
REMARK                            x       y       z     vdW  Elec       q    Type
REMARK                         _______ _______ _______ _____ _____    ______ ____
ROOT
ATOM      1  C   UNL     1       1.792   0.238   1.311  0.00  0.00    +0.000 C 
ATOM      2  C   UNL     1       0.354   0.434   0.769  0.00  0.00    +0.000 C 
ATOM      3  O   UNL     1      -0.086  -0.706   0.042  0.00  0.00    +0.000 OA
ATOM      4  C   UNL     1       0.742  -0.963  -1.082  0.00  0.00    +0.000 C 
ATOM      5  C   UNL     1       2.172  -1.325  -0.634  0.00  0.00    +0.000 C 
ATOM      6  C   UNL     1       2.749  -0.146   0.165  0.00  0.00    +0.000 C 
ENDROOT
BRANCH   1   8
ATOM      7  C   UNL     1       1.973   1.931   3.126  0.00  0.00    +0.000 C 
ATOM      8  N   UNL     1       2.277   1.469   1.946  0.00  0.00    +0.000 NA
ATOM      9  C   UNL     1       1.030   1.222   4.061  0.00  0.00    +0.000 C 
BRANCH   7  11
ATOM     10  H   UNL     1       2.316   3.560   4.418  0.00  0.00    +0.000 HD
ATOM     11  O   UNL     1       2.530   3.144   3.520  0.00  0.00    +0.000 OA
ENDBRANCH   7  11
ENDBRANCH   1   8
BRANCH   5  12
ATOM     12  O   UNL     1       2.150  -2.485   0.162  0.00  0.00    +0.000 OA
ATOM     13  H   UNL     1       3.046  -2.905   0.088  0.00  0.00    +0.000 HD
ENDBRANCH   5  12
BRANCH   6  14
ATOM     14  O   UNL     1       4.008  -0.500   0.679  0.00  0.00    +0.000 OA
ATOM     15  H   UNL     1       4.492   0.345   0.870  0.00  0.00    +0.000 HD
ENDBRANCH   6  14
BRANCH   2  16
ATOM     16  O   UNL     1       0.288   1.613  -0.025  0.00  0.00    +0.000 OA
BRANCH  16  17
ATOM     17  C   UNL     1      -1.032   2.120  -0.103  0.00  0.00    +0.000 C 
BRANCH  17  18
ATOM     18  C   UNL     1      -1.826   1.404  -1.164  0.00  0.00    +0.000 A 
ATOM     19  C   UNL     1      -2.850   0.511  -0.808  0.00  0.00    +0.000 A 
ATOM     20  C   UNL     1      -3.561  -0.175  -1.797  0.00  0.00    +0.000 A 
ATOM     21  C   UNL     1      -3.252   0.023  -3.146  0.00  0.00    +0.000 A 
ATOM     22  C   UNL     1      -2.230   0.905  -3.507  0.00  0.00    +0.000 A 
ATOM     23  C   UNL     1      -1.517   1.593  -2.521  0.00  0.00    +0.000 A 
ENDBRANCH  17  18
ENDBRANCH  16  17
ENDBRANCH   2  16
BRANCH   4  24
ATOM     24  C   UNL     1       0.106  -2.067  -1.940  0.00  0.00    +0.000 C 
BRANCH  24  25
ATOM     25  O   UNL     1      -0.201  -3.196  -1.164  0.00  0.00    +0.000 OA
ATOM     26  H   UNL     1       0.480  -3.888  -1.371  0.00  0.00    +0.000 HD
ENDBRANCH  24  25
ENDBRANCH   4  24
TORSDOF 9
