REMARK  Name = 198514
REMARK  16 active torsions:
REMARK  status: ('A' for Active; 'I' for Inactive)
REMARK    1  A    between atoms: O_2  and  C_3
REMARK    2  A    between atoms: C_3  and  N_7
REMARK    3  A    between atoms: N_7  and  C_9
REMARK    4  A    between atoms: C_11  and  O_13
REMARK    5  A    between atoms: O_13  and  C_14
REMARK    6  A    between atoms: C_14  and  C_16
REMARK    7  A    between atoms: C_21  and  C_23
REMARK    8  A    between atoms: C_23  and  O_26
REMARK    9  A    between atoms: O_26  and  C_27
REMARK   10  A    between atoms: C_27  and  C_29
REMARK   11  A    between atoms: C_33  and  O_35
REMARK   12  A    between atoms: O_35  and  C_36
REMARK   13  A    between atoms: C_36  and  C_38
REMARK   14  A    between atoms: C_42  and  O_44
REMARK   15  A    between atoms: O_44  and  C_45
REMARK   16  A    between atoms: C_45  and  C_47
REMARK                            x       y       z     vdW  Elec       q    Type
REMARK                         _______ _______ _______ _____ _____    ______ ____
ROOT
ATOM      1  C   UNL     1      -1.694   0.006  -0.916  0.00  0.00    +0.000 C 
ATOM      2  C   UNL     1      -2.503  -0.501   0.289  0.00  0.00    +0.000 C 
ATOM      3  O   UNL     1      -2.340   0.376   1.388  0.00  0.00    +0.000 OA
ATOM      4  C   UNL     1      -1.001   0.351   1.854  0.00  0.00    +0.000 C 
ATOM      5  C   UNL     1      -0.046   0.913   0.773  0.00  0.00    +0.000 C 
ATOM      6  C   UNL     1      -0.204   0.116  -0.536  0.00  0.00    +0.000 C 
ENDROOT
BRANCH   1   7
ATOM      7  N   UNL     1      -1.861  -0.912  -2.046  0.00  0.00    +0.000 N 
ATOM      8  H   UNL     1      -1.451  -1.871  -1.962  0.00  0.00    +0.000 HD
BRANCH   7   9
ATOM      9  C   UNL     1      -2.491  -0.539  -3.283  0.00  0.00    +0.000 C 
ATOM     10  C   UNL     1      -2.157  -1.169  -4.409  0.00  0.00    +0.000 C 
ATOM     11 BR   UNL     1      -2.962  -0.725  -6.086  0.00  0.00    +0.000 Br
BRANCH   9  13
ATOM     12  H   UNL     1      -3.840   0.886  -2.484  0.00  0.00    +0.000 HD
ATOM     13  O   UNL     1      -3.463   0.462  -3.322  0.00  0.00    +0.000 OA
ENDBRANCH   9  13
ENDBRANCH   7   9
ENDBRANCH   1   7
BRANCH   2  14
ATOM     14  O   UNL     1      -3.882  -0.544  -0.068  0.00  0.00    +0.000 OA
BRANCH  14  15
ATOM     15  C   UNL     1      -4.871  -1.063   0.773  0.00  0.00    +0.000 C 
ATOM     16  O   UNL     1      -4.571  -1.553   1.895  0.00  0.00    +0.000 OA
ATOM     17  C   UNL     1      -6.289  -1.082   0.313  0.00  0.00    +0.000 C 
ENDBRANCH  14  15
ENDBRANCH   2  14
BRANCH   4  18
ATOM     18  C   UNL     1      -0.942   1.185   3.146  0.00  0.00    +0.000 C 
BRANCH  18  19
ATOM     19  O   UNL     1       0.361   1.169   3.729  0.00  0.00    +0.000 OA
BRANCH  19  20
ATOM     20  C   UNL     1       0.894   0.064   4.401  0.00  0.00    +0.000 C 
ATOM     21  O   UNL     1       0.201  -0.971   4.597  0.00  0.00    +0.000 OA
ATOM     22  C   UNL     1       2.316   0.096   4.847  0.00  0.00    +0.000 C 
ENDBRANCH  19  20
ENDBRANCH  18  19
ENDBRANCH   4  18
BRANCH   5  23
ATOM     23  O   UNL     1       1.304   0.808   1.231  0.00  0.00    +0.000 OA
BRANCH  23  24
ATOM     24  C   UNL     1       2.347   1.629   0.790  0.00  0.00    +0.000 C 
ATOM     25  O   UNL     1       2.129   2.583  -0.006  0.00  0.00    +0.000 OA
ATOM     26  C   UNL     1       3.721   1.411   1.325  0.00  0.00    +0.000 C 
ENDBRANCH  23  24
ENDBRANCH   5  23
BRANCH   6  27
ATOM     27  O   UNL     1       0.513   0.781  -1.578  0.00  0.00    +0.000 OA
BRANCH  27  28
ATOM     28  C   UNL     1       1.077   0.129  -2.680  0.00  0.00    +0.000 C 
ATOM     29  O   UNL     1       1.070  -1.129  -2.763  0.00  0.00    +0.000 OA
ATOM     30  C   UNL     1       1.699   0.932  -3.769  0.00  0.00    +0.000 C 
ENDBRANCH  27  28
ENDBRANCH   6  27
TORSDOF 12
