REMARK  Name = 433580
REMARK  9 active torsions:
REMARK  status: ('A' for Active; 'I' for Inactive)
REMARK    1  A    between atoms: C_1  and  C_2
REMARK    2  A    between atoms: C_2  and  O_3
REMARK    3  A    between atoms: C_2  and  C_15
REMARK    4  A    between atoms: O_3  and  C_4
REMARK    5  A    between atoms: C_5  and  N_6
REMARK    6  A    between atoms: C_7  and  O_8
REMARK    7  A    between atoms: C_10  and  C_11
REMARK    8  A    between atoms: C_11  and  O_12
REMARK    9  A    between atoms: C_13  and  O_14
REMARK                            x       y       z     vdW  Elec       q    Type
REMARK                         _______ _______ _______ _____ _____    ______ ____
ROOT
ATOM      1  C   UNL     1       0.312  -0.983   0.324  0.00  0.00    +0.000 C 
ATOM      2  C   UNL     1       1.772  -0.774   0.788  0.00  0.00    +0.000 C 
ATOM      3  C   UNL     1       2.401   0.395   0.003  0.00  0.00    +0.000 C 
ATOM      4  O   UNL     1       1.643   1.585   0.157  0.00  0.00    +0.000 OA
ATOM      5  C   UNL     1       0.330   1.448  -0.368  0.00  0.00    +0.000 C 
ATOM      6  C   UNL     1      -0.455   0.350   0.393  0.00  0.00    +0.000 C 
ENDROOT
BRANCH   2   7
ATOM      7  N   UNL     1       1.825  -0.496   2.228  0.00  0.00    +0.000 NA
ATOM      8  H   UNL     1       1.509  -1.349   2.744  0.00  0.00    +0.000 HD
ATOM      9  H   UNL     1       2.825  -0.362   2.505  0.00  0.00    +0.000 HD
ENDBRANCH   2   7
BRANCH   3  10
ATOM     10  O   UNL     1       2.552   0.054  -1.353  0.00  0.00    +0.000 OA
ATOM     11  H   UNL     1       3.048   0.803  -1.776  0.00  0.00    +0.000 HD
ENDBRANCH   3  10
BRANCH   6  12
ATOM     12  O   UNL     1      -1.725   0.186  -0.185  0.00  0.00    +0.000 OA
ATOM     13  H   UNL     1      -2.306  -0.228   0.506  0.00  0.00    +0.000 HD
ENDBRANCH   6  12
BRANCH   1  14
ATOM     14  O   UNL     1      -0.344  -1.934   1.149  0.00  0.00    +0.000 OA
BRANCH  14  16
ATOM     15  C   UNL     1      -0.319  -4.239   1.791  0.00  0.00    +0.000 C 
ATOM     16  C   UNL     1      -0.221  -3.249   0.634  0.00  0.00    +0.000 C 
BRANCH  16  17
ATOM     17  C   UNL     1      -1.315  -3.521  -0.359  0.00  0.00    +0.000 C 
ATOM     18  O   UNL     1      -2.501  -3.175  -0.111  0.00  0.00    +0.000 OA
ATOM     19  O   UNL     1      -1.028  -4.186  -1.544  0.00  0.00    +0.000 OA
ENDBRANCH  16  17
ENDBRANCH  14  16
ENDBRANCH   1  14
BRANCH   5  20
ATOM     20  C   UNL     1      -0.366   2.812  -0.251  0.00  0.00    +0.000 C 
BRANCH  20  21
ATOM     21  O   UNL     1      -1.573   2.811  -0.961  0.00  0.00    +0.000 OA
ATOM     22  H   UNL     1      -1.972   3.710  -0.829  0.00  0.00    +0.000 HD
ENDBRANCH  20  21
ENDBRANCH   5  20
TORSDOF 8
