REMARK  Name = 134695375
REMARK  9 active torsions:
REMARK  status: ('A' for Active; 'I' for Inactive)
REMARK    1  A    between atoms: O_2  and  C_3
REMARK    2  A    between atoms: N_4  and  C_5
REMARK    3  A    between atoms: C_7  and  O_9
REMARK    4  A    between atoms: C_12  and  C_14
REMARK    5  A    between atoms: C_14  and  O_17
REMARK    6  A    between atoms: C_19  and  O_21
REMARK    7  A    between atoms: C_23  and  O_25
REMARK    8  A    between atoms: N_27  and  N_28
REMARK    9  A    between atoms: N_27  and  C_30
REMARK                            x       y       z     vdW  Elec       q    Type
REMARK                         _______ _______ _______ _____ _____    ______ ____
ROOT
ATOM      1  C   UNL     1      -0.609  -0.696  -0.238  0.00  0.00    +0.000 C 
ATOM      2  C   UNL     1      -1.542  -1.293   0.845  0.00  0.00    +0.000 C 
ATOM      3  O   UNL     1      -2.867  -0.818   0.678  0.00  0.00    +0.000 OA
ATOM      4  C   UNL     1      -3.421  -1.315  -0.529  0.00  0.00    +0.000 C 
ATOM      5  C   UNL     1      -2.668  -0.742  -1.760  0.00  0.00    +0.000 C 
ATOM      6  C   UNL     1      -1.153  -1.026  -1.647  0.00  0.00    +0.000 C 
ENDROOT
BRANCH   1   8
ATOM      7  C   UNL     1       0.355   1.369   0.686  0.00  0.00    +0.000 C 
ATOM      8  N   UNL     1      -0.496   0.757  -0.085  0.00  0.00    +0.000 NA
ATOM      9  N   UNL     1       0.349   2.807   0.761  0.00  0.00    +0.000 N 
ATOM     10  C   UNL     1      -0.584   3.592  -0.056  0.00  0.00    +0.000 C 
BRANCH   7  12
ATOM     11  H   UNL     1       1.961   1.070   2.033  0.00  0.00    +0.000 HD
ATOM     12  O   UNL     1       1.275   0.629   1.433  0.00  0.00    +0.000 OA
ENDBRANCH   7  12
BRANCH   9  13
ATOM     13  N   UNL     1       1.142   3.437   1.738  0.00  0.00    +0.000 NA
ATOM     14  O   UNL     1       1.103   4.673   1.916  0.00  0.00    +0.000 OA
ENDBRANCH   9  13
ENDBRANCH   1   8
BRANCH   2  15
ATOM     15  O   UNL     1      -1.099  -0.927   2.124  0.00  0.00    +0.000 OA
ATOM     16  H   UNL     1      -0.299  -1.482   2.323  0.00  0.00    +0.000 HD
ENDBRANCH   2  15
BRANCH   5  17
ATOM     17  O   UNL     1      -2.907   0.633  -1.951  0.00  0.00    +0.000 OA
ATOM     18  H   UNL     1      -2.769   1.098  -1.087  0.00  0.00    +0.000 HD
ENDBRANCH   5  17
BRANCH   6  19
ATOM     19  O   UNL     1      -0.923  -2.382  -1.938  0.00  0.00    +0.000 OA
ATOM     20  H   UNL     1       0.038  -2.470  -2.170  0.00  0.00    +0.000 HD
ENDBRANCH   6  19
BRANCH   4  21
ATOM     21  C   UNL     1      -4.928  -1.011  -0.573  0.00  0.00    +0.000 C 
BRANCH  21  22
ATOM     22  O   UNL     1      -5.188   0.355  -0.388  0.00  0.00    +0.000 OA
ATOM     23  H   UNL     1      -5.130   0.529   0.587  0.00  0.00    +0.000 HD
ENDBRANCH  21  22
ENDBRANCH   4  21
TORSDOF 8
