REMARK  Name = 129618
REMARK  16 active torsions:
REMARK  status: ('A' for Active; 'I' for Inactive)
REMARK    1  A    between atoms: O_2  and  C_3
REMARK    2  A    between atoms: C_3  and  N_7
REMARK    3  A    between atoms: N_7  and  C_9
REMARK    4  A    between atoms: C_11  and  O_13
REMARK    5  A    between atoms: O_13  and  C_14
REMARK    6  A    between atoms: C_14  and  C_16
REMARK    7  A    between atoms: C_21  and  C_23
REMARK    8  A    between atoms: C_23  and  O_26
REMARK    9  A    between atoms: O_26  and  C_27
REMARK   10  A    between atoms: C_27  and  C_29
REMARK   11  A    between atoms: C_33  and  O_35
REMARK   12  A    between atoms: O_35  and  C_36
REMARK   13  A    between atoms: C_36  and  C_38
REMARK   14  A    between atoms: C_42  and  O_44
REMARK   15  A    between atoms: O_44  and  C_45
REMARK   16  A    between atoms: C_45  and  C_47
REMARK                            x       y       z     vdW  Elec       q    Type
REMARK                         _______ _______ _______ _____ _____    ______ ____
ROOT
ATOM      1  C   UNL     1       1.289  -0.823  -0.575  0.00  0.00    +0.000 C 
ATOM      2  C   UNL     1       0.196  -1.422  -1.477  0.00  0.00    +0.000 C 
ATOM      3  O   UNL     1      -0.720  -0.412  -1.862  0.00  0.00    +0.000 OA
ATOM      4  C   UNL     1      -1.439   0.061  -0.736  0.00  0.00    +0.000 C 
ATOM      5  C   UNL     1      -0.480   0.779   0.246  0.00  0.00    +0.000 C 
ATOM      6  C   UNL     1       0.646  -0.184   0.667  0.00  0.00    +0.000 C 
ENDROOT
BRANCH   1   7
ATOM      7  N   UNL     1       2.235  -1.866  -0.167  0.00  0.00    +0.000 N 
ATOM      8  H   UNL     1       1.839  -2.786   0.131  0.00  0.00    +0.000 HD
BRANCH   7   9
ATOM      9  C   UNL     1       3.637  -1.596   0.013  0.00  0.00    +0.000 C 
ATOM     10  C   UNL     1       4.488  -2.555   0.405  0.00  0.00    +0.000 C 
ATOM     11 CL   UNL     1       3.999  -4.215   0.717  0.00  0.00    +0.000 Cl
BRANCH   9  13
ATOM     12  H   UNL     1       5.100  -0.069  -0.106  0.00  0.00    +0.000 HD
ATOM     13  O   UNL     1       4.122  -0.308  -0.224  0.00  0.00    +0.000 OA
ENDBRANCH   9  13
ENDBRANCH   7   9
ENDBRANCH   1   7
BRANCH   2  14
ATOM     14  O   UNL     1       0.805  -1.963  -2.646  0.00  0.00    +0.000 OA
BRANCH  14  15
ATOM     15  C   UNL     1       0.087  -2.661  -3.623  0.00  0.00    +0.000 C 
ATOM     16  O   UNL     1      -1.150  -2.867  -3.490  0.00  0.00    +0.000 OA
ATOM     17  C   UNL     1       0.804  -3.210  -4.809  0.00  0.00    +0.000 C 
ENDBRANCH  14  15
ENDBRANCH   2  14
BRANCH   4  18
ATOM     18  C   UNL     1      -2.543   1.006  -1.233  0.00  0.00    +0.000 C 
BRANCH  18  19
ATOM     19  O   UNL     1      -3.323   0.377  -2.249  0.00  0.00    +0.000 OA
BRANCH  19  20
ATOM     20  C   UNL     1      -4.255  -0.635  -1.991  0.00  0.00    +0.000 C 
ATOM     21  O   UNL     1      -4.532  -0.972  -0.808  0.00  0.00    +0.000 OA
ATOM     22  C   UNL     1      -4.967  -1.282  -3.129  0.00  0.00    +0.000 C 
ENDBRANCH  19  20
ENDBRANCH  18  19
ENDBRANCH   4  18
BRANCH   5  23
ATOM     23  O   UNL     1      -1.190   1.198   1.415  0.00  0.00    +0.000 OA
BRANCH  23  24
ATOM     24  C   UNL     1      -1.659   2.500   1.624  0.00  0.00    +0.000 C 
ATOM     25  O   UNL     1      -1.447   3.410   0.778  0.00  0.00    +0.000 OA
ATOM     26  C   UNL     1      -2.371   2.824   2.892  0.00  0.00    +0.000 C 
ENDBRANCH  23  24
ENDBRANCH   5  23
BRANCH   6  27
ATOM     27  O   UNL     1       1.651   0.525   1.395  0.00  0.00    +0.000 OA
BRANCH  27  28
ATOM     28  C   UNL     1       1.573   0.802   2.765  0.00  0.00    +0.000 C 
ATOM     29  O   UNL     1       0.632   0.341   3.467  0.00  0.00    +0.000 OA
ATOM     30  C   UNL     1       2.654   1.598   3.412  0.00  0.00    +0.000 C 
ENDBRANCH  27  28
ENDBRANCH   6  27
TORSDOF 12
