REMARK  Name = 439174
REMARK  8 active torsions:
REMARK  status: ('A' for Active; 'I' for Inactive)
REMARK    1  A    between atoms: O_2  and  C_3
REMARK    2  A    between atoms: C_3  and  C_27
REMARK    3  A    between atoms: N_4  and  C_5
REMARK    4  A    between atoms: C_7  and  O_9
REMARK    5  A    between atoms: C_12  and  C_14
REMARK    6  A    between atoms: C_14  and  O_17
REMARK    7  A    between atoms: C_19  and  O_21
REMARK    8  A    between atoms: C_23  and  O_25
REMARK                            x       y       z     vdW  Elec       q    Type
REMARK                         _______ _______ _______ _____ _____    ______ ____
ROOT
ATOM      1  C   UNL     1       0.189   0.893   0.821  0.00  0.00    +0.000 C 
ATOM      2  C   UNL     1      -0.584  -0.402   0.501  0.00  0.00    +0.000 C 
ATOM      3  O   UNL     1       0.242  -1.279  -0.247  0.00  0.00    +0.000 OA
ATOM      4  C   UNL     1       0.536  -0.726  -1.521  0.00  0.00    +0.000 C 
ATOM      5  C   UNL     1       1.397   0.555  -1.365  0.00  0.00    +0.000 C 
ATOM      6  C   UNL     1       0.660   1.576  -0.476  0.00  0.00    +0.000 C 
ENDROOT
BRANCH   1   8
ATOM      7  C   UNL     1      -1.723   2.372   1.397  0.00  0.00    +0.000 C 
ATOM      8  N   UNL     1      -0.584   1.806   1.674  0.00  0.00    +0.000 NA
ATOM      9  C   UNL     1      -2.362   3.264   2.412  0.00  0.00    +0.000 C 
BRANCH   7  11
ATOM     10  H   UNL     1      -3.265   2.564  -0.024  0.00  0.00    +0.000 HD
ATOM     11  O   UNL     1      -2.371   2.136   0.185  0.00  0.00    +0.000 OA
ENDBRANCH   7  11
ENDBRANCH   1   8
BRANCH   2  12
ATOM     12  O   UNL     1      -0.936  -1.029   1.705  0.00  0.00    +0.000 OA
ATOM     13  H   UNL     1      -1.508  -1.802   1.462  0.00  0.00    +0.000 HD
ENDBRANCH   2  12
BRANCH   5  14
ATOM     14  O   UNL     1       1.638   1.122  -2.628  0.00  0.00    +0.000 OA
ATOM     15  H   UNL     1       2.479   1.644  -2.555  0.00  0.00    +0.000 HD
ENDBRANCH   5  14
BRANCH   6  16
ATOM     16  O   UNL     1       1.518   2.640  -0.151  0.00  0.00    +0.000 OA
ATOM     17  H   UNL     1       1.492   3.277  -0.911  0.00  0.00    +0.000 HD
ENDBRANCH   6  16
BRANCH   4  18
ATOM     18  C   UNL     1       1.272  -1.800  -2.340  0.00  0.00    +0.000 C 
BRANCH  18  19
ATOM     19  O   UNL     1       1.430  -1.404  -3.676  0.00  0.00    +0.000 OA
ATOM     20  H   UNL     1       0.542  -1.500  -4.109  0.00  0.00    +0.000 HD
ENDBRANCH  18  19
ENDBRANCH   4  18
TORSDOF 7
