REMARK  Name = 57376616
REMARK  8 active torsions:
REMARK  status: ('A' for Active; 'I' for Inactive)
REMARK    1  A    between atoms: O_2  and  C_3
REMARK    2  A    between atoms: C_3  and  C_27
REMARK    3  A    between atoms: N_4  and  C_5
REMARK    4  A    between atoms: C_7  and  O_9
REMARK    5  A    between atoms: C_12  and  C_14
REMARK    6  A    between atoms: C_14  and  O_17
REMARK    7  A    between atoms: C_19  and  O_21
REMARK    8  A    between atoms: C_23  and  O_25
REMARK                            x       y       z     vdW  Elec       q    Type
REMARK                         _______ _______ _______ _____ _____    ______ ____
ROOT
ATOM      1  C   UNL     1       0.463   0.151  -1.034  0.00  0.00    +0.000 C 
ATOM      2  C   UNL     1      -0.641   1.221  -0.943  0.00  0.00    +0.000 C 
ATOM      3  O   UNL     1      -1.252   1.204   0.337  0.00  0.00    +0.000 OA
ATOM      4  C   UNL     1      -1.978  -0.001   0.521  0.00  0.00    +0.000 C 
ATOM      5  C   UNL     1      -1.013  -1.217   0.554  0.00  0.00    +0.000 C 
ATOM      6  C   UNL     1      -0.134  -1.239  -0.718  0.00  0.00    +0.000 C 
ENDROOT
BRANCH   1   8
ATOM      7  C   UNL     1       2.827   0.318  -0.295  0.00  0.00    +0.000 C 
ATOM      8  N   UNL     1       1.548   0.484  -0.102  0.00  0.00    +0.000 NA
ATOM      9  C   UNL     1       3.388  -0.218  -1.580  0.00  0.00    +0.000 C 
BRANCH   7  11
ATOM     10  H   UNL     1       3.382   1.050   1.596  0.00  0.00    +0.000 HD
ATOM     11  O   UNL     1       3.714   0.676   0.715  0.00  0.00    +0.000 OA
ENDBRANCH   7  11
ENDBRANCH   1   8
BRANCH   2  12
ATOM     12  O   UNL     1      -0.075   2.485  -1.164  0.00  0.00    +0.000 OA
ATOM     13  H   UNL     1      -0.830   3.129  -1.195  0.00  0.00    +0.000 HD
ENDBRANCH   2  12
BRANCH   5  14
ATOM     14  O   UNL     1      -0.223  -1.245   1.721  0.00  0.00    +0.000 OA
ATOM     15  H   UNL     1       0.162  -0.342   1.859  0.00  0.00    +0.000 HD
ENDBRANCH   5  14
BRANCH   6  16
ATOM     16  O   UNL     1       0.887  -2.194  -0.595  0.00  0.00    +0.000 OA
ATOM     17  H   UNL     1       0.455  -3.086  -0.660  0.00  0.00    +0.000 HD
ENDBRANCH   6  16
BRANCH   4  18
ATOM     18  C   UNL     1      -2.805   0.115   1.810  0.00  0.00    +0.000 C 
BRANCH  18  19
ATOM     19  O   UNL     1      -3.633  -1.006   1.973  0.00  0.00    +0.000 OA
ATOM     20  H   UNL     1      -3.117  -1.671   2.499  0.00  0.00    +0.000 HD
ENDBRANCH  18  19
ENDBRANCH   4  18
TORSDOF 7
