REMARK  Name = 254124
REMARK  8 active torsions:
REMARK  status: ('A' for Active; 'I' for Inactive)
REMARK    1  A    between atoms: C_1  and  O_2
REMARK    2  A    between atoms: O_2  and  C_3
REMARK    3  A    between atoms: C_5  and  C_6
REMARK    4  A    between atoms: C_6  and  O_7
REMARK    5  A    between atoms: C_8  and  O_9
REMARK    6  A    between atoms: C_10  and  O_11
REMARK    7  A    between atoms: C_12  and  N_13
REMARK    8  A    between atoms: C_14  and  C_15
REMARK                            x       y       z     vdW  Elec       q    Type
REMARK                         _______ _______ _______ _____ _____    ______ ____
ROOT
ATOM      1  C   UNL     1       0.201   0.886  -1.571  0.00  0.00    +0.000 C 
ATOM      2  O   UNL     1       0.538  -0.229  -0.758  0.00  0.00    +0.000 OA
ATOM      3  C   UNL     1       1.673   0.059   0.043  0.00  0.00    +0.000 C 
ATOM      4  C   UNL     1       1.341   1.184   1.056  0.00  0.00    +0.000 C 
ATOM      5  C   UNL     1       0.832   2.436   0.315  0.00  0.00    +0.000 C 
ATOM      6  C   UNL     1      -0.277   2.058  -0.690  0.00  0.00    +0.000 C 
ENDROOT
BRANCH   6   7
ATOM      7  N   UNL     1      -1.516   1.699   0.013  0.00  0.00    +0.000 N 
ATOM      8  C   UNL     1      -2.583   2.632   0.233  0.00  0.00    +0.000 C 
ATOM      9  C   UNL     1      -3.777   2.221   1.030  0.00  0.00    +0.000 C 
ATOM     10  O   UNL     1      -2.510   3.808  -0.217  0.00  0.00    +0.000 OA
ATOM     11  H   UNL     1      -1.588   0.758   0.463  0.00  0.00    +0.000 HD
ENDBRANCH   6   7
BRANCH   1  13
ATOM     12  C   UNL     1      -0.358  -0.305  -3.478  0.00  0.00    +0.000 C 
ATOM     13  O   UNL     1      -0.849   0.528  -2.449  0.00  0.00    +0.000 OA
ENDBRANCH   1  13
BRANCH   4  14
ATOM     14  O   UNL     1       2.458   1.505   1.850  0.00  0.00    +0.000 OA
ATOM     15  H   UNL     1       3.189   1.791   1.242  0.00  0.00    +0.000 HD
ENDBRANCH   4  14
BRANCH   5  16
ATOM     16  O   UNL     1       0.360   3.374   1.247  0.00  0.00    +0.000 OA
ATOM     17  H   UNL     1       0.280   4.239   0.765  0.00  0.00    +0.000 HD
ENDBRANCH   5  16
BRANCH   3  18
ATOM     18  C   UNL     1       2.091  -1.224   0.775  0.00  0.00    +0.000 C 
BRANCH  18  19
ATOM     19  O   UNL     1       2.454  -2.216  -0.148  0.00  0.00    +0.000 OA
ATOM     20  H   UNL     1       1.612  -2.634  -0.466  0.00  0.00    +0.000 HD
ENDBRANCH  18  19
ENDBRANCH   3  18
TORSDOF 6
