REMARK  Name = 198514
REMARK  16 active torsions:
REMARK  status: ('A' for Active; 'I' for Inactive)
REMARK    1  A    between atoms: O_2  and  C_3
REMARK    2  A    between atoms: C_3  and  C_47
REMARK    3  A    between atoms: N_4  and  C_5
REMARK    4  A    between atoms: C_7  and  O_9
REMARK    5  A    between atoms: O_9  and  C_10
REMARK    6  A    between atoms: C_10  and  C_12
REMARK    7  A    between atoms: C_17  and  C_19
REMARK    8  A    between atoms: C_19  and  O_22
REMARK    9  A    between atoms: O_22  and  C_23
REMARK   10  A    between atoms: C_23  and  C_25
REMARK   11  A    between atoms: C_29  and  O_31
REMARK   12  A    between atoms: O_31  and  C_32
REMARK   13  A    between atoms: C_32  and  C_34
REMARK   14  A    between atoms: C_38  and  O_40
REMARK   15  A    between atoms: O_40  and  C_41
REMARK   16  A    between atoms: C_41  and  C_43
REMARK                            x       y       z     vdW  Elec       q    Type
REMARK                         _______ _______ _______ _____ _____    ______ ____
ROOT
ATOM      1  C   UNL     1       0.263  -1.281   0.875  0.00  0.00    +0.000 C 
ATOM      2  C   UNL     1      -0.801  -1.238   1.993  0.00  0.00    +0.000 C 
ATOM      3  O   UNL     1      -1.533  -0.028   1.920  0.00  0.00    +0.000 OA
ATOM      4  C   UNL     1      -0.698   1.084   2.199  0.00  0.00    +0.000 C 
ATOM      5  C   UNL     1       0.389   1.226   1.105  0.00  0.00    +0.000 C 
ATOM      6  C   UNL     1       1.206  -0.070   1.030  0.00  0.00    +0.000 C 
ENDROOT
BRANCH   1   8
ATOM      7  C   UNL     1       1.579  -3.192  -0.005  0.00  0.00    +0.000 C 
ATOM      8  N   UNL     1       1.016  -2.534   0.969  0.00  0.00    +0.000 NA
BRANCH   7  10
ATOM      9  H   UNL     1       1.122  -1.879  -1.624  0.00  0.00    +0.000 HD
ATOM     10  O   UNL     1       1.552  -2.745  -1.330  0.00  0.00    +0.000 OA
ENDBRANCH   7  10
BRANCH   7  11
ATOM     11  C   UNL     1       2.289  -4.470   0.298  0.00  0.00    +0.000 C 
ATOM     12 BR   UNL     1       4.201  -4.176   0.305  0.00  0.00    +0.000 Br
ENDBRANCH   7  11
ENDBRANCH   1   8
BRANCH   2  13
ATOM     13  O   UNL     1      -1.724  -2.316   1.821  0.00  0.00    +0.000 OA
BRANCH  13  14
ATOM     14  C   UNL     1      -1.526  -3.606   2.327  0.00  0.00    +0.000 C 
ATOM     15  O   UNL     1      -0.547  -3.866   3.079  0.00  0.00    +0.000 OA
ATOM     16  C   UNL     1      -2.520  -4.674   2.018  0.00  0.00    +0.000 C 
ENDBRANCH  13  14
ENDBRANCH   2  13
BRANCH   4  17
ATOM     17  C   UNL     1      -1.578   2.335   2.297  0.00  0.00    +0.000 C 
BRANCH  17  18
ATOM     18  O   UNL     1      -2.240   2.574   1.057  0.00  0.00    +0.000 OA
BRANCH  18  19
ATOM     19  C   UNL     1      -3.085   3.667   0.852  0.00  0.00    +0.000 C 
ATOM     20  O   UNL     1      -3.290   4.505   1.772  0.00  0.00    +0.000 OA
ATOM     21  C   UNL     1      -3.708   3.872  -0.487  0.00  0.00    +0.000 C 
ENDBRANCH  18  19
ENDBRANCH  17  18
ENDBRANCH   4  17
BRANCH   5  22
ATOM     22  O   UNL     1       1.277   2.304   1.417  0.00  0.00    +0.000 OA
BRANCH  22  23
ATOM     23  C   UNL     1       1.203   3.574   0.832  0.00  0.00    +0.000 C 
ATOM     24  O   UNL     1       0.328   3.840  -0.036  0.00  0.00    +0.000 OA
ATOM     25  C   UNL     1       2.145   4.639   1.277  0.00  0.00    +0.000 C 
ENDBRANCH  22  23
ENDBRANCH   5  22
BRANCH   6  26
ATOM     26  O   UNL     1       2.101   0.016  -0.081  0.00  0.00    +0.000 OA
BRANCH  26  27
ATOM     27  C   UNL     1       3.434  -0.409  -0.046  0.00  0.00    +0.000 C 
ATOM     28  O   UNL     1       3.957  -0.819   1.025  0.00  0.00    +0.000 OA
ATOM     29  C   UNL     1       4.260  -0.328  -1.284  0.00  0.00    +0.000 C 
ENDBRANCH  26  27
ENDBRANCH   6  26
TORSDOF 12
