REMARK  Name = 84265
REMARK  7 active torsions:
REMARK  status: ('A' for Active; 'I' for Inactive)
REMARK    1  A    between atoms: C_1  and  C_2
REMARK    2  A    between atoms: N_4  and  C_5
REMARK    3  A    between atoms: C_6  and  O_7
REMARK    4  A    between atoms: C_9  and  C_10
REMARK    5  A    between atoms: C_10  and  O_11
REMARK    6  A    between atoms: C_12  and  O_13
REMARK    7  A    between atoms: C_14  and  O_15
REMARK                            x       y       z     vdW  Elec       q    Type
REMARK                         _______ _______ _______ _____ _____    ______ ____
ROOT
ATOM      1  C   UNL     1      -0.503  -0.799  -0.282  0.00  0.00    +0.000 C 
ATOM      2  C   UNL     1       0.176  -2.139   0.073  0.00  0.00    +0.000 C 
ATOM      3  O   UNL     1      -0.617  -2.900   0.975  0.00  0.00    +0.000 OA
ATOM      4  C   UNL     1      -0.811  -2.215   2.204  0.00  0.00    +0.000 C 
ATOM      5  C   UNL     1      -1.610  -0.908   1.981  0.00  0.00    +0.000 C 
ATOM      6  C   UNL     1      -0.842  -0.011   0.999  0.00  0.00    +0.000 C 
ENDROOT
BRANCH   1  10
ATOM      7  C   UNL     1      -0.709  -0.840  -3.331  0.00  0.00    +0.000 C 
ATOM      8  C   UNL     1       0.339  -0.065  -2.591  0.00  0.00    +0.000 C 
ATOM      9  O   UNL     1       1.207   0.568  -3.249  0.00  0.00    +0.000 OA
ATOM     10  N   UNL     1       0.370  -0.006  -1.156  0.00  0.00    +0.000 N 
ATOM     11  H   UNL     1       1.153   0.529  -0.716  0.00  0.00    +0.000 HD
ENDBRANCH   1  10
BRANCH   2  12
ATOM     12  O   UNL     1       1.468  -1.927   0.587  0.00  0.00    +0.000 OA
ATOM     13  H   UNL     1       1.881  -2.824   0.683  0.00  0.00    +0.000 HD
ENDBRANCH   2  12
BRANCH   5  14
ATOM     14  O   UNL     1      -2.885  -1.193   1.459  0.00  0.00    +0.000 OA
ATOM     15  H   UNL     1      -3.508  -1.259   2.229  0.00  0.00    +0.000 HD
ENDBRANCH   5  14
BRANCH   6  16
ATOM     16  O   UNL     1      -1.623   1.115   0.688  0.00  0.00    +0.000 OA
ATOM     17  H   UNL     1      -1.004   1.811   0.345  0.00  0.00    +0.000 HD
ENDBRANCH   6  16
BRANCH   4  18
ATOM     18  C   UNL     1      -1.524  -3.160   3.180  0.00  0.00    +0.000 C 
BRANCH  18  19
ATOM     19  O   UNL     1      -1.681  -2.541   4.428  0.00  0.00    +0.000 OA
ATOM     20  H   UNL     1      -2.152  -3.198   5.003  0.00  0.00    +0.000 HD
ENDBRANCH  18  19
ENDBRANCH   4  18
TORSDOF 6
