REMARK  Name = ZINC000004027857
REMARK  6 active torsions:
REMARK  status: ('A' for Active; 'I' for Inactive)
REMARK    1  A    between atoms: O_2  and  C_3
REMARK    2  A    between atoms: C_3  and  C_38
REMARK    3  A    between atoms: N_4  and  C_5
REMARK    4  A    between atoms: C_7  and  O_9
REMARK    5  A    between atoms: C_14  and  C_16
REMARK    6  A    between atoms: C_34  and  O_36
REMARK                            x       y       z     vdW  Elec       q    Type
REMARK                         _______ _______ _______ _____ _____    ______ ____
ROOT
ATOM      1  C   UNL     1      -0.807   2.018  -2.017  0.00  0.00    +0.000 C 
ATOM      2  C   UNL     1      -1.577   0.690  -1.816  0.00  0.00    +0.000 C 
ATOM      3  C   UNL     1      -1.446   0.250  -0.352  0.00  0.00    +0.000 C 
ATOM      4  O   UNL     1      -2.244  -0.891  -0.106  0.00  0.00    +0.000 OA
ATOM      5  C   UNL     1      -2.145  -1.309   1.254  0.00  0.00    +0.000 C 
ATOM      6  O   UNL     1      -2.513  -0.279   2.170  0.00  0.00    +0.000 OA
ATOM      7  C   UNL     1      -1.738   0.891   1.989  0.00  0.00    +0.000 C 
ATOM      8  C   UNL     1      -1.872   1.400   0.563  0.00  0.00    +0.000 C 
ATOM      9  O   UNL     1      -1.038   2.526   0.361  0.00  0.00    +0.000 OA
ATOM     10  C   UNL     1      -1.235   3.047  -0.946  0.00  0.00    +0.000 C 
ENDROOT
BRANCH   5  11
ATOM     11  C   UNL     1      -0.817  -1.976   1.590  0.00  0.00    +0.000 A 
ATOM     12  C   UNL     1      -0.092  -2.662   0.597  0.00  0.00    +0.000 A 
ATOM     13  C   UNL     1       1.098  -3.323   0.916  0.00  0.00    +0.000 A 
ATOM     14  C   UNL     1       1.563  -3.331   2.233  0.00  0.00    +0.000 A 
ATOM     15  C   UNL     1       0.832  -2.688   3.235  0.00  0.00    +0.000 A 
ATOM     16  C   UNL     1      -0.358  -2.026   2.920  0.00  0.00    +0.000 A 
ENDBRANCH   5  11
BRANCH   1  18
ATOM     17  C   UNL     1      -0.437   2.275  -4.453  0.00  0.00    +0.000 C 
ATOM     18  N   UNL     1      -1.065   2.570  -3.351  0.00  0.00    +0.000 NA
ATOM     19  C   UNL     1       0.720   1.312  -4.487  0.00  0.00    +0.000 C 
BRANCH  17  21
ATOM     20  H   UNL     1      -0.388   2.709  -6.516  0.00  0.00    +0.000 HD
ATOM     21  O   UNL     1      -0.845   2.894  -5.632  0.00  0.00    +0.000 OA
ENDBRANCH  17  21
ENDBRANCH   1  18
BRANCH   2  22
ATOM     22  O   UNL     1      -2.936   0.849  -2.144  0.00  0.00    +0.000 OA
ATOM     23  H   UNL     1      -3.013   0.729  -3.126  0.00  0.00    +0.000 HD
ENDBRANCH   2  22
BRANCH  10  24
ATOM     24  O   UNL     1      -0.456   4.203  -1.094  0.00  0.00    +0.000 OA
ATOM     25  H   UNL     1      -0.831   4.875  -0.466  0.00  0.00    +0.000 HD
ENDBRANCH  10  24
TORSDOF 5
