REMARK  Name = 102416
REMARK  10 active torsions:
REMARK  status: ('A' for Active; 'I' for Inactive)
REMARK    1  A    between atoms: O_2  and  C_3
REMARK    2  A    between atoms: C_3  and  C_39
REMARK    3  A    between atoms: N_4  and  C_5
REMARK    4  A    between atoms: C_7  and  O_9
REMARK    5  A    between atoms: O_9  and  C_10
REMARK    6  A    between atoms: C_15  and  N_16
REMARK    7  A    between atoms: C_24  and  C_26
REMARK    8  A    between atoms: C_26  and  O_29
REMARK    9  A    between atoms: C_31  and  O_33
REMARK   10  A    between atoms: C_35  and  O_37
REMARK                            x       y       z     vdW  Elec       q    Type
REMARK                         _______ _______ _______ _____ _____    ______ ____
ROOT
ATOM      1  C   UNL     1       1.850  -1.271   0.662  0.00  0.00    +0.000 C 
ATOM      2  C   UNL     1       0.525  -0.772   0.052  0.00  0.00    +0.000 C 
ATOM      3  O   UNL     1      -0.241  -0.096   1.035  0.00  0.00    +0.000 OA
ATOM      4  C   UNL     1      -0.660  -0.994   2.048  0.00  0.00    +0.000 C 
ATOM      5  C   UNL     1       0.564  -1.528   2.832  0.00  0.00    +0.000 C 
ATOM      6  C   UNL     1       1.541  -2.201   1.851  0.00  0.00    +0.000 C 
ENDROOT
BRANCH   1   8
ATOM      7  C   UNL     1       3.434  -1.470  -1.197  0.00  0.00    +0.000 C 
ATOM      8  N   UNL     1       2.627  -2.013  -0.335  0.00  0.00    +0.000 NA
ATOM      9  C   UNL     1       4.144  -2.336  -2.186  0.00  0.00    +0.000 C 
BRANCH   7  11
ATOM     10  H   UNL     1       4.243   0.342  -1.901  0.00  0.00    +0.000 HD
ATOM     11  O   UNL     1       3.628  -0.089  -1.221  0.00  0.00    +0.000 OA
ENDBRANCH   7  11
ENDBRANCH   1   8
BRANCH   5  12
ATOM     12  O   UNL     1       0.157  -2.472   3.790  0.00  0.00    +0.000 OA
ATOM     13  H   UNL     1       0.024  -1.984   4.644  0.00  0.00    +0.000 HD
ENDBRANCH   5  12
BRANCH   6  14
ATOM     14  O   UNL     1       2.723  -2.588   2.509  0.00  0.00    +0.000 OA
ATOM     15  H   UNL     1       3.159  -1.766   2.856  0.00  0.00    +0.000 HD
ENDBRANCH   6  14
BRANCH   2  16
ATOM     16  O   UNL     1       0.810   0.135  -1.011  0.00  0.00    +0.000 OA
BRANCH  16  17
ATOM     17  C   UNL     1      -0.147   0.690  -1.874  0.00  0.00    +0.000 A 
ATOM     18  C   UNL     1      -1.519   0.390  -1.780  0.00  0.00    +0.000 A 
ATOM     19  C   UNL     1      -2.431   0.971  -2.666  0.00  0.00    +0.000 A 
ATOM     20  C   UNL     1      -1.992   1.860  -3.662  0.00  0.00    +0.000 A 
ATOM     21  C   UNL     1      -0.620   2.156  -3.752  0.00  0.00    +0.000 A 
ATOM     22  C   UNL     1       0.290   1.574  -2.865  0.00  0.00    +0.000 A 
BRANCH  20  23
ATOM     23  N   UNL     1      -2.934   2.457  -4.572  0.00  0.00    +0.000 N 
ATOM     24  O   UNL     1      -2.550   3.247  -5.459  0.00  0.00    +0.000 OA
ATOM     25  O   UNL     1      -4.276   2.165  -4.480  0.00  0.00    +0.000 OA
ENDBRANCH  20  23
ENDBRANCH  16  17
ENDBRANCH   2  16
BRANCH   4  26
ATOM     26  C   UNL     1      -1.649  -0.263   2.965  0.00  0.00    +0.000 C 
BRANCH  26  27
ATOM     27  O   UNL     1      -1.036   0.848   3.560  0.00  0.00    +0.000 OA
ATOM     28  H   UNL     1      -1.727   1.267   4.136  0.00  0.00    +0.000 HD
ENDBRANCH  26  27
ENDBRANCH   4  26
TORSDOF 9
