REMARK  Name = 90220
REMARK  10 active torsions:
REMARK  status: ('A' for Active; 'I' for Inactive)
REMARK    1  A    between atoms: O_2  and  C_3
REMARK    2  A    between atoms: C_3  and  C_39
REMARK    3  A    between atoms: N_4  and  C_5
REMARK    4  A    between atoms: C_7  and  O_9
REMARK    5  A    between atoms: O_9  and  C_10
REMARK    6  A    between atoms: C_15  and  N_16
REMARK    7  A    between atoms: C_24  and  C_26
REMARK    8  A    between atoms: C_26  and  O_29
REMARK    9  A    between atoms: C_31  and  O_33
REMARK   10  A    between atoms: C_35  and  O_37
REMARK                            x       y       z     vdW  Elec       q    Type
REMARK                         _______ _______ _______ _____ _____    ______ ____
ROOT
ATOM      1  C   UNL     1       0.265   0.943  -1.381  0.00  0.00    +0.000 C 
ATOM      2  C   UNL     1      -0.745   0.271  -0.423  0.00  0.00    +0.000 C 
ATOM      3  O   UNL     1      -1.842   1.131  -0.143  0.00  0.00    +0.000 OA
ATOM      4  C   UNL     1      -1.419   2.319   0.509  0.00  0.00    +0.000 C 
ATOM      5  C   UNL     1      -0.511   3.155  -0.419  0.00  0.00    +0.000 C 
ATOM      6  C   UNL     1       0.711   2.303  -0.808  0.00  0.00    +0.000 C 
ENDROOT
BRANCH   1   8
ATOM      7  C   UNL     1       1.455  -0.983  -2.308  0.00  0.00    +0.000 C 
ATOM      8  N   UNL     1       1.440   0.090  -1.575  0.00  0.00    +0.000 NA
ATOM      9  C   UNL     1       2.719  -1.771  -2.431  0.00  0.00    +0.000 C 
BRANCH   7  11
ATOM     10  H   UNL     1       0.326  -2.207  -3.597  0.00  0.00    +0.000 HD
ATOM     11  O   UNL     1       0.318  -1.382  -3.010  0.00  0.00    +0.000 OA
ENDBRANCH   7  11
ENDBRANCH   1   8
BRANCH   5  12
ATOM     12  O   UNL     1      -1.215   3.536  -1.577  0.00  0.00    +0.000 OA
ATOM     13  H   UNL     1      -1.599   4.435  -1.403  0.00  0.00    +0.000 HD
ENDBRANCH   5  12
BRANCH   6  14
ATOM     14  O   UNL     1       1.546   2.994  -1.705  0.00  0.00    +0.000 OA
ATOM     15  H   UNL     1       1.063   3.085  -2.568  0.00  0.00    +0.000 HD
ENDBRANCH   6  14
BRANCH   2  16
ATOM     16  O   UNL     1      -0.093  -0.152   0.780  0.00  0.00    +0.000 OA
BRANCH  16  17
ATOM     17  C   UNL     1      -0.699  -0.895   1.805  0.00  0.00    +0.000 A 
ATOM     18  C   UNL     1      -2.026  -1.355   1.726  0.00  0.00    +0.000 A 
ATOM     19  C   UNL     1      -2.584  -2.084   2.781  0.00  0.00    +0.000 A 
ATOM     20  C   UNL     1      -1.827  -2.370   3.931  0.00  0.00    +0.000 A 
ATOM     21  C   UNL     1      -0.501  -1.911   4.003  0.00  0.00    +0.000 A 
ATOM     22  C   UNL     1       0.055  -1.181   2.948  0.00  0.00    +0.000 A 
BRANCH  20  23
ATOM     23  N   UNL     1      -2.397  -3.121   5.019  0.00  0.00    +0.000 N 
ATOM     24  O   UNL     1      -3.575  -3.531   4.961  0.00  0.00    +0.000 OA
ATOM     25  O   UNL     1      -1.653  -3.399   6.143  0.00  0.00    +0.000 OA
ENDBRANCH  20  23
ENDBRANCH  16  17
ENDBRANCH   2  16
BRANCH   4  26
ATOM     26  C   UNL     1      -2.658   3.114   0.946  0.00  0.00    +0.000 C 
BRANCH  26  27
ATOM     27  O   UNL     1      -3.422   2.365   1.853  0.00  0.00    +0.000 OA
ATOM     28  H   UNL     1      -2.945   2.398   2.723  0.00  0.00    +0.000 HD
ENDBRANCH  26  27
ENDBRANCH   4  26
TORSDOF 9
