REMARK  Name = ZINC000015205840
REMARK  10 active torsions:
REMARK  status: ('A' for Active; 'I' for Inactive)
REMARK    1  A    between atoms: O_2  and  C_3
REMARK    2  A    between atoms: C_3  and  C_39
REMARK    3  A    between atoms: N_4  and  C_5
REMARK    4  A    between atoms: C_7  and  O_9
REMARK    5  A    between atoms: O_9  and  C_10
REMARK    6  A    between atoms: C_19  and  N_20
REMARK    7  A    between atoms: C_24  and  C_26
REMARK    8  A    between atoms: C_26  and  O_29
REMARK    9  A    between atoms: C_31  and  O_33
REMARK   10  A    between atoms: C_35  and  O_37
REMARK                            x       y       z     vdW  Elec       q    Type
REMARK                         _______ _______ _______ _____ _____    ______ ____
ROOT
ATOM      1  C   UNL     1      -1.056   0.081  -0.160  0.00  0.00    +0.000 C 
ATOM      2  C   UNL     1       0.039  -0.973   0.125  0.00  0.00    +0.000 C 
ATOM      3  O   UNL     1      -0.417  -2.252  -0.278  0.00  0.00    +0.000 OA
ATOM      4  C   UNL     1      -1.496  -2.685   0.535  0.00  0.00    +0.000 C 
ATOM      5  C   UNL     1      -2.732  -1.786   0.301  0.00  0.00    +0.000 C 
ATOM      6  C   UNL     1      -2.384  -0.300   0.538  0.00  0.00    +0.000 C 
ENDROOT
BRANCH   1   8
ATOM      7  C   UNL     1      -1.131   2.527  -0.119  0.00  0.00    +0.000 C 
ATOM      8  N   UNL     1      -0.610   1.405   0.277  0.00  0.00    +0.000 NA
ATOM      9  C   UNL     1      -0.568   3.815   0.389  0.00  0.00    +0.000 C 
BRANCH   7  11
ATOM     10  H   UNL     1      -2.577   3.411  -1.367  0.00  0.00    +0.000 HD
ATOM     11  O   UNL     1      -2.178   2.540  -1.040  0.00  0.00    +0.000 OA
ENDBRANCH   7  11
ENDBRANCH   1   8
BRANCH   5  12
ATOM     12  O   UNL     1      -3.779  -2.178   1.151  0.00  0.00    +0.000 OA
ATOM     13  H   UNL     1      -4.608  -1.766   0.792  0.00  0.00    +0.000 HD
ENDBRANCH   5  12
BRANCH   6  14
ATOM     14  O   UNL     1      -2.364   0.018   1.911  0.00  0.00    +0.000 OA
ATOM     15  H   UNL     1      -1.644  -0.506   2.342  0.00  0.00    +0.000 HD
ENDBRANCH   6  14
BRANCH   2  16
ATOM     16  O   UNL     1       1.207  -0.674  -0.646  0.00  0.00    +0.000 OA
BRANCH  16  17
ATOM     17  C   UNL     1       2.194   0.287  -0.357  0.00  0.00    +0.000 A 
ATOM     18  C   UNL     1       2.291   0.899   0.912  0.00  0.00    +0.000 A 
ATOM     19  C   UNL     1       3.287   1.839   1.174  0.00  0.00    +0.000 A 
ATOM     20  C   UNL     1       4.207   2.177   0.186  0.00  0.00    +0.000 A 
ATOM     21  C   UNL     1       4.135   1.577  -1.071  0.00  0.00    +0.000 A 
ATOM     22  C   UNL     1       3.134   0.632  -1.363  0.00  0.00    +0.000 A 
BRANCH  22  23
ATOM     23  N   UNL     1       3.085   0.041  -2.679  0.00  0.00    +0.000 N 
ATOM     24  O   UNL     1       2.087  -0.603  -3.064  0.00  0.00    +0.000 OA
ATOM     25  O   UNL     1       4.125   0.226  -3.561  0.00  0.00    +0.000 OA
ENDBRANCH  22  23
ENDBRANCH  16  17
ENDBRANCH   2  16
BRANCH   4  26
ATOM     26  C   UNL     1      -1.815  -4.145   0.180  0.00  0.00    +0.000 C 
BRANCH  26  27
ATOM     27  O   UNL     1      -0.714  -4.968   0.459  0.00  0.00    +0.000 OA
ATOM     28  H   UNL     1      -0.092  -4.886  -0.311  0.00  0.00    +0.000 HD
ENDBRANCH  26  27
ENDBRANCH   4  26
TORSDOF 9
