REMARK  Name = ZINC000102205030
REMARK  11 active torsions:
REMARK  status: ('A' for Active; 'I' for Inactive)
REMARK    1  A    between atoms: O_2  and  C_3
REMARK    2  A    between atoms: C_3  and  C_35
REMARK    3  A    between atoms: N_4  and  C_5
REMARK    4  A    between atoms: C_7  and  O_9
REMARK    5  A    between atoms: C_11  and  O_13
REMARK    6  A    between atoms: C_15  and  C_17
REMARK    7  A    between atoms: C_17  and  O_20
REMARK    8  A    between atoms: C_23  and  O_25
REMARK    9  A    between atoms: O_25  and  C_26
REMARK   10  A    between atoms: C_26  and  C_29
REMARK   11  A    between atoms: C_29  and  N_32
REMARK                            x       y       z     vdW  Elec       q    Type
REMARK                         _______ _______ _______ _____ _____    ______ ____
ROOT
ATOM      1  C   UNL     1       0.365   0.749  -0.724  0.00  0.00    +0.000 C 
ATOM      2  C   UNL     1      -0.328   1.470   0.446  0.00  0.00    +0.000 C 
ATOM      3  C   UNL     1      -1.859   1.429   0.257  0.00  0.00    +0.000 C 
ATOM      4  C   UNL     1      -2.316  -0.025  -0.019  0.00  0.00    +0.000 C 
ATOM      5  O   UNL     1      -1.638  -0.539  -1.153  0.00  0.00    +0.000 OA
ATOM      6  C   UNL     1      -0.247  -0.656  -0.906  0.00  0.00    +0.000 C 
ENDROOT
BRANCH   1   8
ATOM      7  C   UNL     1       2.780   0.795  -1.296  0.00  0.00    +0.000 C 
ATOM      8  N   UNL     1       1.803   0.645  -0.448  0.00  0.00    +0.000 NA
ATOM      9  C   UNL     1       2.547   1.159  -2.738  0.00  0.00    +0.000 C 
BRANCH   7  11
ATOM     10  H   UNL     1       4.883   0.754  -1.446  0.00  0.00    +0.000 HD
ATOM     11  O   UNL     1       4.084   0.638  -0.835  0.00  0.00    +0.000 OA
ENDBRANCH   7  11
ENDBRANCH   1   8
BRANCH   2  12
ATOM     12  O   UNL     1       0.031   0.860   1.662  0.00  0.00    +0.000 OA
ATOM     13  H   UNL     1      -0.078   1.543   2.374  0.00  0.00    +0.000 HD
ENDBRANCH   2  12
BRANCH   3  14
ATOM     14  O   UNL     1      -2.499   1.932   1.401  0.00  0.00    +0.000 OA
ATOM     15  H   UNL     1      -2.377   2.917   1.386  0.00  0.00    +0.000 HD
ENDBRANCH   3  14
BRANCH   4  16
ATOM     16  C   UNL     1      -3.823  -0.097  -0.301  0.00  0.00    +0.000 C 
BRANCH  16  17
ATOM     17  O   UNL     1      -4.554   0.189   0.859  0.00  0.00    +0.000 OA
ATOM     18  H   UNL     1      -5.511   0.138   0.601  0.00  0.00    +0.000 HD
ENDBRANCH  16  17
ENDBRANCH   4  16
BRANCH   6  19
ATOM     19  O   UNL     1       0.357  -1.267  -2.034  0.00  0.00    +0.000 OA
BRANCH  19  20
ATOM     20  C   UNL     1       0.469  -2.671  -1.885  0.00  0.00    +0.000 C 
BRANCH  20  21
ATOM     21  C   UNL     1      -0.867  -3.385  -2.110  0.00  0.00    +0.000 C 
BRANCH  21  22
ATOM     22  N   UNL     1      -1.421  -3.018  -3.407  0.00  0.00    +0.000 NA
ATOM     23  N   UNL     1      -2.526  -2.483  -3.498  0.00  0.00    +0.000 NA
ATOM     24  N   UNL     1      -3.630  -1.948  -3.588  0.00  0.00    +0.000 NA
ENDBRANCH  21  22
ENDBRANCH  20  21
ENDBRANCH  19  20
ENDBRANCH   6  19
TORSDOF 10
