REMARK  Name = ZINC000015205840
REMARK  9 active torsions:
REMARK  status: ('A' for Active; 'I' for Inactive)
REMARK    1  A    between atoms: C_1  and  C_2
REMARK    2  A    between atoms: N_4  and  C_5
REMARK    3  A    between atoms: C_6  and  O_7
REMARK    4  A    between atoms: O_7  and  C_8
REMARK    5  A    between atoms: C_13  and  N_14
REMARK    6  A    between atoms: C_18  and  C_19
REMARK    7  A    between atoms: C_19  and  O_20
REMARK    8  A    between atoms: C_21  and  O_22
REMARK    9  A    between atoms: C_23  and  O_24
REMARK                            x       y       z     vdW  Elec       q    Type
REMARK                         _______ _______ _______ _____ _____    ______ ____
ROOT
ATOM      1  C   UNL     1      -0.983   0.643  -0.160  0.00  0.00    +0.000 C 
ATOM      2  C   UNL     1      -0.471  -0.815  -0.090  0.00  0.00    +0.000 C 
ATOM      3  O   UNL     1      -1.384  -1.667  -0.757  0.00  0.00    +0.000 OA
ATOM      4  C   UNL     1      -2.623  -1.727  -0.071  0.00  0.00    +0.000 C 
ATOM      5  C   UNL     1      -3.328  -0.348  -0.120  0.00  0.00    +0.000 C 
ATOM      6  C   UNL     1      -2.405   0.761   0.433  0.00  0.00    +0.000 C 
ENDROOT
BRANCH   1  10
ATOM      7  C   UNL     1       1.734   3.346   0.596  0.00  0.00    +0.000 C 
ATOM      8  C   UNL     1       0.744   2.523  -0.163  0.00  0.00    +0.000 C 
ATOM      9  O   UNL     1       0.669   2.647  -1.415  0.00  0.00    +0.000 OA
ATOM     10  N   UNL     1      -0.066   1.560   0.527  0.00  0.00    +0.000 N 
ATOM     11  H   UNL     1       0.062   1.459   1.560  0.00  0.00    +0.000 HD
ENDBRANCH   1  10
BRANCH   5  12
ATOM     12  O   UNL     1      -4.524  -0.387   0.615  0.00  0.00    +0.000 OA
ATOM     13  H   UNL     1      -5.055   0.405   0.339  0.00  0.00    +0.000 HD
ENDBRANCH   5  12
BRANCH   6  14
ATOM     14  O   UNL     1      -2.394   0.769   1.843  0.00  0.00    +0.000 OA
ATOM     15  H   UNL     1      -2.023  -0.094   2.158  0.00  0.00    +0.000 HD
ENDBRANCH   6  14
BRANCH   2  16
ATOM     16  O   UNL     1       0.783  -0.916  -0.773  0.00  0.00    +0.000 OA
BRANCH  16  17
ATOM     17  C   UNL     1       2.049  -0.550  -0.279  0.00  0.00    +0.000 A 
ATOM     18  C   UNL     1       2.301  -0.429   1.105  0.00  0.00    +0.000 A 
ATOM     19  C   UNL     1       3.569  -0.079   1.568  0.00  0.00    +0.000 A 
ATOM     20  C   UNL     1       4.605   0.149   0.666  0.00  0.00    +0.000 A 
ATOM     21  C   UNL     1       4.378   0.027  -0.704  0.00  0.00    +0.000 A 
ATOM     22  C   UNL     1       3.105  -0.319  -1.196  0.00  0.00    +0.000 A 
BRANCH  22  23
ATOM     23  N   UNL     1       2.904  -0.418  -2.622  0.00  0.00    +0.000 N 
ATOM     24  O   UNL     1       1.757  -0.446  -3.113  0.00  0.00    +0.000 OA
ATOM     25  O   UNL     1       3.983  -0.422  -3.476  0.00  0.00    +0.000 OA
ENDBRANCH  22  23
ENDBRANCH  16  17
ENDBRANCH   2  16
BRANCH   4  26
ATOM     26  C   UNL     1      -3.479  -2.815  -0.743  0.00  0.00    +0.000 C 
BRANCH  26  27
ATOM     27  O   UNL     1      -4.654  -3.060  -0.018  0.00  0.00    +0.000 OA
ATOM     28  H   UNL     1      -4.391  -3.583   0.783  0.00  0.00    +0.000 HD
ENDBRANCH  26  27
ENDBRANCH   4  26
TORSDOF 8
