REMARK  Name = ZINC000106384102
REMARK  10 active torsions:
REMARK  status: ('A' for Active; 'I' for Inactive)
REMARK    1  A    between atoms: O_2  and  C_3
REMARK    2  A    between atoms: C_3  and  C_40
REMARK    3  A    between atoms: N_4  and  C_5
REMARK    4  A    between atoms: C_7  and  O_9
REMARK    5  A    between atoms: O_9  and  C_10
REMARK    6  A    between atoms: C_19  and  C_20
REMARK    7  A    between atoms: C_25  and  C_27
REMARK    8  A    between atoms: C_27  and  O_30
REMARK    9  A    between atoms: C_32  and  O_34
REMARK   10  A    between atoms: C_36  and  O_38
REMARK                            x       y       z     vdW  Elec       q    Type
REMARK                         _______ _______ _______ _____ _____    ______ ____
ROOT
ATOM      1  C   UNL     1       1.446  -0.259   1.266  0.00  0.00    +0.000 C 
ATOM      2  C   UNL     1       0.474   0.210   0.165  0.00  0.00    +0.000 C 
ATOM      3  O   UNL     1      -0.729  -0.534   0.234  0.00  0.00    +0.000 OA
ATOM      4  C   UNL     1      -0.492  -1.896  -0.086  0.00  0.00    +0.000 C 
ATOM      5  C   UNL     1       0.433  -2.548   0.971  0.00  0.00    +0.000 C 
ATOM      6  C   UNL     1       1.752  -1.757   1.075  0.00  0.00    +0.000 C 
ENDROOT
BRANCH   1   8
ATOM      7  C   UNL     1       3.027   1.522   1.960  0.00  0.00    +0.000 C 
ATOM      8  N   UNL     1       2.692   0.513   1.206  0.00  0.00    +0.000 NA
ATOM      9  C   UNL     1       2.153   2.016   3.081  0.00  0.00    +0.000 C 
BRANCH   7  11
ATOM     10  H   UNL     1       4.575   2.912   2.300  0.00  0.00    +0.000 HD
ATOM     11  O   UNL     1       4.257   2.134   1.734  0.00  0.00    +0.000 OA
ENDBRANCH   7  11
ENDBRANCH   1   8
BRANCH   5  12
ATOM     12  O   UNL     1       0.699  -3.882   0.618  0.00  0.00    +0.000 OA
ATOM     13  H   UNL     1       1.067  -4.324   1.428  0.00  0.00    +0.000 HD
ENDBRANCH   5  12
BRANCH   6  14
ATOM     14  O   UNL     1       2.517  -1.963  -0.088  0.00  0.00    +0.000 OA
ATOM     15  H   UNL     1       3.469  -1.832   0.162  0.00  0.00    +0.000 HD
ENDBRANCH   6  14
BRANCH   2  16
ATOM     16  O   UNL     1       0.176   1.593   0.356  0.00  0.00    +0.000 OA
BRANCH  16  17
ATOM     17  C   UNL     1      -0.573   2.386  -0.532  0.00  0.00    +0.000 A 
ATOM     18  C   UNL     1      -1.123   1.861  -1.720  0.00  0.00    +0.000 A 
ATOM     19  C   UNL     1      -1.865   2.677  -2.576  0.00  0.00    +0.000 A 
ATOM     20  C   UNL     1      -2.068   4.021  -2.262  0.00  0.00    +0.000 A 
ATOM     21  C   UNL     1      -1.527   4.555  -1.091  0.00  0.00    +0.000 A 
ATOM     22  C   UNL     1      -0.775   3.747  -0.222  0.00  0.00    +0.000 A 
ATOM     23  C   UNL     1      -0.198   4.330   1.036  0.00  0.00    +0.000 C 
ENDBRANCH  16  17
ENDBRANCH   2  16
BRANCH   4  24
ATOM     24  C   UNL     1      -1.843  -2.618  -0.172  0.00  0.00    +0.000 C 
BRANCH  24  25
ATOM     25  O   UNL     1      -2.531  -2.516   1.045  0.00  0.00    +0.000 OA
ATOM     26  H   UNL     1      -3.388  -3.001   0.919  0.00  0.00    +0.000 HD
ENDBRANCH  24  25
ENDBRANCH   4  24
TORSDOF 8
