REMARK  Name = ZINC000015205814
REMARK  9 active torsions:
REMARK  status: ('A' for Active; 'I' for Inactive)
REMARK    1  A    between atoms: C_1  and  C_2
REMARK    2  A    between atoms: N_4  and  C_5
REMARK    3  A    between atoms: C_6  and  O_7
REMARK    4  A    between atoms: O_7  and  C_8
REMARK    5  A    between atoms: C_11  and  N_12
REMARK    6  A    between atoms: C_18  and  C_19
REMARK    7  A    between atoms: C_19  and  O_20
REMARK    8  A    between atoms: C_21  and  O_22
REMARK    9  A    between atoms: C_23  and  O_24
REMARK                            x       y       z     vdW  Elec       q    Type
REMARK                         _______ _______ _______ _____ _____    ______ ____
ROOT
ATOM      1  C   UNL     1      -0.258   1.188  -0.781  0.00  0.00    +0.000 C 
ATOM      2  C   UNL     1       1.169   0.623  -0.582  0.00  0.00    +0.000 C 
ATOM      3  O   UNL     1       2.093   1.694  -0.492  0.00  0.00    +0.000 OA
ATOM      4  C   UNL     1       2.167   2.409  -1.716  0.00  0.00    +0.000 C 
ATOM      5  C   UNL     1       0.816   3.104  -2.010  0.00  0.00    +0.000 C 
ATOM      6  C   UNL     1      -0.310   2.055  -2.052  0.00  0.00    +0.000 C 
ENDROOT
BRANCH   1  10
ATOM      7  C   UNL     1      -3.076  -1.371   0.092  0.00  0.00    +0.000 C 
ATOM      8  C   UNL     1      -2.172  -0.186   0.199  0.00  0.00    +0.000 C 
ATOM      9  O   UNL     1      -2.191   0.513   1.248  0.00  0.00    +0.000 OA
ATOM     10  N   UNL     1      -1.250   0.110  -0.861  0.00  0.00    +0.000 N 
ATOM     11  H   UNL     1      -1.229  -0.530  -1.687  0.00  0.00    +0.000 HD
ENDBRANCH   1  10
BRANCH   5  12
ATOM     12  O   UNL     1       0.866   3.783  -3.241  0.00  0.00    +0.000 OA
ATOM     13  H   UNL     1       1.119   4.724  -3.047  0.00  0.00    +0.000 HD
ENDBRANCH   5  12
BRANCH   6  14
ATOM     14  O   UNL     1      -0.174   1.243  -3.193  0.00  0.00    +0.000 OA
ATOM     15  H   UNL     1      -0.614   1.719  -3.945  0.00  0.00    +0.000 HD
ENDBRANCH   6  14
BRANCH   2  16
ATOM     16  O   UNL     1       1.235  -0.104   0.648  0.00  0.00    +0.000 OA
BRANCH  16  17
ATOM     17  C   UNL     1       0.850  -1.440   0.857  0.00  0.00    +0.000 A 
ATOM     18  C   UNL     1       0.597  -2.345  -0.193  0.00  0.00    +0.000 A 
ATOM     19  C   UNL     1       0.203  -3.657   0.085  0.00  0.00    +0.000 A 
ATOM     20  C   UNL     1       0.059  -4.095   1.413  0.00  0.00    +0.000 A 
ATOM     21  C   UNL     1       0.325  -3.193   2.457  0.00  0.00    +0.000 A 
ATOM     22  C   UNL     1       0.720  -1.883   2.178  0.00  0.00    +0.000 A 
BRANCH  20  23
ATOM     23  N   UNL     1      -0.353  -5.443   1.702  0.00  0.00    +0.000 N 
ATOM     24  O   UNL     1      -0.593  -6.248   0.778  0.00  0.00    +0.000 OA
ATOM     25  O   UNL     1      -0.492  -5.868   3.004  0.00  0.00    +0.000 OA
ENDBRANCH  20  23
ENDBRANCH  16  17
ENDBRANCH   2  16
BRANCH   4  26
ATOM     26  C   UNL     1       3.302   3.439  -1.605  0.00  0.00    +0.000 C 
BRANCH  26  27
ATOM     27  O   UNL     1       4.509   2.804  -1.279  0.00  0.00    +0.000 OA
ATOM     28  H   UNL     1       4.825   2.352  -2.105  0.00  0.00    +0.000 HD
ENDBRANCH  26  27
ENDBRANCH   4  26
TORSDOF 8
