REMARK  Name = ZINC000102863660
REMARK  12 active torsions:
REMARK  status: ('A' for Active; 'I' for Inactive)
REMARK    1  A    between atoms: O_2  and  C_3
REMARK    2  A    between atoms: C_3  and  C_39
REMARK    3  A    between atoms: N_4  and  C_5
REMARK    4  A    between atoms: C_7  and  O_9
REMARK    5  A    between atoms: O_9  and  C_10
REMARK    6  A    between atoms: C_10  and  C_11
REMARK    7  A    between atoms: C_10  and  C_15
REMARK    8  A    between atoms: C_10  and  C_19
REMARK    9  A    between atoms: C_24  and  C_26
REMARK   10  A    between atoms: C_26  and  O_29
REMARK   11  A    between atoms: C_31  and  O_33
REMARK   12  A    between atoms: C_35  and  O_37
REMARK                            x       y       z     vdW  Elec       q    Type
REMARK                         _______ _______ _______ _____ _____    ______ ____
ROOT
ATOM      1  C   UNL     1       0.573   0.549   0.565  0.00  0.00    +0.000 C 
ATOM      2  C   UNL     1       0.084  -0.100  -0.747  0.00  0.00    +0.000 C 
ATOM      3  O   UNL     1      -0.814   0.776  -1.408  0.00  0.00    +0.000 OA
ATOM      4  C   UNL     1      -2.001   0.949  -0.653  0.00  0.00    +0.000 C 
ATOM      5  C   UNL     1      -1.682   1.671   0.679  0.00  0.00    +0.000 C 
ATOM      6  C   UNL     1      -0.631   0.868   1.469  0.00  0.00    +0.000 C 
ENDROOT
BRANCH   1   8
ATOM      7  C   UNL     1       2.785  -0.346   1.253  0.00  0.00    +0.000 C 
ATOM      8  N   UNL     1       1.482  -0.362   1.271  0.00  0.00    +0.000 NA
ATOM      9  C   UNL     1       3.569   0.697   0.503  0.00  0.00    +0.000 C 
BRANCH   7  11
ATOM     10  H   UNL     1       4.478  -1.352   2.008  0.00  0.00    +0.000 HD
ATOM     11  O   UNL     1       3.466  -1.321   1.978  0.00  0.00    +0.000 OA
ENDBRANCH   7  11
ENDBRANCH   1   8
BRANCH   5  12
ATOM     12  O   UNL     1      -2.845   1.810   1.458  0.00  0.00    +0.000 OA
ATOM     13  H   UNL     1      -3.232   2.700   1.250  0.00  0.00    +0.000 HD
ENDBRANCH   5  12
BRANCH   6  14
ATOM     14  O   UNL     1      -1.193  -0.329   1.954  0.00  0.00    +0.000 OA
ATOM     15  H   UNL     1      -1.654  -0.110   2.805  0.00  0.00    +0.000 HD
ENDBRANCH   6  14
BRANCH   2  16
ATOM     16  O   UNL     1       1.205  -0.306  -1.591  0.00  0.00    +0.000 OA
BRANCH  16  17
ATOM     17  C   UNL     1       1.142  -1.471  -2.412  0.00  0.00    +0.000 C 
ATOM     18  C   UNL     1       2.304  -1.351  -3.412  0.00  0.00    +0.000 C 
ATOM     19  C   UNL     1      -0.174  -1.570  -3.224  0.00  0.00    +0.000 C 
ATOM     20  C   UNL     1       1.367  -2.751  -1.575  0.00  0.00    +0.000 C 
ENDBRANCH  16  17
ENDBRANCH   2  16
BRANCH   4  21
ATOM     21  C   UNL     1      -2.995   1.760  -1.496  0.00  0.00    +0.000 C 
BRANCH  21  22
ATOM     22  O   UNL     1      -3.220   1.131  -2.729  0.00  0.00    +0.000 OA
ATOM     23  H   UNL     1      -3.801   0.346  -2.546  0.00  0.00    +0.000 HD
ENDBRANCH  21  22
ENDBRANCH   4  21
TORSDOF 8
