REMARK  Name = ZINC000015205949
REMARK  9 active torsions:
REMARK  status: ('A' for Active; 'I' for Inactive)
REMARK    1  A    between atoms: C_1  and  C_2
REMARK    2  A    between atoms: N_4  and  C_5
REMARK    3  A    between atoms: C_6  and  O_7
REMARK    4  A    between atoms: C_8  and  O_9
REMARK    5  A    between atoms: C_10  and  C_11
REMARK    6  A    between atoms: C_11  and  O_12
REMARK    7  A    between atoms: C_14  and  O_15
REMARK    8  A    between atoms: O_15  and  C_16
REMARK    9  A    between atoms: C_19  and  N_20
REMARK                            x       y       z     vdW  Elec       q    Type
REMARK                         _______ _______ _______ _____ _____    ______ ____
ROOT
ATOM      1  C   UNL     1       1.251   0.746  -1.570  0.00  0.00    +0.000 C 
ATOM      2  C   UNL     1       0.373   0.645  -2.833  0.00  0.00    +0.000 C 
ATOM      3  C   UNL     1       0.678  -0.675  -3.562  0.00  0.00    +0.000 C 
ATOM      4  C   UNL     1       0.577  -1.864  -2.573  0.00  0.00    +0.000 C 
ATOM      5  O   UNL     1       1.457  -1.677  -1.472  0.00  0.00    +0.000 OA
ATOM      6  C   UNL     1       1.117  -0.531  -0.707  0.00  0.00    +0.000 C 
ENDROOT
BRANCH   1  10
ATOM      7  C   UNL     1       1.539   3.896   0.714  0.00  0.00    +0.000 C 
ATOM      8  C   UNL     1       1.935   2.712  -0.106  0.00  0.00    +0.000 C 
ATOM      9  O   UNL     1       3.146   2.360  -0.141  0.00  0.00    +0.000 OA
ATOM     10  N   UNL     1       0.934   1.954  -0.800  0.00  0.00    +0.000 N 
ATOM     11  H   UNL     1      -0.066   2.219  -0.653  0.00  0.00    +0.000 HD
ENDBRANCH   1  10
BRANCH   2  12
ATOM     12  O   UNL     1      -0.993   0.693  -2.498  0.00  0.00    +0.000 OA
ATOM     13  H   UNL     1      -1.300   1.627  -2.635  0.00  0.00    +0.000 HD
ENDBRANCH   2  12
BRANCH   3  14
ATOM     14  O   UNL     1      -0.225  -0.849  -4.624  0.00  0.00    +0.000 OA
ATOM     15  H   UNL     1       0.057  -0.227  -5.344  0.00  0.00    +0.000 HD
ENDBRANCH   3  14
BRANCH   4  16
ATOM     16  C   UNL     1       0.955  -3.188  -3.253  0.00  0.00    +0.000 C 
BRANCH  16  17
ATOM     17  O   UNL     1      -0.017  -3.551  -4.196  0.00  0.00    +0.000 OA
ATOM     18  H   UNL     1       0.298  -4.399  -4.603  0.00  0.00    +0.000 HD
ENDBRANCH  16  17
ENDBRANCH   4  16
BRANCH   6  19
ATOM     19  O   UNL     1      -0.199  -0.679  -0.155  0.00  0.00    +0.000 OA
BRANCH  19  20
ATOM     20  C   UNL     1      -0.707  -0.049   0.993  0.00  0.00    +0.000 A 
ATOM     21  C   UNL     1       0.105   0.614   1.933  0.00  0.00    +0.000 A 
ATOM     22  C   UNL     1      -0.467   1.230   3.050  0.00  0.00    +0.000 A 
ATOM     23  C   UNL     1      -1.857   1.189   3.257  0.00  0.00    +0.000 A 
ATOM     24  C   UNL     1      -2.661   0.515   2.324  0.00  0.00    +0.000 A 
ATOM     25  C   UNL     1      -2.089  -0.099   1.207  0.00  0.00    +0.000 A 
BRANCH  23  26
ATOM     26  N   UNL     1      -2.448   1.824   4.406  0.00  0.00    +0.000 N 
ATOM     27  O   UNL     1      -1.737   2.426   5.237  0.00  0.00    +0.000 OA
ATOM     28  O   UNL     1      -3.809   1.780   4.606  0.00  0.00    +0.000 OA
ENDBRANCH  23  26
ENDBRANCH  19  20
ENDBRANCH   6  19
TORSDOF 8
