REMARK  Name = ZINC000164373873
REMARK  7 active torsions:
REMARK  status: ('A' for Active; 'I' for Inactive)
REMARK    1  A    between atoms: C_1  and  O_2
REMARK    2  A    between atoms: O_2  and  C_3
REMARK    3  A    between atoms: C_5  and  C_6
REMARK    4  A    between atoms: C_6  and  O_7
REMARK    5  A    between atoms: C_8  and  O_9
REMARK    6  A    between atoms: C_10  and  O_11
REMARK    7  A    between atoms: C_12  and  N_13
REMARK                            x       y       z     vdW  Elec       q    Type
REMARK                         _______ _______ _______ _____ _____    ______ ____
ROOT
ATOM      1  C   UNL     1       0.635   0.109   0.178  0.00  0.00    +0.000 C 
ATOM      2  O   UNL     1       0.469   0.141   1.587  0.00  0.00    +0.000 OA
ATOM      3  C   UNL     1      -0.793  -0.384   1.963  0.00  0.00    +0.000 C 
ATOM      4  C   UNL     1      -0.864  -1.891   1.612  0.00  0.00    +0.000 C 
ATOM      5  C   UNL     1      -0.602  -2.093   0.109  0.00  0.00    +0.000 C 
ATOM      6  C   UNL     1       0.689  -1.356  -0.307  0.00  0.00    +0.000 C 
ENDROOT
BRANCH   6   7
ATOM      7  N   UNL     1       0.863  -1.412  -1.761  0.00  0.00    +0.000 NA
ATOM      8  H   UNL     1       0.901  -2.417  -2.049  0.00  0.00    +0.000 HD
ATOM      9  H   UNL     1       1.801  -1.015  -2.001  0.00  0.00    +0.000 HD
ENDBRANCH   6   7
BRANCH   1  11
ATOM     10  C   UNL     1       1.724   2.141  -0.056  0.00  0.00    +0.000 C 
ATOM     11  O   UNL     1       1.858   0.740  -0.151  0.00  0.00    +0.000 OA
ENDBRANCH   1  11
BRANCH   4  12
ATOM     12  O   UNL     1      -2.124  -2.411   1.951  0.00  0.00    +0.000 OA
ATOM     13  H   UNL     1      -2.033  -3.399   1.960  0.00  0.00    +0.000 HD
ENDBRANCH   4  12
BRANCH   5  14
ATOM     14  O   UNL     1      -1.702  -1.613  -0.627  0.00  0.00    +0.000 OA
ATOM     15  H   UNL     1      -1.726  -2.120  -1.480  0.00  0.00    +0.000 HD
ENDBRANCH   5  14
BRANCH   3  16
ATOM     16  C   UNL     1      -0.972  -0.150   3.469  0.00  0.00    +0.000 C 
BRANCH  16  17
ATOM     17  O   UNL     1      -2.286  -0.439   3.858  0.00  0.00    +0.000 OA
ATOM     18  H   UNL     1      -2.325  -0.280   4.837  0.00  0.00    +0.000 HD
ENDBRANCH  16  17
ENDBRANCH   3  16
TORSDOF 6
