REMARK  Name = ZINC000106381125
REMARK  13 active torsions:
REMARK  status: ('A' for Active; 'I' for Inactive)
REMARK    1  A    between atoms: O_2  and  C_3
REMARK    2  A    between atoms: C_3  and  C_42
REMARK    3  A    between atoms: N_4  and  C_5
REMARK    4  A    between atoms: C_7  and  O_9
REMARK    5  A    between atoms: O_9  and  C_10
REMARK    6  A    between atoms: C_10  and  C_11
REMARK    7  A    between atoms: C_10  and  C_15
REMARK    8  A    between atoms: C_10  and  C_19
REMARK    9  A    between atoms: C_19  and  C_22
REMARK   10  A    between atoms: C_27  and  C_29
REMARK   11  A    between atoms: C_29  and  O_32
REMARK   12  A    between atoms: C_34  and  O_36
REMARK   13  A    between atoms: C_38  and  O_40
REMARK                            x       y       z     vdW  Elec       q    Type
REMARK                         _______ _______ _______ _____ _____    ______ ____
ROOT
ATOM      1  C   UNL     1       2.081  -0.113   0.140  0.00  0.00    +0.000 C 
ATOM      2  C   UNL     1       0.568  -0.324   0.339  0.00  0.00    +0.000 C 
ATOM      3  O   UNL     1       0.238  -1.675   0.070  0.00  0.00    +0.000 OA
ATOM      4  C   UNL     1       0.441  -1.985  -1.298  0.00  0.00    +0.000 C 
ATOM      5  C   UNL     1       1.944  -1.890  -1.648  0.00  0.00    +0.000 C 
ATOM      6  C   UNL     1       2.477  -0.486  -1.306  0.00  0.00    +0.000 C 
ENDROOT
BRANCH   1   8
ATOM      7  C   UNL     1       3.558   1.744   0.855  0.00  0.00    +0.000 C 
ATOM      8  N   UNL     1       2.417   1.286   0.424  0.00  0.00    +0.000 NA
ATOM      9  C   UNL     1       4.719   0.840   1.170  0.00  0.00    +0.000 C 
BRANCH   7  11
ATOM     10  H   UNL     1       4.547   3.526   1.393  0.00  0.00    +0.000 HD
ATOM     11  O   UNL     1       3.687   3.116   1.050  0.00  0.00    +0.000 OA
ENDBRANCH   7  11
ENDBRANCH   1   8
BRANCH   5  12
ATOM     12  O   UNL     1       2.137  -2.159  -3.013  0.00  0.00    +0.000 OA
ATOM     13  H   UNL     1       3.105  -2.343  -3.134  0.00  0.00    +0.000 HD
ENDBRANCH   5  12
BRANCH   6  14
ATOM     14  O   UNL     1       1.952   0.450  -2.217  0.00  0.00    +0.000 OA
ATOM     15  H   UNL     1       2.591   1.209  -2.254  0.00  0.00    +0.000 HD
ENDBRANCH   6  14
BRANCH   2  16
ATOM     16  O   UNL     1       0.259  -0.050   1.699  0.00  0.00    +0.000 OA
BRANCH  16  17
ATOM     17  C   UNL     1      -0.965   0.654   1.919  0.00  0.00    +0.000 C 
ATOM     18  C   UNL     1      -1.126   0.768   3.448  0.00  0.00    +0.000 C 
ATOM     19  C   UNL     1      -0.887   2.101   1.368  0.00  0.00    +0.000 C 
BRANCH  17  20
ATOM     20  C   UNL     1      -2.207  -0.079   1.320  0.00  0.00    +0.000 C 
ATOM     21  C   UNL     1      -2.436  -1.487   1.881  0.00  0.00    +0.000 C 
ENDBRANCH  17  20
ENDBRANCH  16  17
ENDBRANCH   2  16
BRANCH   4  22
ATOM     22  C   UNL     1      -0.091  -3.402  -1.556  0.00  0.00    +0.000 C 
BRANCH  22  23
ATOM     23  O   UNL     1      -1.445  -3.489  -1.199  0.00  0.00    +0.000 OA
ATOM     24  H   UNL     1      -1.957  -3.019  -1.907  0.00  0.00    +0.000 HD
ENDBRANCH  22  23
ENDBRANCH   4  22
TORSDOF 9
