REMARK  Name = ZINC000032106887
REMARK  5 active torsions:
REMARK  status: ('A' for Active; 'I' for Inactive)
REMARK    1  A    between atoms: O_2  and  C_3
REMARK    2  A    between atoms: C_8  and  C_10
REMARK    3  A    between atoms: C_28  and  O_30
REMARK    4  A    between atoms: O_30  and  C_31
REMARK    5  A    between atoms: C_35  and  N_37
REMARK                            x       y       z     vdW  Elec       q    Type
REMARK                         _______ _______ _______ _____ _____    ______ ____
ROOT
ATOM      1  C   UNL     1      -1.800   1.433   0.752  0.00  0.00    +0.000 C 
ATOM      2  C   UNL     1      -0.418   0.929   1.249  0.00  0.00    +0.000 C 
ATOM      3  O   UNL     1       0.585   1.921   1.151  0.00  0.00    +0.000 OA
ATOM      4  C   UNL     1       1.885   1.409   1.474  0.00  0.00    +0.000 C 
ATOM      5  O   UNL     1       1.880   0.094   2.039  0.00  0.00    +0.000 OA
ATOM      6  C   UNL     1       1.267  -0.868   1.188  0.00  0.00    +0.000 C 
ATOM      7  C   UNL     1       0.029  -0.312   0.475  0.00  0.00    +0.000 C 
ATOM      8  O   UNL     1      -1.026  -1.248   0.426  0.00  0.00    +0.000 OA
ATOM      9  C   UNL     1      -2.079  -0.808  -0.439  0.00  0.00    +0.000 C 
ATOM     10  C   UNL     1      -2.233   0.747  -0.565  0.00  0.00    +0.000 C 
ENDROOT
BRANCH   4  11
ATOM     11  C   UNL     1       2.838   1.498   0.296  0.00  0.00    +0.000 A 
ATOM     12  C   UNL     1       4.183   1.130   0.475  0.00  0.00    +0.000 A 
ATOM     13  C   UNL     1       5.085   1.197  -0.591  0.00  0.00    +0.000 A 
ATOM     14  C   UNL     1       4.655   1.635  -1.845  0.00  0.00    +0.000 A 
ATOM     15  C   UNL     1       3.323   2.010  -2.036  0.00  0.00    +0.000 A 
ATOM     16  C   UNL     1       2.417   1.946  -0.973  0.00  0.00    +0.000 A 
ENDBRANCH   4  11
BRANCH  10  17
ATOM     17  N   UNL     1      -1.456   1.246  -1.704  0.00  0.00    +0.000 NA
ATOM     18  N   UNL     1      -1.613   2.386  -2.143  0.00  0.00    +0.000 NA
ATOM     19  N   UNL     1      -1.769   3.524  -2.582  0.00  0.00    +0.000 NA
ENDBRANCH  10  17
BRANCH   1  21
ATOM     20  H   UNL     1      -1.815   3.210   1.530  0.00  0.00    +0.000 HD
ATOM     21  O   UNL     1      -1.819   2.831   0.612  0.00  0.00    +0.000 OA
ENDBRANCH   1  21
BRANCH   9  22
ATOM     22  O   UNL     1      -1.916  -1.378  -1.727  0.00  0.00    +0.000 OA
ATOM     23  C   UNL     1      -2.216  -2.756  -1.695  0.00  0.00    +0.000 C 
ENDBRANCH   9  22
TORSDOF 4
