REMARK  Name = ZINC000102974493
REMARK  8 active torsions:
REMARK  status: ('A' for Active; 'I' for Inactive)
REMARK    1  A    between atoms: C_1  and  C_2
REMARK    2  A    between atoms: N_4  and  C_5
REMARK    3  A    between atoms: C_6  and  O_7
REMARK    4  A    between atoms: O_7  and  C_8
REMARK    5  A    between atoms: C_16  and  C_17
REMARK    6  A    between atoms: C_17  and  O_18
REMARK    7  A    between atoms: C_19  and  O_20
REMARK    8  A    between atoms: C_21  and  O_22
REMARK                            x       y       z     vdW  Elec       q    Type
REMARK                         _______ _______ _______ _____ _____    ______ ____
ROOT
ATOM      1  C   UNL     1      -0.866   0.582  -0.323  0.00  0.00    +0.000 C 
ATOM      2  C   UNL     1       0.125  -0.547  -0.695  0.00  0.00    +0.000 C 
ATOM      3  O   UNL     1      -0.109  -0.959  -2.031  0.00  0.00    +0.000 OA
ATOM      4  C   UNL     1      -1.386  -1.561  -2.166  0.00  0.00    +0.000 C 
ATOM      5  C   UNL     1      -2.497  -0.513  -1.897  0.00  0.00    +0.000 C 
ATOM      6  C   UNL     1      -2.315   0.088  -0.492  0.00  0.00    +0.000 C 
ENDROOT
BRANCH   1  10
ATOM      7  C   UNL     1       0.255   2.673   2.779  0.00  0.00    +0.000 C 
ATOM      8  C   UNL     1      -0.039   2.313   1.359  0.00  0.00    +0.000 C 
ATOM      9  O   UNL     1       0.301   3.104   0.439  0.00  0.00    +0.000 OA
ATOM     10  N   UNL     1      -0.647   1.050   1.051  0.00  0.00    +0.000 N 
ATOM     11  H   UNL     1      -0.860   0.401   1.842  0.00  0.00    +0.000 HD
ENDBRANCH   1  10
BRANCH   5  12
ATOM     12  O   UNL     1      -3.771  -1.101  -1.988  0.00  0.00    +0.000 OA
ATOM     13  H   UNL     1      -4.118  -0.914  -2.900  0.00  0.00    +0.000 HD
ENDBRANCH   5  12
BRANCH   6  14
ATOM     14  O   UNL     1      -2.611  -0.876   0.490  0.00  0.00    +0.000 OA
ATOM     15  H   UNL     1      -3.594  -0.857   0.629  0.00  0.00    +0.000 HD
ENDBRANCH   6  14
BRANCH   2  16
ATOM     16  O   UNL     1       1.466  -0.056  -0.626  0.00  0.00    +0.000 OA
BRANCH  16  17
ATOM     17  C   UNL     1       2.267   0.048   0.525  0.00  0.00    +0.000 A 
ATOM     18  C   UNL     1       1.949  -0.583   1.746  0.00  0.00    +0.000 A 
ATOM     19  C   UNL     1       2.783  -0.426   2.858  0.00  0.00    +0.000 A 
ATOM     20  C   UNL     1       3.941   0.351   2.764  0.00  0.00    +0.000 A 
ATOM     21 CL   UNL     1       4.981   0.550   4.162  0.00  0.00    +0.000 Cl
ATOM     22  C   UNL     1       4.269   0.968   1.553  0.00  0.00    +0.000 A 
ATOM     23  C   UNL     1       3.437   0.812   0.441  0.00  0.00    +0.000 A 
ENDBRANCH  16  17
ENDBRANCH   2  16
BRANCH   4  24
ATOM     24  C   UNL     1      -1.487  -2.139  -3.585  0.00  0.00    +0.000 C 
BRANCH  24  25
ATOM     25  O   UNL     1      -2.600  -2.984  -3.691  0.00  0.00    +0.000 OA
ATOM     26  H   UNL     1      -2.615  -3.303  -4.631  0.00  0.00    +0.000 HD
ENDBRANCH  24  25
ENDBRANCH   4  24
TORSDOF 7
