REMARK  Name = ZINC000101361998
REMARK  11 active torsions:
REMARK  status: ('A' for Active; 'I' for Inactive)
REMARK    1  A    between atoms: C_2  and  O_22
REMARK    2  A    between atoms: N_3  and  C_4
REMARK    3  A    between atoms: C_5  and  O_6
REMARK    4  A    between atoms: C_7  and  O_8
REMARK    5  A    between atoms: C_9  and  C_10
REMARK    6  A    between atoms: C_10  and  O_11
REMARK    7  A    between atoms: C_13  and  O_14
REMARK    8  A    between atoms: O_14  and  C_15
REMARK    9  A    between atoms: C_15  and  C_16
REMARK   10  A    between atoms: O_22  and  C_23
REMARK   11  A    between atoms: C_23  and  C_24
REMARK                            x       y       z     vdW  Elec       q    Type
REMARK                         _______ _______ _______ _____ _____    ______ ____
ROOT
ATOM      1  C   UNL     1      -1.200  -1.314  -1.188  0.00  0.00    +0.000 C 
ATOM      2  C   UNL     1      -2.486  -1.890  -1.809  0.00  0.00    +0.000 C 
ATOM      3  C   UNL     1      -2.757  -3.293  -1.222  0.00  0.00    +0.000 C 
ATOM      4  C   UNL     1      -2.705  -3.232   0.326  0.00  0.00    +0.000 C 
ATOM      5  O   UNL     1      -1.448  -2.734   0.755  0.00  0.00    +0.000 OA
ATOM      6  C   UNL     1      -1.277  -1.383   0.349  0.00  0.00    +0.000 C 
ENDROOT
BRANCH   1   9
ATOM      7  O   UNL     1       1.184  -0.259  -2.419  0.00  0.00    +0.000 OA
ATOM      8  C   UNL     1       0.262   0.551  -2.124  0.00  0.00    +0.000 C 
ATOM      9  N   UNL     1      -0.992   0.072  -1.622  0.00  0.00    +0.000 N 
ATOM     10  H   UNL     1      -1.737   0.780  -1.423  0.00  0.00    +0.000 HD
BRANCH   8  11
ATOM     11  O   UNL     1       0.445   1.927  -2.296  0.00  0.00    +0.000 OA
BRANCH  11  12
ATOM     12  C   UNL     1       1.658   2.503  -2.775  0.00  0.00    +0.000 C 
BRANCH  12  13
ATOM     13  C   UNL     1       2.728   2.441  -1.719  0.00  0.00    +0.000 A 
ATOM     14  C   UNL     1       2.693   3.328  -0.632  0.00  0.00    +0.000 A 
ATOM     15  C   UNL     1       3.686   3.272   0.351  0.00  0.00    +0.000 A 
ATOM     16  C   UNL     1       4.706   2.316   0.267  0.00  0.00    +0.000 A 
ATOM     17  C   UNL     1       4.740   1.421  -0.805  0.00  0.00    +0.000 A 
ATOM     18  C   UNL     1       3.756   1.482  -1.797  0.00  0.00    +0.000 A 
ENDBRANCH  12  13
ENDBRANCH  11  12
ENDBRANCH   8  11
ENDBRANCH   1   9
BRANCH   2  19
ATOM     19  O   UNL     1      -3.574  -1.036  -1.546  0.00  0.00    +0.000 OA
ATOM     20  H   UNL     1      -4.247  -1.195  -2.257  0.00  0.00    +0.000 HD
ENDBRANCH   2  19
BRANCH   3  21
ATOM     21  O   UNL     1      -4.013  -3.763  -1.645  0.00  0.00    +0.000 OA
ATOM     22  H   UNL     1      -3.921  -3.998  -2.606  0.00  0.00    +0.000 HD
ENDBRANCH   3  21
BRANCH   4  23
ATOM     23  C   UNL     1      -2.910  -4.624   0.936  0.00  0.00    +0.000 C 
BRANCH  23  24
ATOM     24  O   UNL     1      -2.895  -4.528   2.333  0.00  0.00    +0.000 OA
ATOM     25  H   UNL     1      -2.955  -5.460   2.672  0.00  0.00    +0.000 HD
ENDBRANCH  23  24
ENDBRANCH   4  23
BRANCH   6  26
ATOM     26  O   UNL     1      -0.063  -0.882   0.873  0.00  0.00    +0.000 OA
BRANCH  26  27
ATOM     27  C   UNL     1      -0.164  -0.710   2.273  0.00  0.00    +0.000 C 
BRANCH  27  28
ATOM     28  C   UNL     1       1.085  -0.043   2.768  0.00  0.00    +0.000 A 
ATOM     29  C   UNL     1       1.195   1.360   2.740  0.00  0.00    +0.000 A 
ATOM     30  C   UNL     1       2.363   1.981   3.191  0.00  0.00    +0.000 A 
ATOM     31  C   UNL     1       3.436   1.211   3.649  0.00  0.00    +0.000 A 
ATOM     32  C   UNL     1       3.340  -0.184   3.663  0.00  0.00    +0.000 A 
ATOM     33  C   UNL     1       2.172  -0.813   3.219  0.00  0.00    +0.000 A 
ENDBRANCH  27  28
ENDBRANCH  26  27
ENDBRANCH   6  26
TORSDOF 11
