REMARK  Name = ZINC000032106887
REMARK  5 active torsions:
REMARK  status: ('A' for Active; 'I' for Inactive)
REMARK    1  A    between atoms: O_2  and  C_3
REMARK    2  A    between atoms: C_8  and  C_10
REMARK    3  A    between atoms: C_28  and  O_30
REMARK    4  A    between atoms: O_30  and  C_31
REMARK    5  A    between atoms: C_35  and  N_37
REMARK                            x       y       z     vdW  Elec       q    Type
REMARK                         _______ _______ _______ _____ _____    ______ ____
ROOT
ATOM      1  C   UNL     1      -1.238   1.484  -0.269  0.00  0.00    +0.000 C 
ATOM      2  C   UNL     1      -0.078   0.648   0.282  0.00  0.00    +0.000 C 
ATOM      3  O   UNL     1       1.147   1.338   0.139  0.00  0.00    +0.000 OA
ATOM      4  C   UNL     1       2.200   0.550   0.679  0.00  0.00    +0.000 C 
ATOM      5  O   UNL     1       2.354  -0.663  -0.044  0.00  0.00    +0.000 OA
ATOM      6  C   UNL     1       1.186  -1.452   0.073  0.00  0.00    +0.000 C 
ATOM      7  C   UNL     1      -0.018  -0.688  -0.469  0.00  0.00    +0.000 C 
ATOM      8  O   UNL     1      -1.209  -1.429  -0.267  0.00  0.00    +0.000 OA
ATOM      9  C   UNL     1      -2.328  -0.758  -0.841  0.00  0.00    +0.000 C 
ATOM     10  C   UNL     1      -2.533   0.638  -0.206  0.00  0.00    +0.000 C 
ENDROOT
BRANCH   4  11
ATOM     11  C   UNL     1       3.481   1.333   0.569  0.00  0.00    +0.000 A 
ATOM     12  C   UNL     1       3.947   1.746  -0.692  0.00  0.00    +0.000 A 
ATOM     13  C   UNL     1       5.136   2.474  -0.802  0.00  0.00    +0.000 A 
ATOM     14  C   UNL     1       5.870   2.795   0.343  0.00  0.00    +0.000 A 
ATOM     15  C   UNL     1       5.416   2.388   1.601  0.00  0.00    +0.000 A 
ATOM     16  C   UNL     1       4.227   1.661   1.716  0.00  0.00    +0.000 A 
ENDBRANCH   4  11
BRANCH  10  17
ATOM     17  N   UNL     1      -3.645   1.324  -0.860  0.00  0.00    +0.000 NA
ATOM     18  N   UNL     1      -4.078   2.392  -0.425  0.00  0.00    +0.000 NA
ATOM     19  N   UNL     1      -4.510   3.459   0.009  0.00  0.00    +0.000 NA
ENDBRANCH  10  17
BRANCH   1  21
ATOM     20  H   UNL     1      -1.484   2.700  -1.767  0.00  0.00    +0.000 HD
ATOM     21  O   UNL     1      -0.958   1.876  -1.591  0.00  0.00    +0.000 OA
ENDBRANCH   1  21
BRANCH   9  22
ATOM     22  O   UNL     1      -2.197  -0.644  -2.250  0.00  0.00    +0.000 OA
ATOM     23  C   UNL     1      -2.368  -1.906  -2.858  0.00  0.00    +0.000 C 
ENDBRANCH   9  22
TORSDOF 4
