REMARK  Name = 52944904
REMARK  15 active torsions:
REMARK  status: ('A' for Active; 'I' for Inactive)
REMARK    1  A    between atoms: C_1  and  O_2
REMARK    2  A    between atoms: O_2  and  C_3
REMARK    3  A    between atoms: C_3  and  C_4
REMARK    4  A    between atoms: C_6  and  O_7
REMARK    5  A    between atoms: O_7  and  C_8
REMARK    6  A    between atoms: C_8  and  C_9
REMARK    7  A    between atoms: C_9  and  C_10
REMARK    8  A    between atoms: C_16  and  N_17
REMARK    9  A    between atoms: N_17  and  C_18
REMARK   10  A    between atoms: C_18  and  C_19
REMARK   11  A    between atoms: C_19  and  N_20
REMARK   12  A    between atoms: C_21  and  O_22
REMARK   13  A    between atoms: O_22  and  C_23
REMARK   14  A    between atoms: C_23  and  C_24
REMARK   15  A    between atoms: C_34  and  O_35
REMARK                            x       y       z     vdW  Elec       q    Type
REMARK                         _______ _______ _______ _____ _____    ______ ____
ROOT
ATOM      1  C   UNL     1       0.309  -0.209  -1.969  0.00  0.00    +0.000 C 
ATOM      2  O   UNL     1      -0.958  -0.688  -1.556  0.00  0.00    +0.000 OA
ATOM      3  C   UNL     1      -1.381  -0.044  -0.368  0.00  0.00    +0.000 C 
ATOM      4  C   UNL     1      -0.438  -0.417   0.806  0.00  0.00    +0.000 C 
ATOM      5  C   UNL     1       1.013  -0.007   0.452  0.00  0.00    +0.000 C 
ATOM      6  C   UNL     1       1.391  -0.580  -0.927  0.00  0.00    +0.000 C 
ENDROOT
BRANCH   4   7
ATOM      7  N   UNL     1      -0.887   0.220   2.077  0.00  0.00    +0.000 N 
ATOM      8  H   UNL     1      -0.080   0.588   2.630  0.00  0.00    +0.000 HD
ATOM      9  H   UNL     1      -1.486   1.054   1.873  0.00  0.00    +0.000 HD
BRANCH   7  10
ATOM     10  C   UNL     1      -1.658  -0.699   2.938  0.00  0.00    +0.000 C 
BRANCH  10  11
ATOM     11  C   UNL     1      -0.738  -1.633   3.749  0.00  0.00    +0.000 C 
BRANCH  11  12
ATOM     12  N   UNL     1      -1.523  -2.542   4.585  0.00  0.00    +0.000 N 
ATOM     13  H   UNL     1      -0.871  -3.167   5.112  0.00  0.00    +0.000 HD
ATOM     14  H   UNL     1      -2.097  -1.995   5.269  0.00  0.00    +0.000 HD
ATOM     15  H   UNL     1      -2.146  -3.132   3.986  0.00  0.00    +0.000 HD
ENDBRANCH  11  12
ENDBRANCH  10  11
ENDBRANCH   7  10
ENDBRANCH   4   7
BRANCH   6  16
ATOM     16  O   UNL     1       2.633  -0.054  -1.321  0.00  0.00    +0.000 OA
ATOM     17  H   UNL     1       3.140  -0.788  -1.757  0.00  0.00    +0.000 HD
ENDBRANCH   6  16
BRANCH   1  18
ATOM     18  C   UNL     1       0.626  -0.800  -3.353  0.00  0.00    +0.000 C 
BRANCH  18  20
ATOM     19  C   UNL     1      -0.315  -2.842  -3.955  0.00  0.00    +0.000 C 
ATOM     20  O   UNL     1       0.749  -2.212  -3.278  0.00  0.00    +0.000 OA
ENDBRANCH  18  20
ENDBRANCH   1  18
BRANCH   3  21
ATOM     21  O   UNL     1      -2.683  -0.509  -0.061  0.00  0.00    +0.000 OA
BRANCH  21  22
ATOM     22  C   UNL     1      -3.661   0.433  -0.446  0.00  0.00    +0.000 C 
BRANCH  22  23
ATOM     23  C   UNL     1      -5.044  -0.167  -0.207  0.00  0.00    +0.000 C 
BRANCH  23  24
ATOM     24  C   UNL     1      -6.122   0.852  -0.467  0.00  0.00    +0.000 A 
ATOM     25  C   UNL     1      -6.643   1.021  -1.761  0.00  0.00    +0.000 A 
ATOM     26  C   UNL     1      -7.626   1.987  -2.004  0.00  0.00    +0.000 A 
ATOM     27  C   UNL     1      -8.086   2.796  -0.960  0.00  0.00    +0.000 A 
ATOM     28  C   UNL     1      -7.561   2.643   0.326  0.00  0.00    +0.000 A 
ATOM     29  C   UNL     1      -6.579   1.678   0.573  0.00  0.00    +0.000 A 
ENDBRANCH  23  24
ENDBRANCH  22  23
ENDBRANCH  21  22
ENDBRANCH   3  21
BRANCH   5  30
ATOM     30  O   UNL     1       1.895  -0.549   1.427  0.00  0.00    +0.000 OA
BRANCH  30  31
ATOM     31  C   UNL     1       2.662   0.448   2.079  0.00  0.00    +0.000 C 
BRANCH  31  32
ATOM     32  C   UNL     1       3.915   0.747   1.304  0.00  0.00    +0.000 A 
ATOM     33  C   UNL     1       4.080   1.984   0.662  0.00  0.00    +0.000 A 
ATOM     34  C   UNL     1       5.238   2.251  -0.072  0.00  0.00    +0.000 A 
ATOM     35  C   UNL     1       6.247   1.282  -0.178  0.00  0.00    +0.000 A 
ATOM     36  C   UNL     1       7.417   1.541  -0.910  0.00  0.00    +0.000 A 
ATOM     37  C   UNL     1       8.413   0.564  -1.009  0.00  0.00    +0.000 A 
ATOM     38  C   UNL     1       8.249  -0.673  -0.382  0.00  0.00    +0.000 A 
ATOM     39  C   UNL     1       7.089  -0.942   0.351  0.00  0.00    +0.000 A 
ATOM     40  C   UNL     1       6.083   0.029   0.460  0.00  0.00    +0.000 A 
ATOM     41  C   UNL     1       4.917  -0.230   1.195  0.00  0.00    +0.000 A 
ENDBRANCH  31  32
ENDBRANCH  30  31
ENDBRANCH   5  30
TORSDOF 14
