REMARK  Name = ZINC000100342293
REMARK  9 active torsions:
REMARK  status: ('A' for Active; 'I' for Inactive)
REMARK    1  A    between atoms: C_1  and  O_2
REMARK    2  A    between atoms: O_2  and  C_3
REMARK    3  A    between atoms: C_6  and  C_7
REMARK    4  A    between atoms: N_8  and  C_9
REMARK    5  A    between atoms: C_10  and  O_11
REMARK    6  A    between atoms: C_13  and  C_14
REMARK    7  A    between atoms: C_14  and  O_15
REMARK    8  A    between atoms: C_16  and  O_17
REMARK    9  A    between atoms: C_18  and  O_19
REMARK                            x       y       z     vdW  Elec       q    Type
REMARK                         _______ _______ _______ _____ _____    ______ ____
ROOT
ATOM      1  C   UNL     1       1.682   1.413  -0.930  0.00  0.00    +0.000 C 
ATOM      2  C   UNL     1       1.254   2.804  -1.438  0.00  0.00    +0.000 C 
ATOM      3  O   UNL     1       0.572   3.542  -0.431  0.00  0.00    +0.000 OA
ATOM      4  C   UNL     1       1.387   3.798   0.707  0.00  0.00    +0.000 C 
ATOM      5  C   UNL     1       1.925   2.495   1.352  0.00  0.00    +0.000 C 
ATOM      6  C   UNL     1       2.598   1.593   0.298  0.00  0.00    +0.000 C 
ENDROOT
BRANCH   1   8
ATOM      7  C   UNL     1       0.487  -0.673  -0.545  0.00  0.00    +0.000 C 
ATOM      8  N   UNL     1       0.494   0.624  -0.595  0.00  0.00    +0.000 NA
BRANCH   7  12
ATOM      9  C   UNL     1      -3.053  -2.868   0.506  0.00  0.00    +0.000 A 
ATOM     10  C   UNL     1      -3.082  -1.461   0.472  0.00  0.00    +0.000 A 
ATOM     11  C   UNL     1      -1.934  -0.740   0.130  0.00  0.00    +0.000 A 
ATOM     12  C   UNL     1      -0.739  -1.412  -0.184  0.00  0.00    +0.000 A 
ATOM     13  C   UNL     1      -0.714  -2.814  -0.148  0.00  0.00    +0.000 A 
ATOM     14  C   UNL     1      -1.863  -3.533   0.194  0.00  0.00    +0.000 A 
BRANCH   9  16
ATOM     15  C   UNL     1      -5.450  -3.092   1.182  0.00  0.00    +0.000 C 
ATOM     16  O   UNL     1      -4.178  -3.635   0.843  0.00  0.00    +0.000 OA
ENDBRANCH   9  16
ENDBRANCH   7  12
ENDBRANCH   1   8
BRANCH   2  17
ATOM     17  O   UNL     1       0.428   2.671  -2.566  0.00  0.00    +0.000 OA
ATOM     18  H   UNL     1      -0.474   2.405  -2.248  0.00  0.00    +0.000 HD
ENDBRANCH   2  17
BRANCH   5  19
ATOM     19  O   UNL     1       0.853   1.818   1.961  0.00  0.00    +0.000 OA
ATOM     20  H   UNL     1       1.238   1.227   2.659  0.00  0.00    +0.000 HD
ENDBRANCH   5  19
BRANCH   6  21
ATOM     21  O   UNL     1       2.930   0.353   0.869  0.00  0.00    +0.000 OA
ATOM     22  H   UNL     1       3.566  -0.088   0.246  0.00  0.00    +0.000 HD
ENDBRANCH   6  21
BRANCH   4  23
ATOM     23  C   UNL     1       2.481   4.850   0.416  0.00  0.00    +0.000 C 
BRANCH  23  24
ATOM     24  O   UNL     1       2.937   5.430   1.610  0.00  0.00    +0.000 OA
ATOM     25  H   UNL     1       3.715   4.894   1.915  0.00  0.00    +0.000 HD
ENDBRANCH  23  24
ENDBRANCH   4  23
TORSDOF 8
