REMARK  Name = ZINC000616583702
REMARK  13 active torsions:
REMARK  status: ('A' for Active; 'I' for Inactive)
REMARK    1  A    between atoms: O_2  and  C_3
REMARK    2  A    between atoms: C_3  and  C_42
REMARK    3  A    between atoms: N_4  and  C_5
REMARK    4  A    between atoms: C_7  and  O_9
REMARK    5  A    between atoms: C_11  and  O_13
REMARK    6  A    between atoms: C_15  and  C_17
REMARK    7  A    between atoms: C_17  and  O_20
REMARK    8  A    between atoms: C_23  and  O_25
REMARK    9  A    between atoms: O_25  and  C_26
REMARK   10  A    between atoms: C_26  and  C_29
REMARK   11  A    between atoms: C_29  and  C_32
REMARK   12  A    between atoms: C_32  and  C_35
REMARK   13  A    between atoms: C_35  and  C_38
REMARK                            x       y       z     vdW  Elec       q    Type
REMARK                         _______ _______ _______ _____ _____    ______ ____
ROOT
ATOM      1  C   UNL     1      -1.269  -0.609   0.555  0.00  0.00    +0.000 C 
ATOM      2  C   UNL     1      -2.708  -0.693  -0.006  0.00  0.00    +0.000 C 
ATOM      3  C   UNL     1      -3.392   0.694   0.025  0.00  0.00    +0.000 C 
ATOM      4  C   UNL     1      -2.448   1.802  -0.520  0.00  0.00    +0.000 C 
ATOM      5  O   UNL     1      -1.224   1.787   0.195  0.00  0.00    +0.000 OA
ATOM      6  C   UNL     1      -0.510   0.587  -0.050  0.00  0.00    +0.000 C 
ENDROOT
BRANCH   1   8
ATOM      7  C   UNL     1      -0.714  -2.965   0.908  0.00  0.00    +0.000 C 
ATOM      8  N   UNL     1      -0.528  -1.843   0.282  0.00  0.00    +0.000 NA
ATOM      9  C   UNL     1       0.116  -4.155   0.546  0.00  0.00    +0.000 C 
BRANCH   7  11
ATOM     10  H   UNL     1      -1.787  -3.925   2.445  0.00  0.00    +0.000 HD
ATOM     11  O   UNL     1      -1.649  -3.058   1.939  0.00  0.00    +0.000 OA
ENDBRANCH   7  11
ENDBRANCH   1   8
BRANCH   2  12
ATOM     12  O   UNL     1      -2.733  -1.268  -1.292  0.00  0.00    +0.000 OA
ATOM     13  H   UNL     1      -2.244  -0.670  -1.912  0.00  0.00    +0.000 HD
ENDBRANCH   2  12
BRANCH   3  14
ATOM     14  O   UNL     1      -4.621   0.659  -0.657  0.00  0.00    +0.000 OA
ATOM     15  H   UNL     1      -4.429   0.587  -1.629  0.00  0.00    +0.000 HD
ENDBRANCH   3  14
BRANCH   4  16
ATOM     16  C   UNL     1      -3.071   3.199  -0.354  0.00  0.00    +0.000 C 
BRANCH  16  17
ATOM     17  O   UNL     1      -4.201   3.354  -1.170  0.00  0.00    +0.000 OA
ATOM     18  H   UNL     1      -3.868   3.470  -2.098  0.00  0.00    +0.000 HD
ENDBRANCH  16  17
ENDBRANCH   4  16
BRANCH   6  19
ATOM     19  O   UNL     1       0.752   0.667   0.585  0.00  0.00    +0.000 OA
BRANCH  19  20
ATOM     20  C   UNL     1       1.634   1.476  -0.166  0.00  0.00    +0.000 C 
BRANCH  20  21
ATOM     21  C   UNL     1       2.995   1.544   0.534  0.00  0.00    +0.000 C 
BRANCH  21  22
ATOM     22  C   UNL     1       3.600   0.164   0.858  0.00  0.00    +0.000 C 
BRANCH  22  23
ATOM     23  C   UNL     1       3.812  -0.752  -0.360  0.00  0.00    +0.000 C 
ATOM     24  C   UNL     1       4.790  -0.170  -1.379  0.00  0.00    +0.000 C 
ENDBRANCH  22  23
ENDBRANCH  21  22
ENDBRANCH  20  21
ENDBRANCH  19  20
ENDBRANCH   6  19
TORSDOF 11
