REMARK  Name = ZINC000616582683
REMARK  10 active torsions:
REMARK  status: ('A' for Active; 'I' for Inactive)
REMARK    1  A    between atoms: O_2  and  C_3
REMARK    2  A    between atoms: C_3  and  C_34
REMARK    3  A    between atoms: N_4  and  C_5
REMARK    4  A    between atoms: C_7  and  O_9
REMARK    5  A    between atoms: O_9  and  C_10
REMARK    6  A    between atoms: C_10  and  C_13
REMARK    7  A    between atoms: C_19  and  C_21
REMARK    8  A    between atoms: C_21  and  O_24
REMARK    9  A    between atoms: C_26  and  O_28
REMARK   10  A    between atoms: C_30  and  O_32
REMARK                            x       y       z     vdW  Elec       q    Type
REMARK                         _______ _______ _______ _____ _____    ______ ____
ROOT
ATOM      1  C   UNL     1      -0.437  -0.328  -1.039  0.00  0.00    +0.000 C 
ATOM      2  C   UNL     1       1.053   0.042  -1.129  0.00  0.00    +0.000 C 
ATOM      3  O   UNL     1       1.677  -0.075   0.143  0.00  0.00    +0.000 OA
ATOM      4  C   UNL     1       1.665  -1.408   0.642  0.00  0.00    +0.000 C 
ATOM      5  C   UNL     1       0.229  -1.978   0.771  0.00  0.00    +0.000 C 
ATOM      6  C   UNL     1      -0.566  -1.780  -0.531  0.00  0.00    +0.000 C 
ENDROOT
BRANCH   1   8
ATOM      7  C   UNL     1      -2.377   0.924  -0.211  0.00  0.00    +0.000 C 
ATOM      8  N   UNL     1      -1.118   0.613  -0.142  0.00  0.00    +0.000 NA
ATOM      9  C   UNL     1      -2.955   1.874   0.787  0.00  0.00    +0.000 C 
BRANCH   7  11
ATOM     10  H   UNL     1      -4.183   0.590  -1.241  0.00  0.00    +0.000 HD
ATOM     11  O   UNL     1      -3.197   0.364  -1.190  0.00  0.00    +0.000 OA
ENDBRANCH   7  11
ENDBRANCH   1   8
BRANCH   5  12
ATOM     12  O   UNL     1      -0.440  -1.340   1.831  0.00  0.00    +0.000 OA
ATOM     13  H   UNL     1      -0.104  -1.748   2.672  0.00  0.00    +0.000 HD
ENDBRANCH   5  12
BRANCH   6  14
ATOM     14  O   UNL     1      -1.911  -2.124  -0.323  0.00  0.00    +0.000 OA
ATOM     15  H   UNL     1      -2.312  -2.268  -1.220  0.00  0.00    +0.000 HD
ENDBRANCH   6  14
BRANCH   2  16
ATOM     16  O   UNL     1       1.151   1.383  -1.573  0.00  0.00    +0.000 OA
BRANCH  16  17
ATOM     17  C   UNL     1       2.467   1.661  -2.007  0.00  0.00    +0.000 C 
BRANCH  17  18
ATOM     18  C   UNL     1       2.581   3.120  -2.329  0.00  0.00    +0.000 C 
ATOM     19  C   UNL     1       2.429   4.055  -1.387  0.00  0.00    +0.000 C 
ENDBRANCH  17  18
ENDBRANCH  16  17
ENDBRANCH   2  16
BRANCH   4  20
ATOM     20  C   UNL     1       2.623  -2.345  -0.127  0.00  0.00    +0.000 C 
BRANCH  20  21
ATOM     21  O   UNL     1       3.865  -1.725  -0.326  0.00  0.00    +0.000 OA
ATOM     22  H   UNL     1       4.327  -1.726   0.552  0.00  0.00    +0.000 HD
ENDBRANCH  20  21
ENDBRANCH   4  20
TORSDOF 9
