REMARK  Name = ZINC000257346492
REMARK  6 active torsions:
REMARK  status: ('A' for Active; 'I' for Inactive)
REMARK    1  A    between atoms: O_2  and  C_3
REMARK    2  A    between atoms: C_8  and  C_10
REMARK    3  A    between atoms: C_10  and  C_13
REMARK    4  A    between atoms: C_31  and  O_33
REMARK    5  A    between atoms: O_33  and  C_34
REMARK    6  A    between atoms: C_38  and  N_40
REMARK                            x       y       z     vdW  Elec       q    Type
REMARK                         _______ _______ _______ _____ _____    ______ ____
ROOT
ATOM      1  C   UNL     1       0.184   1.417   0.324  0.00  0.00    +0.000 C 
ATOM      2  C   UNL     1       0.377  -0.100   0.457  0.00  0.00    +0.000 C 
ATOM      3  O   UNL     1       1.638  -0.409   1.012  0.00  0.00    +0.000 OA
ATOM      4  C   UNL     1       1.846  -1.821   1.103  0.00  0.00    +0.000 C 
ATOM      5  O   UNL     1       0.781  -2.608   0.573  0.00  0.00    +0.000 OA
ATOM      6  C   UNL     1       0.535  -2.255  -0.775  0.00  0.00    +0.000 C 
ATOM      7  C   UNL     1       0.248  -0.751  -0.924  0.00  0.00    +0.000 C 
ATOM      8  O   UNL     1      -1.054  -0.530  -1.435  0.00  0.00    +0.000 OA
ATOM      9  C   UNL     1      -1.247   0.854  -1.709  0.00  0.00    +0.000 C 
ATOM     10  C   UNL     1      -1.149   1.690  -0.403  0.00  0.00    +0.000 C 
ENDROOT
BRANCH  10  11
ATOM     11  N   UNL     1      -1.261   3.120  -0.684  0.00  0.00    +0.000 NA
ATOM     12  N   UNL     1      -2.314   3.616  -1.087  0.00  0.00    +0.000 NA
ATOM     13  N   UNL     1      -3.365   4.112  -1.489  0.00  0.00    +0.000 NA
ENDBRANCH  10  11
BRANCH   1  15
ATOM     14  H   UNL     1       2.001   2.100   0.244  0.00  0.00    +0.000 HD
ATOM     15  O   UNL     1       1.249   1.990  -0.394  0.00  0.00    +0.000 OA
ENDBRANCH   1  15
BRANCH   9  16
ATOM     16  O   UNL     1      -2.539   1.030  -2.260  0.00  0.00    +0.000 OA
ATOM     17  C   UNL     1      -2.551   0.623  -3.611  0.00  0.00    +0.000 C 
ENDBRANCH   9  16
BRANCH   4  18
ATOM     18  C   UNL     1       2.072  -2.203   2.571  0.00  0.00    +0.000 C 
BRANCH  18  19
ATOM     19  C   UNL     1       0.873  -1.871   3.423  0.00  0.00    +0.000 A 
ATOM     20  C   UNL     1       0.756  -0.603   4.018  0.00  0.00    +0.000 A 
ATOM     21  C   UNL     1      -0.381  -0.277   4.763  0.00  0.00    +0.000 A 
ATOM     22  C   UNL     1      -1.410  -1.210   4.917  0.00  0.00    +0.000 A 
ATOM     23  C   UNL     1      -1.304  -2.470   4.322  0.00  0.00    +0.000 A 
ATOM     24  C   UNL     1      -0.170  -2.800   3.575  0.00  0.00    +0.000 A 
ENDBRANCH  18  19
ENDBRANCH   4  18
TORSDOF 5
