REMARK  Name = ZINC000575124647
REMARK  11 active torsions:
REMARK  status: ('A' for Active; 'I' for Inactive)
REMARK    1  A    between atoms: O_2  and  C_3
REMARK    2  A    between atoms: C_3  and  C_36
REMARK    3  A    between atoms: N_4  and  C_5
REMARK    4  A    between atoms: C_7  and  O_9
REMARK    5  A    between atoms: C_11  and  O_13
REMARK    6  A    between atoms: C_15  and  C_17
REMARK    7  A    between atoms: C_17  and  O_20
REMARK    8  A    between atoms: C_23  and  O_25
REMARK    9  A    between atoms: O_25  and  C_26
REMARK   10  A    between atoms: C_26  and  C_29
REMARK   11  A    between atoms: C_29  and  C_32
REMARK                            x       y       z     vdW  Elec       q    Type
REMARK                         _______ _______ _______ _____ _____    ______ ____
ROOT
ATOM      1  C   UNL     1       0.656   1.053  -0.390  0.00  0.00    +0.000 C 
ATOM      2  C   UNL     1       0.117   2.008   0.698  0.00  0.00    +0.000 C 
ATOM      3  C   UNL     1      -1.014   1.319   1.480  0.00  0.00    +0.000 C 
ATOM      4  C   UNL     1      -0.546  -0.076   1.962  0.00  0.00    +0.000 C 
ATOM      5  O   UNL     1      -0.133  -0.864   0.858  0.00  0.00    +0.000 OA
ATOM      6  C   UNL     1       1.015  -0.307   0.239  0.00  0.00    +0.000 C 
ENDROOT
BRANCH   1   8
ATOM      7  C   UNL     1       1.874   2.440  -2.043  0.00  0.00    +0.000 C 
ATOM      8  N   UNL     1       1.848   1.619  -1.032  0.00  0.00    +0.000 NA
ATOM      9  C   UNL     1       0.622   2.898  -2.740  0.00  0.00    +0.000 C 
BRANCH   7  11
ATOM     10  H   UNL     1       3.193   3.515  -3.288  0.00  0.00    +0.000 HD
ATOM     11  O   UNL     1       3.113   2.884  -2.500  0.00  0.00    +0.000 OA
ENDBRANCH   7  11
ENDBRANCH   1   8
BRANCH   2  12
ATOM     12  O   UNL     1       1.147   2.376   1.585  0.00  0.00    +0.000 OA
ATOM     13  H   UNL     1       1.627   3.140   1.171  0.00  0.00    +0.000 HD
ENDBRANCH   2  12
BRANCH   3  14
ATOM     14  O   UNL     1      -1.376   2.125   2.574  0.00  0.00    +0.000 OA
ATOM     15  H   UNL     1      -2.352   2.009   2.712  0.00  0.00    +0.000 HD
ENDBRANCH   3  14
BRANCH   4  16
ATOM     16  C   UNL     1      -1.658  -0.831   2.707  0.00  0.00    +0.000 C 
BRANCH  16  17
ATOM     17  O   UNL     1      -2.739  -1.104   1.854  0.00  0.00    +0.000 OA
ATOM     18  H   UNL     1      -3.383  -0.355   1.955  0.00  0.00    +0.000 HD
ENDBRANCH  16  17
ENDBRANCH   4  16
BRANCH   6  19
ATOM     19  O   UNL     1       1.429  -1.178  -0.802  0.00  0.00    +0.000 OA
BRANCH  19  20
ATOM     20  C   UNL     1       2.425  -2.089  -0.369  0.00  0.00    +0.000 C 
BRANCH  20  21
ATOM     21  C   UNL     1       1.849  -3.233   0.478  0.00  0.00    +0.000 C 
ATOM     22  C   UNL     1       0.758  -4.002  -0.265  0.00  0.00    +0.000 C 
ENDBRANCH  20  21
ENDBRANCH  19  20
ENDBRANCH   6  19
TORSDOF 9
