REMARK  Name = ZINC000383920275
REMARK  6 active torsions:
REMARK  status: ('A' for Active; 'I' for Inactive)
REMARK    1  A    between atoms: C_1  and  O_2
REMARK    2  A    between atoms: O_2  and  C_3
REMARK    3  A    between atoms: C_5  and  C_6
REMARK    4  A    between atoms: C_6  and  O_7
REMARK    5  A    between atoms: C_8  and  O_9
REMARK    6  A    between atoms: C_12  and  O_13
REMARK                            x       y       z     vdW  Elec       q    Type
REMARK                         _______ _______ _______ _____ _____    ______ ____
ROOT
ATOM      1  C   UNL     1      -0.642   0.997  -0.442  0.00  0.00    +0.000 C 
ATOM      2  O   UNL     1       0.122   0.661   0.704  0.00  0.00    +0.000 OA
ATOM      3  C   UNL     1       1.140  -0.301   0.431  0.00  0.00    +0.000 C 
ATOM      4  C   UNL     1       0.835  -1.264  -0.761  0.00  0.00    +0.000 C 
ATOM      5  C   UNL     1      -0.677  -1.516  -0.917  0.00  0.00    +0.000 C 
ATOM      6  O   UNL     1      -1.191  -2.295   0.151  0.00  0.00    +0.000 OA
ATOM      7  C   UNL     1      -2.263  -1.635   0.711  0.00  0.00    +0.000 C 
ATOM      8  N   UNL     1      -2.502  -0.481   0.197  0.00  0.00    +0.000 NA
ATOM      9  C   UNL     1      -1.510  -0.211  -0.841  0.00  0.00    +0.000 C 
ENDROOT
BRANCH   1  11
ATOM     10  C   UNL     1      -0.740   3.281  -0.073  0.00  0.00    +0.000 C 
ATOM     11  O   UNL     1      -1.491   2.088  -0.142  0.00  0.00    +0.000 OA
ENDBRANCH   1  11
BRANCH   4  12
ATOM     12  O   UNL     1       1.544  -2.472  -0.644  0.00  0.00    +0.000 OA
ATOM     13  H   UNL     1       1.258  -2.916   0.196  0.00  0.00    +0.000 HD
ENDBRANCH   4  12
BRANCH   7  14
ATOM     14  O   UNL     1      -3.028  -2.163   1.743  0.00  0.00    +0.000 OA
ATOM     15  H   UNL     1      -2.812  -3.075   2.126  0.00  0.00    +0.000 HD
ENDBRANCH   7  14
BRANCH   3  16
ATOM     16  C   UNL     1       2.487   0.412   0.236  0.00  0.00    +0.000 C 
BRANCH  16  17
ATOM     17  O   UNL     1       2.788   1.208   1.351  0.00  0.00    +0.000 OA
ATOM     18  H   UNL     1       3.090   0.590   2.067  0.00  0.00    +0.000 HD
ENDBRANCH  16  17
ENDBRANCH   3  16
TORSDOF 5
