REMARK  Name = ZINC000257346492
REMARK  6 active torsions:
REMARK  status: ('A' for Active; 'I' for Inactive)
REMARK    1  A    between atoms: O_2  and  C_3
REMARK    2  A    between atoms: C_8  and  C_10
REMARK    3  A    between atoms: C_10  and  C_13
REMARK    4  A    between atoms: C_31  and  O_33
REMARK    5  A    between atoms: O_33  and  C_34
REMARK    6  A    between atoms: C_38  and  N_40
REMARK                            x       y       z     vdW  Elec       q    Type
REMARK                         _______ _______ _______ _____ _____    ______ ____
ROOT
ATOM      1  C   UNL     1      -2.478   0.384  -0.931  0.00  0.00    +0.000 C 
ATOM      2  C   UNL     1      -1.393  -0.408  -0.152  0.00  0.00    +0.000 C 
ATOM      3  O   UNL     1      -1.527  -0.285   1.254  0.00  0.00    +0.000 OA
ATOM      4  C   UNL     1      -0.374  -0.773   1.949  0.00  0.00    +0.000 C 
ATOM      5  O   UNL     1       0.423  -1.658   1.161  0.00  0.00    +0.000 OA
ATOM      6  C   UNL     1       0.997  -0.976   0.053  0.00  0.00    +0.000 C 
ATOM      7  C   UNL     1       0.013   0.019  -0.582  0.00  0.00    +0.000 C 
ATOM      8  O   UNL     1       0.086   0.022  -1.990  0.00  0.00    +0.000 OA
ATOM      9  C   UNL     1      -0.607   1.145  -2.533  0.00  0.00    +0.000 C 
ATOM     10  C   UNL     1      -1.892   1.569  -1.727  0.00  0.00    +0.000 C 
ENDROOT
BRANCH  10  11
ATOM     11  N   UNL     1      -1.595   2.676  -0.817  0.00  0.00    +0.000 NA
ATOM     12  N   UNL     1      -1.295   3.791  -1.246  0.00  0.00    +0.000 NA
ATOM     13  N   UNL     1      -0.995   4.904  -1.674  0.00  0.00    +0.000 NA
ENDBRANCH  10  11
BRANCH   1  15
ATOM     14  H   UNL     1      -4.030   0.041   0.183  0.00  0.00    +0.000 HD
ATOM     15  O   UNL     1      -3.495   0.837  -0.073  0.00  0.00    +0.000 OA
ENDBRANCH   1  15
BRANCH   9  16
ATOM     16  O   UNL     1      -0.989   0.803  -3.855  0.00  0.00    +0.000 OA
ATOM     17  C   UNL     1      -0.865   1.913  -4.719  0.00  0.00    +0.000 C 
ENDBRANCH   9  16
BRANCH   4  18
ATOM     18  C   UNL     1      -0.842  -1.508   3.207  0.00  0.00    +0.000 C 
BRANCH  18  19
ATOM     19  C   UNL     1       0.325  -1.935   4.059  0.00  0.00    +0.000 A 
ATOM     20  C   UNL     1       0.878  -3.219   3.915  0.00  0.00    +0.000 A 
ATOM     21  C   UNL     1       1.982  -3.600   4.684  0.00  0.00    +0.000 A 
ATOM     22  C   UNL     1       2.545  -2.703   5.596  0.00  0.00    +0.000 A 
ATOM     23  C   UNL     1       2.007  -1.420   5.737  0.00  0.00    +0.000 A 
ATOM     24  C   UNL     1       0.904  -1.034   4.969  0.00  0.00    +0.000 A 
ENDBRANCH  18  19
ENDBRANCH   4  18
TORSDOF 5
