REMARK  Name = ZINC000307008534
REMARK  8 active torsions:
REMARK  status: ('A' for Active; 'I' for Inactive)
REMARK    1  A    between atoms: C_1  and  N_2
REMARK    2  A    between atoms: N_2  and  C_3
REMARK    3  A    between atoms: C_4  and  O_5
REMARK    4  A    between atoms: O_5  and  C_6
REMARK    5  A    between atoms: C_8  and  C_9
REMARK    6  A    between atoms: C_9  and  O_10
REMARK    7  A    between atoms: C_11  and  O_12
REMARK    8  A    between atoms: C_13  and  O_14
REMARK                            x       y       z     vdW  Elec       q    Type
REMARK                         _______ _______ _______ _____ _____    ______ ____
ROOT
ATOM      1  C   UNL     1       0.590  -1.336   0.295  0.00  0.00    +0.000 C 
ATOM      2  C   UNL     1       0.986  -0.531  -0.975  0.00  0.00    +0.000 C 
ATOM      3  O   UNL     1       1.444   0.770  -0.631  0.00  0.00    +0.000 OA
ATOM      4  C   UNL     1       0.437   1.533   0.015  0.00  0.00    +0.000 C 
ATOM      5  C   UNL     1       0.048   0.885   1.365  0.00  0.00    +0.000 C 
ATOM      6  C   UNL     1      -0.449  -0.550   1.127  0.00  0.00    +0.000 C 
ENDROOT
BRANCH   1   8
ATOM      7  C   UNL     1       1.127  -3.579  -0.550  0.00  0.00    +0.000 C 
ATOM      8  N   UNL     1       0.082  -2.691  -0.024  0.00  0.00    +0.000 N 
ATOM      9  H   UNL     1      -0.701  -2.642  -0.717  0.00  0.00    +0.000 HD
ATOM     10  H   UNL     1      -0.289  -3.131   0.851  0.00  0.00    +0.000 HD
ENDBRANCH   1   8
BRANCH   2  11
ATOM     11  O   UNL     1      -0.096  -0.475  -1.893  0.00  0.00    +0.000 OA
ATOM     12  C   UNL     1       0.369  -0.098  -3.170  0.00  0.00    +0.000 C 
ENDBRANCH   2  11
BRANCH   5  13
ATOM     13  O   UNL     1      -0.964   1.629   1.998  0.00  0.00    +0.000 OA
ATOM     14  H   UNL     1      -0.518   2.276   2.604  0.00  0.00    +0.000 HD
ENDBRANCH   5  13
BRANCH   6  15
ATOM     15  O   UNL     1      -1.689  -0.536   0.460  0.00  0.00    +0.000 OA
ATOM     16  H   UNL     1      -2.390  -0.416   1.153  0.00  0.00    +0.000 HD
ENDBRANCH   6  15
BRANCH   4  17
ATOM     17  C   UNL     1       0.960   2.967   0.202  0.00  0.00    +0.000 C 
BRANCH  17  18
ATOM     18  O   UNL     1       2.074   2.996   1.054  0.00  0.00    +0.000 OA
ATOM     19  H   UNL     1       2.855   2.708   0.514  0.00  0.00    +0.000 HD
ENDBRANCH  17  18
ENDBRANCH   4  17
TORSDOF 6
