REMARK  Name = ZINC000307565252
REMARK  7 active torsions:
REMARK  status: ('A' for Active; 'I' for Inactive)
REMARK    1  A    between atoms: C_1  and  O_2
REMARK    2  A    between atoms: O_2  and  C_3
REMARK    3  A    between atoms: C_5  and  C_6
REMARK    4  A    between atoms: C_6  and  O_7
REMARK    5  A    between atoms: C_8  and  O_9
REMARK    6  A    between atoms: C_10  and  O_11
REMARK    7  A    between atoms: C_12  and  N_13
REMARK                            x       y       z     vdW  Elec       q    Type
REMARK                         _______ _______ _______ _____ _____    ______ ____
ROOT
ATOM      1  C   UNL     1       0.499   0.859  -1.031  0.00  0.00    +0.000 C 
ATOM      2  O   UNL     1       1.612   1.419  -1.710  0.00  0.00    +0.000 OA
ATOM      3  C   UNL     1       2.562   1.930  -0.786  0.00  0.00    +0.000 C 
ATOM      4  C   UNL     1       3.171   0.775   0.051  0.00  0.00    +0.000 C 
ATOM      5  C   UNL     1       2.052  -0.002   0.772  0.00  0.00    +0.000 C 
ATOM      6  C   UNL     1       0.959  -0.384  -0.242  0.00  0.00    +0.000 C 
ENDROOT
BRANCH   6   7
ATOM      7  N   UNL     1      -0.161  -1.076   0.414  0.00  0.00    +0.000 N 
ATOM      8  C   UNL     1      -0.244  -2.490   0.627  0.00  0.00    +0.000 C 
ATOM      9  O   UNL     1       0.526  -3.333   0.095  0.00  0.00    +0.000 OA
ATOM     10  C   UNL     1      -1.322  -2.801   1.557  0.00  0.00    +0.000 A 
ATOM     11  C   UNL     1      -1.774  -4.024   2.051  0.00  0.00    +0.000 A 
ATOM     12  C   UNL     1      -2.844  -4.012   2.963  0.00  0.00    +0.000 A 
ATOM     13  C   UNL     1      -3.430  -2.791   3.362  0.00  0.00    +0.000 A 
ATOM     14  C   UNL     1      -2.952  -1.571   2.852  0.00  0.00    +0.000 A 
ATOM     15  C   UNL     1      -1.893  -1.610   1.946  0.00  0.00    +0.000 A 
ATOM     16  C   UNL     1      -1.182  -0.535   1.266  0.00  0.00    +0.000 C 
ATOM     17  O   UNL     1      -1.415   0.694   1.416  0.00  0.00    +0.000 OA
ENDBRANCH   6   7
BRANCH   1  19
ATOM     18  C   UNL     1      -1.167   1.570  -2.474  0.00  0.00    +0.000 C 
ATOM     19  O   UNL     1      -0.466   0.449  -1.982  0.00  0.00    +0.000 OA
ENDBRANCH   1  19
BRANCH   4  20
ATOM     20  O   UNL     1       4.076   1.278   1.002  0.00  0.00    +0.000 OA
ATOM     21  H   UNL     1       4.983   1.228   0.601  0.00  0.00    +0.000 HD
ENDBRANCH   4  20
BRANCH   5  22
ATOM     22  O   UNL     1       1.502   0.782   1.802  0.00  0.00    +0.000 OA
ATOM     23  H   UNL     1       2.072   0.652   2.604  0.00  0.00    +0.000 HD
ENDBRANCH   5  22
BRANCH   3  24
ATOM     24  C   UNL     1       3.652   2.672  -1.572  0.00  0.00    +0.000 C 
BRANCH  24  25
ATOM     25  O   UNL     1       3.092   3.731  -2.303  0.00  0.00    +0.000 OA
ATOM     26  H   UNL     1       2.729   3.340  -3.141  0.00  0.00    +0.000 HD
ENDBRANCH  24  25
ENDBRANCH   3  24
TORSDOF 6
