REMARK  Name = ZINC000575124647
REMARK  10 active torsions:
REMARK  status: ('A' for Active; 'I' for Inactive)
REMARK    1  A    between atoms: C_1  and  C_2
REMARK    2  A    between atoms: C_2  and  C_3
REMARK    3  A    between atoms: C_3  and  O_4
REMARK    4  A    between atoms: O_4  and  C_5
REMARK    5  A    between atoms: C_7  and  C_8
REMARK    6  A    between atoms: C_8  and  O_9
REMARK    7  A    between atoms: C_10  and  O_11
REMARK    8  A    between atoms: C_12  and  O_13
REMARK    9  A    between atoms: C_14  and  N_15
REMARK   10  A    between atoms: C_16  and  C_17
REMARK                            x       y       z     vdW  Elec       q    Type
REMARK                         _______ _______ _______ _____ _____    ______ ____
ROOT
ATOM      1  C   UNL     1      -0.049  -0.135   0.120  0.00  0.00    +0.000 C 
ATOM      2  O   UNL     1      -0.346  -1.497  -0.142  0.00  0.00    +0.000 OA
ATOM      3  C   UNL     1      -1.517  -1.900   0.548  0.00  0.00    +0.000 C 
ATOM      4  C   UNL     1      -2.752  -1.153  -0.012  0.00  0.00    +0.000 C 
ATOM      5  C   UNL     1      -2.542   0.378   0.043  0.00  0.00    +0.000 C 
ATOM      6  C   UNL     1      -1.143   0.761  -0.492  0.00  0.00    +0.000 C 
ENDROOT
BRANCH   6   7
ATOM      7  N   UNL     1      -0.852   2.174  -0.223  0.00  0.00    +0.000 N 
ATOM      8  C   UNL     1      -0.297   3.057  -1.208  0.00  0.00    +0.000 C 
ATOM      9  C   UNL     1       0.078   4.452  -0.828  0.00  0.00    +0.000 C 
ATOM     10  O   UNL     1      -0.107   2.663  -2.391  0.00  0.00    +0.000 OA
ATOM     11  H   UNL     1      -0.914   2.520   0.761  0.00  0.00    +0.000 HD
ENDBRANCH   6   7
BRANCH   4  12
ATOM     12  O   UNL     1      -3.901  -1.511   0.714  0.00  0.00    +0.000 OA
ATOM     13  H   UNL     1      -4.681  -1.224   0.172  0.00  0.00    +0.000 HD
ENDBRANCH   4  12
BRANCH   5  14
ATOM     14  O   UNL     1      -2.778   0.887   1.336  0.00  0.00    +0.000 OA
ATOM     15  H   UNL     1      -2.134   0.468   1.960  0.00  0.00    +0.000 HD
ENDBRANCH   5  14
BRANCH   1  16
ATOM     16  O   UNL     1       1.183   0.192  -0.495  0.00  0.00    +0.000 OA
BRANCH  16  17
ATOM     17  C   UNL     1       2.261  -0.327   0.256  0.00  0.00    +0.000 C 
BRANCH  17  19
ATOM     18  C   UNL     1       4.770  -0.585   0.274  0.00  0.00    +0.000 C 
ATOM     19  C   UNL     1       3.563  -0.051  -0.493  0.00  0.00    +0.000 C 
ENDBRANCH  17  19
ENDBRANCH  16  17
ENDBRANCH   1  16
BRANCH   3  20
ATOM     20  C   UNL     1      -1.681  -3.418   0.381  0.00  0.00    +0.000 C 
BRANCH  20  21
ATOM     21  O   UNL     1      -0.593  -4.093   0.953  0.00  0.00    +0.000 OA
ATOM     22  H   UNL     1       0.145  -4.063   0.290  0.00  0.00    +0.000 HD
ENDBRANCH  20  21
ENDBRANCH   3  20
TORSDOF 8
