REMARK  Name = 49859685
REMARK  8 active torsions:
REMARK  status: ('A' for Active; 'I' for Inactive)
REMARK    1  A    between atoms: C_1  and  C_2
REMARK    2  A    between atoms: N_4  and  C_5
REMARK    3  A    between atoms: C_6  and  O_7
REMARK    4  A    between atoms: O_7  and  P_8
REMARK    5  A    between atoms: C_13  and  C_14
REMARK    6  A    between atoms: C_14  and  O_15
REMARK    7  A    between atoms: C_16  and  O_17
REMARK    8  A    between atoms: C_18  and  O_19
REMARK                            x       y       z     vdW  Elec       q    Type
REMARK                         _______ _______ _______ _____ _____    ______ ____
ROOT
ATOM      1  C   UNL     1      -0.862   0.541   0.218  0.00  0.00    +0.000 C 
ATOM      2  C   UNL     1       0.523   0.897   0.804  0.00  0.00    +0.000 C 
ATOM      3  O   UNL     1       1.396   1.381  -0.210  0.00  0.00    +0.000 OA
ATOM      4  C   UNL     1       1.633   0.402  -1.210  0.00  0.00    +0.000 C 
ATOM      5  C   UNL     1       0.324   0.064  -1.959  0.00  0.00    +0.000 C 
ATOM      6  C   UNL     1      -0.710  -0.459  -0.945  0.00  0.00    +0.000 C 
ENDROOT
BRANCH   1  10
ATOM      7  C   UNL     1      -3.162   0.179   3.348  0.00  0.00    +0.000 C 
ATOM      8  C   UNL     1      -2.330   0.808   2.279  0.00  0.00    +0.000 C 
ATOM      9  O   UNL     1      -2.187   2.060   2.256  0.00  0.00    +0.000 OA
ATOM     10  N   UNL     1      -1.732  -0.011   1.264  0.00  0.00    +0.000 N 
ATOM     11  H   UNL     1      -1.943  -1.035   1.271  0.00  0.00    +0.000 HD
ENDBRANCH   1  10
BRANCH   5  12
ATOM     12  O   UNL     1      -0.165   1.212  -2.608  0.00  0.00    +0.000 OA
ATOM     13  H   UNL     1      -0.744   0.900  -3.351  0.00  0.00    +0.000 HD
ENDBRANCH   5  12
BRANCH   6  14
ATOM     14  O   UNL     1      -1.955  -0.648  -1.567  0.00  0.00    +0.000 OA
ATOM     15  H   UNL     1      -1.871  -1.460  -2.133  0.00  0.00    +0.000 HD
ENDBRANCH   6  14
BRANCH   2  16
ATOM     16  O   UNL     1       1.072  -0.226   1.470  0.00  0.00    +0.000 OA
BRANCH  16  17
ATOM     17  P   UNL     1       2.302   0.291   2.534  0.00  0.00    +0.000 P 
ATOM     18  O   UNL     1       2.939  -0.922   3.172  0.00  0.00    +0.000 OA
ATOM     19  O   UNL     1       1.643   1.269   3.746  0.00  0.00    +0.000 OA
ATOM     20  O   UNL     1       3.489   1.156   1.693  0.00  0.00    +0.000 OA
ENDBRANCH  16  17
ENDBRANCH   2  16
BRANCH   4  21
ATOM     21  C   UNL     1       2.709   0.932  -2.166  0.00  0.00    +0.000 C 
BRANCH  21  22
ATOM     22  O   UNL     1       3.038  -0.044  -3.115  0.00  0.00    +0.000 OA
ATOM     23  H   UNL     1       3.730   0.362  -3.700  0.00  0.00    +0.000 HD
ENDBRANCH  21  22
ENDBRANCH   4  21
TORSDOF 7
