REMARK  Name = ZINC000616582453
REMARK  14 active torsions:
REMARK  status: ('A' for Active; 'I' for Inactive)
REMARK    1  A    between atoms: O_2  and  C_3
REMARK    2  A    between atoms: C_3  and  C_45
REMARK    3  A    between atoms: N_4  and  C_5
REMARK    4  A    between atoms: C_7  and  O_9
REMARK    5  A    between atoms: C_11  and  O_13
REMARK    6  A    between atoms: C_15  and  C_17
REMARK    7  A    between atoms: C_17  and  O_20
REMARK    8  A    between atoms: C_23  and  O_25
REMARK    9  A    between atoms: O_25  and  C_26
REMARK   10  A    between atoms: C_26  and  C_29
REMARK   11  A    between atoms: C_29  and  C_32
REMARK   12  A    between atoms: C_32  and  C_35
REMARK   13  A    between atoms: C_35  and  C_38
REMARK   14  A    between atoms: C_38  and  C_41
REMARK                            x       y       z     vdW  Elec       q    Type
REMARK                         _______ _______ _______ _____ _____    ______ ____
ROOT
ATOM      1  C   UNL     1       0.817  -0.183   0.453  0.00  0.00    +0.000 C 
ATOM      2  C   UNL     1       1.703  -1.335   0.970  0.00  0.00    +0.000 C 
ATOM      3  C   UNL     1       1.768  -2.457  -0.084  0.00  0.00    +0.000 C 
ATOM      4  C   UNL     1       2.135  -1.868  -1.469  0.00  0.00    +0.000 C 
ATOM      5  O   UNL     1       1.205  -0.861  -1.832  0.00  0.00    +0.000 OA
ATOM      6  C   UNL     1       1.287   0.246  -0.948  0.00  0.00    +0.000 C 
ENDROOT
BRANCH   1   8
ATOM      7  C   UNL     1       0.111   1.180   2.394  0.00  0.00    +0.000 C 
ATOM      8  N   UNL     1       0.876   0.966   1.363  0.00  0.00    +0.000 NA
ATOM      9  C   UNL     1      -1.011   0.250   2.769  0.00  0.00    +0.000 C 
BRANCH   7  11
ATOM     10  H   UNL     1      -0.244   2.552   3.956  0.00  0.00    +0.000 HD
ATOM     11  O   UNL     1       0.330   2.328   3.151  0.00  0.00    +0.000 OA
ENDBRANCH   7  11
ENDBRANCH   1   8
BRANCH   2  12
ATOM     12  O   UNL     1       3.003  -0.871   1.243  0.00  0.00    +0.000 OA
ATOM     13  H   UNL     1       2.989  -0.492   2.160  0.00  0.00    +0.000 HD
ENDBRANCH   2  12
BRANCH   3  14
ATOM     14  O   UNL     1       2.719  -3.416   0.304  0.00  0.00    +0.000 OA
ATOM     15  H   UNL     1       2.308  -3.946   1.036  0.00  0.00    +0.000 HD
ENDBRANCH   3  14
BRANCH   4  16
ATOM     16  C   UNL     1       2.109  -2.944  -2.565  0.00  0.00    +0.000 C 
BRANCH  16  17
ATOM     17  O   UNL     1       3.176  -3.843  -2.407  0.00  0.00    +0.000 OA
ATOM     18  H   UNL     1       2.797  -4.688  -2.050  0.00  0.00    +0.000 HD
ENDBRANCH  16  17
ENDBRANCH   4  16
BRANCH   6  19
ATOM     19  O   UNL     1       0.422   1.269  -1.398  0.00  0.00    +0.000 OA
BRANCH  19  20
ATOM     20  C   UNL     1       0.930   1.874  -2.569  0.00  0.00    +0.000 C 
BRANCH  20  21
ATOM     21  C   UNL     1      -0.100   2.868  -3.116  0.00  0.00    +0.000 C 
BRANCH  21  22
ATOM     22  C   UNL     1      -1.270   2.200  -3.866  0.00  0.00    +0.000 C 
BRANCH  22  23
ATOM     23  C   UNL     1      -2.110   1.211  -3.037  0.00  0.00    +0.000 C 
BRANCH  23  24
ATOM     24  C   UNL     1      -2.793   1.867  -1.827  0.00  0.00    +0.000 C 
ATOM     25  C   UNL     1      -3.655   0.859  -1.072  0.00  0.00    +0.000 C 
ENDBRANCH  23  24
ENDBRANCH  22  23
ENDBRANCH  21  22
ENDBRANCH  20  21
ENDBRANCH  19  20
ENDBRANCH   6  19
TORSDOF 12
