REMARK  Name = ZINC000307565252
REMARK  7 active torsions:
REMARK  status: ('A' for Active; 'I' for Inactive)
REMARK    1  A    between atoms: C_1  and  O_2
REMARK    2  A    between atoms: O_2  and  C_3
REMARK    3  A    between atoms: C_5  and  C_6
REMARK    4  A    between atoms: C_6  and  O_7
REMARK    5  A    between atoms: C_8  and  O_9
REMARK    6  A    between atoms: C_10  and  O_11
REMARK    7  A    between atoms: C_12  and  N_13
REMARK                            x       y       z     vdW  Elec       q    Type
REMARK                         _______ _______ _______ _____ _____    ______ ____
ROOT
ATOM      1  C   UNL     1      -1.338  -0.321   1.158  0.00  0.00    +0.000 C 
ATOM      2  O   UNL     1      -2.636  -0.548   0.629  0.00  0.00    +0.000 OA
ATOM      3  C   UNL     1      -2.831   0.183  -0.572  0.00  0.00    +0.000 C 
ATOM      4  C   UNL     1      -1.870  -0.336  -1.675  0.00  0.00    +0.000 C 
ATOM      5  C   UNL     1      -0.405  -0.234  -1.202  0.00  0.00    +0.000 C 
ATOM      6  C   UNL     1      -0.277  -0.913   0.194  0.00  0.00    +0.000 C 
ENDROOT
BRANCH   6   7
ATOM      7  N   UNL     1       1.099  -0.902   0.773  0.00  0.00    +0.000 NA
ATOM      8  C   UNL     1       1.680   0.412   0.943  0.00  0.00    +0.000 C 
ATOM      9  O   UNL     1       1.250   1.263   1.766  0.00  0.00    +0.000 OA
ATOM     10  C   UNL     1       2.879   0.594   0.139  0.00  0.00    +0.000 A 
ATOM     11  C   UNL     1       3.723   1.694  -0.010  0.00  0.00    +0.000 A 
ATOM     12  C   UNL     1       4.831   1.563  -0.866  0.00  0.00    +0.000 A 
ATOM     13  C   UNL     1       5.071   0.346  -1.542  0.00  0.00    +0.000 A 
ATOM     14  C   UNL     1       4.203  -0.747  -1.366  0.00  0.00    +0.000 A 
ATOM     15  C   UNL     1       3.112  -0.583  -0.514  0.00  0.00    +0.000 A 
ATOM     16  C   UNL     1       2.058  -1.507  -0.123  0.00  0.00    +0.000 C 
ATOM     17  O   UNL     1       1.998  -2.711  -0.493  0.00  0.00    +0.000 OA
ATOM     18  H   UNL     1       1.132  -1.416   1.684  0.00  0.00    +0.000 HD
ENDBRANCH   6   7
BRANCH   1  20
ATOM     19  C   UNL     1      -1.908  -0.237   3.402  0.00  0.00    +0.000 C 
ATOM     20  O   UNL     1      -1.235  -0.978   2.407  0.00  0.00    +0.000 OA
ENDBRANCH   1  20
BRANCH   4  21
ATOM     21  O   UNL     1      -2.050   0.341  -2.895  0.00  0.00    +0.000 OA
ATOM     22  H   UNL     1      -2.011   1.316  -2.714  0.00  0.00    +0.000 HD
ENDBRANCH   4  21
BRANCH   5  23
ATOM     23  O   UNL     1      -0.020   1.117  -1.133  0.00  0.00    +0.000 OA
ATOM     24  H   UNL     1       0.392   1.350  -2.006  0.00  0.00    +0.000 HD
ENDBRANCH   5  23
BRANCH   3  25
ATOM     25  C   UNL     1      -4.295   0.022  -1.008  0.00  0.00    +0.000 C 
BRANCH  25  26
ATOM     26  O   UNL     1      -5.155   0.547  -0.033  0.00  0.00    +0.000 OA
ATOM     27  H   UNL     1      -5.255  -0.149   0.668  0.00  0.00    +0.000 HD
ENDBRANCH  25  26
ENDBRANCH   3  25
TORSDOF 6
