REMARK  Name = ZINC000257346903
REMARK  11 active torsions:
REMARK  status: ('A' for Active; 'I' for Inactive)
REMARK    1  A    between atoms: C_1  and  C_2
REMARK    2  A    between atoms: C_2  and  O_3
REMARK    3  A    between atoms: O_3  and  C_4
REMARK    4  A    between atoms: C_6  and  C_7
REMARK    5  A    between atoms: C_7  and  O_8
REMARK    6  A    between atoms: C_9  and  O_10
REMARK    7  A    between atoms: C_11  and  O_12
REMARK    8  A    between atoms: O_12  and  S_13
REMARK    9  A    between atoms: S_13  and  C_14
REMARK   10  A    between atoms: C_17  and  N_18
REMARK   11  A    between atoms: C_19  and  C_21
REMARK                            x       y       z     vdW  Elec       q    Type
REMARK                         _______ _______ _______ _____ _____    ______ ____
ROOT
ATOM      1  C   UNL     1      -0.632   0.077  -1.712  0.00  0.00    +0.000 C 
ATOM      2  O   UNL     1      -0.556  -0.600  -2.955  0.00  0.00    +0.000 OA
ATOM      3  C   UNL     1       0.761  -0.545  -3.478  0.00  0.00    +0.000 C 
ATOM      4  C   UNL     1       1.735  -1.317  -2.556  0.00  0.00    +0.000 C 
ATOM      5  C   UNL     1       1.692  -0.734  -1.129  0.00  0.00    +0.000 C 
ATOM      6  C   UNL     1       0.225  -0.656  -0.663  0.00  0.00    +0.000 C 
ENDROOT
BRANCH   6   7
ATOM      7  N   UNL     1       0.130   0.028   0.630  0.00  0.00    +0.000 N 
ATOM      8  C   UNL     1       0.132  -0.682   1.879  0.00  0.00    +0.000 C 
ATOM      9  O   UNL     1       0.383  -1.919   1.895  0.00  0.00    +0.000 OA
ATOM     10  H   UNL     1       0.210   1.069   0.642  0.00  0.00    +0.000 HD
BRANCH   8  11
ATOM     11  C   UNL     1      -0.132   0.024   3.155  0.00  0.00    +0.000 A 
ATOM     12  C   UNL     1       0.338  -0.513   4.368  0.00  0.00    +0.000 A 
ATOM     13  C   UNL     1       0.090   0.145   5.577  0.00  0.00    +0.000 A 
ATOM     14  C   UNL     1      -0.635   1.339   5.589  0.00  0.00    +0.000 A 
ATOM     15  C   UNL     1      -1.117   1.875   4.393  0.00  0.00    +0.000 A 
ATOM     16  C   UNL     1      -0.871   1.222   3.181  0.00  0.00    +0.000 A 
ENDBRANCH   8  11
ENDBRANCH   6   7
BRANCH   4  17
ATOM     17  O   UNL     1       3.041  -1.239  -3.067  0.00  0.00    +0.000 OA
ATOM     18  H   UNL     1       3.545  -2.004  -2.685  0.00  0.00    +0.000 HD
ENDBRANCH   4  17
BRANCH   1  19
ATOM     19  O   UNL     1      -1.977   0.067  -1.269  0.00  0.00    +0.000 OA
BRANCH  19  21
ATOM     20  C   UNL     1      -2.780   2.324  -0.995  0.00  0.00    +0.000 C 
ATOM     21  C   UNL     1      -2.728   1.093  -1.892  0.00  0.00    +0.000 C 
ENDBRANCH  19  21
ENDBRANCH   1  19
BRANCH   3  22
ATOM     22  C   UNL     1       0.750  -1.153  -4.889  0.00  0.00    +0.000 C 
BRANCH  22  23
ATOM     23  O   UNL     1      -0.087  -0.410  -5.734  0.00  0.00    +0.000 OA
ATOM     24  H   UNL     1      -1.015  -0.717  -5.561  0.00  0.00    +0.000 HD
ENDBRANCH  22  23
ENDBRANCH   3  22
BRANCH   5  25
ATOM     25  O   UNL     1       2.261   0.565  -1.139  0.00  0.00    +0.000 OA
BRANCH  25  26
ATOM     26  S   UNL     1       3.534   0.682  -0.020  0.00  0.00    +0.000 S 
ATOM     27  C   UNL     1       4.932  -0.287  -0.548  0.00  0.00    +0.000 C 
ATOM     28  O   UNL     1       3.090   0.227   1.342  0.00  0.00    +0.000 OA
ATOM     29  O   UNL     1       3.959   2.120   0.068  0.00  0.00    +0.000 OA
ENDBRANCH  25  26
ENDBRANCH   5  25
TORSDOF 9
