REMARK  Name = ZINC000383920275
REMARK  5 active torsions:
REMARK  status: ('A' for Active; 'I' for Inactive)
REMARK    1  A    between atoms: C_1  and  O_2
REMARK    2  A    between atoms: O_2  and  C_3
REMARK    3  A    between atoms: C_5  and  C_6
REMARK    4  A    between atoms: C_6  and  O_7
REMARK    5  A    between atoms: C_8  and  O_9
REMARK                            x       y       z     vdW  Elec       q    Type
REMARK                         _______ _______ _______ _____ _____    ______ ____
ROOT
ATOM      1  C   UNL     1       0.790  -0.006   0.247  0.00  0.00    +0.000 C 
ATOM      2  O   UNL     1      -0.562   0.395   0.387  0.00  0.00    +0.000 OA
ATOM      3  C   UNL     1      -1.437  -0.696   0.669  0.00  0.00    +0.000 C 
ATOM      4  C   UNL     1      -0.965  -2.081   0.133  0.00  0.00    +0.000 C 
ATOM      5  C   UNL     1      -0.150  -1.926  -1.162  0.00  0.00    +0.000 C 
ATOM      6  O   UNL     1      -0.987  -1.535  -2.248  0.00  0.00    +0.000 OA
ATOM      7  C   UNL     1      -0.457  -0.421  -2.855  0.00  0.00    +0.000 C 
ATOM      8  O   UNL     1      -0.964   0.130  -3.866  0.00  0.00    +0.000 OA
ATOM      9  N   UNL     1       0.706   0.044  -2.214  0.00  0.00    +0.000 N 
ATOM     10  C   UNL     1       0.940  -0.813  -1.056  0.00  0.00    +0.000 C 
ATOM     11  H   UNL     1       1.270   0.877  -2.495  0.00  0.00    +0.000 HD
ENDROOT
BRANCH   1  13
ATOM     12  C   UNL     1       1.738   1.729   1.454  0.00  0.00    +0.000 C 
ATOM     13  O   UNL     1       1.621   1.138   0.178  0.00  0.00    +0.000 OA
ENDBRANCH   1  13
BRANCH   4  14
ATOM     14  O   UNL     1      -2.079  -2.908  -0.088  0.00  0.00    +0.000 OA
ATOM     15  H   UNL     1      -1.735  -3.834  -0.182  0.00  0.00    +0.000 HD
ENDBRANCH   4  14
BRANCH   3  16
ATOM     16  C   UNL     1      -1.722  -0.753   2.178  0.00  0.00    +0.000 C 
BRANCH  16  17
ATOM     17  O   UNL     1      -2.232   0.473   2.628  0.00  0.00    +0.000 OA
ATOM     18  H   UNL     1      -3.180   0.512   2.334  0.00  0.00    +0.000 HD
ENDBRANCH  16  17
ENDBRANCH   3  16
TORSDOF 4
