REMARK  Name = ZINC000252694384
REMARK  15 active torsions:
REMARK  status: ('A' for Active; 'I' for Inactive)
REMARK    1  A    between atoms: C_1  and  C_2
REMARK    2  A    between atoms: C_2  and  C_3
REMARK    3  A    between atoms: C_3  and  C_4
REMARK    4  A    between atoms: C_4  and  C_5
REMARK    5  A    between atoms: C_5  and  C_6
REMARK    6  A    between atoms: C_6  and  C_7
REMARK    7  A    between atoms: C_7  and  C_8
REMARK    8  A    between atoms: C_8  and  O_9
REMARK    9  A    between atoms: O_9  and  C_10
REMARK   10  A    between atoms: C_12  and  C_13
REMARK   11  A    between atoms: C_13  and  O_14
REMARK   12  A    between atoms: C_15  and  O_16
REMARK   13  A    between atoms: C_17  and  O_18
REMARK   14  A    between atoms: C_19  and  N_20
REMARK   15  A    between atoms: C_21  and  C_22
REMARK                            x       y       z     vdW  Elec       q    Type
REMARK                         _______ _______ _______ _____ _____    ______ ____
ROOT
ATOM      1  C   UNL     1       1.905   1.579  -0.311  0.00  0.00    +0.000 C 
ATOM      2  O   UNL     1       2.929   2.420   0.191  0.00  0.00    +0.000 OA
ATOM      3  C   UNL     1       3.948   1.663   0.821  0.00  0.00    +0.000 C 
ATOM      4  C   UNL     1       4.684   0.785  -0.223  0.00  0.00    +0.000 C 
ATOM      5  C   UNL     1       3.685  -0.113  -0.989  0.00  0.00    +0.000 C 
ATOM      6  C   UNL     1       2.453   0.700  -1.452  0.00  0.00    +0.000 C 
ENDROOT
BRANCH   6   7
ATOM      7  N   UNL     1       1.398  -0.190  -1.952  0.00  0.00    +0.000 N 
ATOM      8  C   UNL     1       0.584   0.134  -3.088  0.00  0.00    +0.000 C 
ATOM      9  C   UNL     1      -0.605  -0.710  -3.415  0.00  0.00    +0.000 C 
ATOM     10  O   UNL     1       0.836   1.149  -3.790  0.00  0.00    +0.000 OA
ATOM     11  H   UNL     1       1.090  -0.988  -1.351  0.00  0.00    +0.000 HD
ENDBRANCH   6   7
BRANCH   4  12
ATOM     12  O   UNL     1       5.655  -0.010   0.408  0.00  0.00    +0.000 OA
ATOM     13  H   UNL     1       6.252  -0.353  -0.307  0.00  0.00    +0.000 HD
ENDBRANCH   4  12
BRANCH   5  14
ATOM     14  O   UNL     1       3.325  -1.247  -0.234  0.00  0.00    +0.000 OA
ATOM     15  H   UNL     1       2.887  -0.942   0.601  0.00  0.00    +0.000 HD
ENDBRANCH   5  14
BRANCH   1  16
ATOM     16  O   UNL     1       0.881   2.402  -0.845  0.00  0.00    +0.000 OA
BRANCH  16  17
ATOM     17  C   UNL     1      -0.159   2.613   0.089  0.00  0.00    +0.000 C 
BRANCH  17  18
ATOM     18  C   UNL     1      -1.250   1.554  -0.099  0.00  0.00    +0.000 C 
BRANCH  18  19
ATOM     19  C   UNL     1      -2.373   1.717   0.933  0.00  0.00    +0.000 C 
BRANCH  19  20
ATOM     20  C   UNL     1      -3.579   0.801   0.656  0.00  0.00    +0.000 C 
BRANCH  20  21
ATOM     21  C   UNL     1      -3.259  -0.705   0.620  0.00  0.00    +0.000 C 
BRANCH  21  22
ATOM     22  C   UNL     1      -2.667  -1.224   1.938  0.00  0.00    +0.000 C 
BRANCH  22  24
ATOM     23  C   UNL     1      -1.906  -3.269   3.207  0.00  0.00    +0.000 C 
ATOM     24  C   UNL     1      -2.523  -2.750   1.911  0.00  0.00    +0.000 C 
ENDBRANCH  22  24
ENDBRANCH  21  22
ENDBRANCH  20  21
ENDBRANCH  19  20
ENDBRANCH  18  19
ENDBRANCH  17  18
ENDBRANCH  16  17
ENDBRANCH   1  16
BRANCH   3  25
ATOM     25  C   UNL     1       4.913   2.651   1.499  0.00  0.00    +0.000 C 
BRANCH  25  26
ATOM     26  O   UNL     1       5.853   1.981   2.296  0.00  0.00    +0.000 OA
ATOM     27  H   UNL     1       5.372   1.682   3.112  0.00  0.00    +0.000 HD
ENDBRANCH  25  26
ENDBRANCH   3  25
TORSDOF 13
