REMARK  Name = ZINC000616591357
REMARK  6 active torsions:
REMARK  status: ('A' for Active; 'I' for Inactive)
REMARK    1  A    between atoms: C_1  and  O_2
REMARK    2  A    between atoms: O_2  and  C_3
REMARK    3  A    between atoms: C_8  and  C_9
REMARK    4  A    between atoms: C_17  and  O_18
REMARK    5  A    between atoms: C_19  and  N_20
REMARK    6  A    between atoms: C_21  and  C_22
REMARK                            x       y       z     vdW  Elec       q    Type
REMARK                         _______ _______ _______ _____ _____    ______ ____
ROOT
ATOM      1  C   UNL     1      -0.301   2.793   0.840  0.00  0.00    +0.000 C 
ATOM      2  O   UNL     1      -0.504   2.796  -0.569  0.00  0.00    +0.000 OA
ATOM      3  C   UNL     1       0.308   1.809  -1.177  0.00  0.00    +0.000 C 
ATOM      4  C   UNL     1       0.195   1.883  -2.697  0.00  0.00    +0.000 C 
ATOM      5  O   UNL     1       0.926   0.825  -3.289  0.00  0.00    +0.000 OA
ATOM      6  C   UNL     1       0.425  -0.426  -2.839  0.00  0.00    +0.000 C 
ATOM      7  O   UNL     1       0.602  -0.575  -1.437  0.00  0.00    +0.000 OA
ATOM      8  C   UNL     1      -0.156   0.407  -0.759  0.00  0.00    +0.000 C 
ATOM      9  C   UNL     1      -0.007   0.264   0.764  0.00  0.00    +0.000 C 
ATOM     10  C   UNL     1      -0.743   1.439   1.446  0.00  0.00    +0.000 C 
ENDROOT
BRANCH   6  11
ATOM     11  C   UNL     1       1.193  -1.520  -3.532  0.00  0.00    +0.000 A 
ATOM     12  C   UNL     1       2.582  -1.632  -3.342  0.00  0.00    +0.000 A 
ATOM     13  C   UNL     1       3.303  -2.644  -3.983  0.00  0.00    +0.000 A 
ATOM     14  C   UNL     1       2.646  -3.552  -4.818  0.00  0.00    +0.000 A 
ATOM     15  C   UNL     1       1.266  -3.448  -5.013  0.00  0.00    +0.000 A 
ATOM     16  C   UNL     1       0.540  -2.438  -4.375  0.00  0.00    +0.000 A 
ENDBRANCH   6  11
BRANCH  10  17
ATOM     17  N   UNL     1      -0.497   1.427   2.893  0.00  0.00    +0.000 N 
ATOM     18  C   UNL     1      -1.542   1.577   3.865  0.00  0.00    +0.000 C 
ATOM     19  C   UNL     1      -1.201   1.647   5.318  0.00  0.00    +0.000 C 
ATOM     20  O   UNL     1      -2.745   1.681   3.504  0.00  0.00    +0.000 OA
ATOM     21  H   UNL     1       0.492   1.433   3.233  0.00  0.00    +0.000 HD
ENDBRANCH  10  17
BRANCH   1  23
ATOM     22  C   UNL     1      -0.490   5.074   1.198  0.00  0.00    +0.000 C 
ATOM     23  O   UNL     1      -1.088   3.815   1.421  0.00  0.00    +0.000 OA
ENDBRANCH   1  23
BRANCH   9  24
ATOM     24  O   UNL     1       1.353   0.265   1.125  0.00  0.00    +0.000 OA
ATOM     25  H   UNL     1       1.693  -0.655   0.972  0.00  0.00    +0.000 HD
ENDBRANCH   9  24
TORSDOF 4
