REMARK  Name = 49802606
REMARK  8 active torsions:
REMARK  status: ('A' for Active; 'I' for Inactive)
REMARK    1  A    between atoms: O_2  and  C_3
REMARK    2  A    between atoms: C_3  and  C_27
REMARK    3  A    between atoms: N_4  and  C_5
REMARK    4  A    between atoms: C_7  and  O_9
REMARK    5  A    between atoms: C_12  and  C_14
REMARK    6  A    between atoms: C_14  and  O_17
REMARK    7  A    between atoms: C_19  and  O_21
REMARK    8  A    between atoms: C_23  and  O_25
REMARK                            x       y       z     vdW  Elec       q    Type
REMARK                         _______ _______ _______ _____ _____    ______ ____
ROOT
ATOM      1  C   UNL     1       0.045  -0.475  -0.183  0.00  0.00    +0.000 C 
ATOM      2  C   UNL     1       0.660  -0.187   1.206  0.00  0.00    +0.000 C 
ATOM      3  O   UNL     1       0.488   1.173   1.578  0.00  0.00    +0.000 OA
ATOM      4  C   UNL     1       1.156   2.047   0.680  0.00  0.00    +0.000 C 
ATOM      5  C   UNL     1       0.565   1.945  -0.749  0.00  0.00    +0.000 C 
ATOM      6  C   UNL     1       0.629   0.484  -1.240  0.00  0.00    +0.000 C 
ENDROOT
BRANCH   1   8
ATOM      7  C   UNL     1      -0.417  -2.572  -1.370  0.00  0.00    +0.000 C 
ATOM      8  N   UNL     1       0.310  -1.869  -0.552  0.00  0.00    +0.000 NA
BRANCH   7   9
ATOM      9  C   UNL     1      -0.036  -3.988  -1.677  0.00  0.00    +0.000 C 
ATOM     10  F   UNL     1      -1.003  -4.841  -1.179  0.00  0.00    +0.000 F 
ATOM     11  F   UNL     1       0.054  -4.154  -3.047  0.00  0.00    +0.000 F 
ATOM     12  F   UNL     1       1.185  -4.306  -1.106  0.00  0.00    +0.000 F 
ENDBRANCH   7   9
BRANCH   7  14
ATOM     13  H   UNL     1      -2.143  -2.568  -2.577  0.00  0.00    +0.000 HD
ATOM     14  O   UNL     1      -1.564  -2.026  -1.948  0.00  0.00    +0.000 OA
ENDBRANCH   7  14
ENDBRANCH   1   8
BRANCH   2  15
ATOM     15  O   UNL     1       2.022  -0.545   1.255  0.00  0.00    +0.000 OA
ATOM     16  H   UNL     1       2.062  -1.524   1.415  0.00  0.00    +0.000 HD
ENDBRANCH   2  15
BRANCH   5  17
ATOM     17  O   UNL     1      -0.747   2.451  -0.822  0.00  0.00    +0.000 OA
ATOM     18  H   UNL     1      -1.300   1.977  -0.148  0.00  0.00    +0.000 HD
ENDBRANCH   5  17
BRANCH   6  19
ATOM     19  O   UNL     1      -0.073   0.351  -2.449  0.00  0.00    +0.000 OA
ATOM     20  H   UNL     1       0.488   0.771  -3.153  0.00  0.00    +0.000 HD
ENDBRANCH   6  19
BRANCH   4  21
ATOM     21  C   UNL     1       1.096   3.481   1.227  0.00  0.00    +0.000 C 
BRANCH  21  22
ATOM     22  O   UNL     1      -0.225   3.846   1.520  0.00  0.00    +0.000 OA
ATOM     23  H   UNL     1      -0.184   4.779   1.856  0.00  0.00    +0.000 HD
ENDBRANCH  21  22
ENDBRANCH   4  21
TORSDOF 8
