REMARK  Name = 45357367
REMARK  9 active torsions:
REMARK  status: ('A' for Active; 'I' for Inactive)
REMARK    1  A    between atoms: O_2  and  C_3
REMARK    2  A    between atoms: N_4  and  C_5
REMARK    3  A    between atoms: C_7  and  O_9
REMARK    4  A    between atoms: C_12  and  C_14
REMARK    5  A    between atoms: C_14  and  O_17
REMARK    6  A    between atoms: C_19  and  O_21
REMARK    7  A    between atoms: C_23  and  O_25
REMARK    8  A    between atoms: N_27  and  N_28
REMARK    9  A    between atoms: N_27  and  C_30
REMARK                            x       y       z     vdW  Elec       q    Type
REMARK                         _______ _______ _______ _____ _____    ______ ____
ROOT
ATOM      1  C   UNL     1       0.545   0.715  -0.689  0.00  0.00    +0.000 C 
ATOM      2  C   UNL     1      -0.259   1.812  -1.407  0.00  0.00    +0.000 C 
ATOM      3  O   UNL     1       0.089   3.087  -0.896  0.00  0.00    +0.000 OA
ATOM      4  C   UNL     1      -0.325   3.214   0.454  0.00  0.00    +0.000 C 
ATOM      5  C   UNL     1       0.453   2.216   1.346  0.00  0.00    +0.000 C 
ATOM      6  C   UNL     1       0.250   0.780   0.823  0.00  0.00    +0.000 C 
ENDROOT
BRANCH   1   8
ATOM      7  C   UNL     1       0.853  -1.690  -1.233  0.00  0.00    +0.000 C 
ATOM      8  N   UNL     1       0.152  -0.590  -1.228  0.00  0.00    +0.000 NA
ATOM      9  N   UNL     1       0.275  -2.882  -1.791  0.00  0.00    +0.000 N 
ATOM     10  C   UNL     1       1.040  -4.132  -1.810  0.00  0.00    +0.000 C 
BRANCH   7  12
ATOM     11  H   UNL     1       2.645  -0.941  -0.344  0.00  0.00    +0.000 HD
ATOM     12  O   UNL     1       2.155  -1.739  -0.722  0.00  0.00    +0.000 OA
ENDBRANCH   7  12
BRANCH   9  13
ATOM     13  N   UNL     1      -0.970  -2.795  -2.441  0.00  0.00    +0.000 NA
ATOM     14  O   UNL     1      -1.474  -3.777  -3.023  0.00  0.00    +0.000 OA
ENDBRANCH   9  13
ENDBRANCH   1   8
BRANCH   2  15
ATOM     15  O   UNL     1       0.045   1.777  -2.776  0.00  0.00    +0.000 OA
ATOM     16  H   UNL     1      -0.566   2.423  -3.216  0.00  0.00    +0.000 HD
ENDBRANCH   2  15
BRANCH   5  17
ATOM     17  O   UNL     1      -0.008   2.301   2.671  0.00  0.00    +0.000 OA
ATOM     18  H   UNL     1       0.737   2.006   3.257  0.00  0.00    +0.000 HD
ENDBRANCH   5  17
BRANCH   6  19
ATOM     19  O   UNL     1       1.099  -0.101   1.511  0.00  0.00    +0.000 OA
ATOM     20  H   UNL     1       0.637  -0.353   2.353  0.00  0.00    +0.000 HD
ENDBRANCH   6  19
BRANCH   4  21
ATOM     21  C   UNL     1      -0.076   4.665   0.889  0.00  0.00    +0.000 C 
BRANCH  21  22
ATOM     22  O   UNL     1      -0.669   4.913   2.134  0.00  0.00    +0.000 OA
ATOM     23  H   UNL     1      -0.458   5.857   2.357  0.00  0.00    +0.000 HD
ENDBRANCH  21  22
ENDBRANCH   4  21
TORSDOF 8
