REMARK  Name = 129878031
REMARK  10 active torsions:
REMARK  status: ('A' for Active; 'I' for Inactive)
REMARK    1  A    between atoms: O_2  and  C_3
REMARK    2  A    between atoms: C_3  and  C_27
REMARK    3  A    between atoms: N_4  and  C_5
REMARK    4  A    between atoms: C_7  and  O_9
REMARK    5  A    between atoms: C_12  and  C_14
REMARK    6  A    between atoms: C_14  and  O_17
REMARK    7  A    between atoms: C_19  and  O_21
REMARK    8  A    between atoms: C_23  and  O_25
REMARK    9  A    between atoms: C_27  and  C_30
REMARK   10  A    between atoms: C_30  and  C_33
REMARK                            x       y       z     vdW  Elec       q    Type
REMARK                         _______ _______ _______ _____ _____    ______ ____
ROOT
ATOM      1  C   UNL     1       0.529  -0.518  -0.302  0.00  0.00    +0.000 C 
ATOM      2  C   UNL     1       0.190   0.185  -1.637  0.00  0.00    +0.000 C 
ATOM      3  O   UNL     1      -1.008  -0.327  -2.200  0.00  0.00    +0.000 OA
ATOM      4  C   UNL     1      -0.901  -1.708  -2.510  0.00  0.00    +0.000 C 
ATOM      5  C   UNL     1      -0.659  -2.547  -1.231  0.00  0.00    +0.000 C 
ATOM      6  C   UNL     1       0.604  -2.038  -0.516  0.00  0.00    +0.000 C 
ENDROOT
BRANCH   1   8
ATOM      7  C   UNL     1      -0.549   0.829   1.486  0.00  0.00    +0.000 C 
ATOM      8  N   UNL     1      -0.499  -0.210   0.700  0.00  0.00    +0.000 NA
BRANCH   7  10
ATOM      9  H   UNL     1      -1.697   1.708   3.017  0.00  0.00    +0.000 HD
ATOM     10  O   UNL     1      -1.623   0.935   2.366  0.00  0.00    +0.000 OA
ENDBRANCH   7  10
BRANCH   7  11
ATOM     11  C   UNL     1       0.528   1.887   1.520  0.00  0.00    +0.000 C 
BRANCH  11  12
ATOM     12  C   UNL     1       1.590   1.535   2.566  0.00  0.00    +0.000 C 
BRANCH  12  13
ATOM     13  C   UNL     1       2.694   2.587   2.607  0.00  0.00    +0.000 C 
ATOM     14  H   UNL     1       3.203   2.650   1.621  0.00  0.00    +0.000 HD
ENDBRANCH  12  13
ENDBRANCH  11  12
ENDBRANCH   7  11
ENDBRANCH   1   8
BRANCH   2  15
ATOM     15  O   UNL     1       1.253   0.081  -2.553  0.00  0.00    +0.000 OA
ATOM     16  H   UNL     1       1.980   0.669  -2.218  0.00  0.00    +0.000 HD
ENDBRANCH   2  15
BRANCH   5  17
ATOM     17  O   UNL     1      -0.479  -3.900  -1.567  0.00  0.00    +0.000 OA
ATOM     18  H   UNL     1      -1.363  -4.344  -1.481  0.00  0.00    +0.000 HD
ENDBRANCH   5  17
BRANCH   6  19
ATOM     19  O   UNL     1       0.754  -2.680   0.725  0.00  0.00    +0.000 OA
ATOM     20  H   UNL     1       1.126  -3.582   0.542  0.00  0.00    +0.000 HD
ENDBRANCH   6  19
BRANCH   4  21
ATOM     21  C   UNL     1      -2.183  -2.140  -3.234  0.00  0.00    +0.000 C 
BRANCH  21  22
ATOM     22  O   UNL     1      -3.300  -1.946  -2.410  0.00  0.00    +0.000 OA
ATOM     23  H   UNL     1      -4.085  -2.248  -2.936  0.00  0.00    +0.000 HD
ENDBRANCH  21  22
ENDBRANCH   4  21
TORSDOF 10
