REMARK  Name = 44119773
REMARK  8 active torsions:
REMARK  status: ('A' for Active; 'I' for Inactive)
REMARK    1  A    between atoms: O_2  and  C_3
REMARK    2  A    between atoms: C_3  and  C_27
REMARK    3  A    between atoms: N_4  and  C_5
REMARK    4  A    between atoms: C_7  and  O_9
REMARK    5  A    between atoms: C_12  and  C_14
REMARK    6  A    between atoms: C_14  and  O_17
REMARK    7  A    between atoms: C_19  and  O_21
REMARK    8  A    between atoms: C_23  and  O_25
REMARK                            x       y       z     vdW  Elec       q    Type
REMARK                         _______ _______ _______ _____ _____    ______ ____
ROOT
ATOM      1  C   UNL     1       0.409   0.461  -0.033  0.00  0.00    +0.000 C 
ATOM      2  C   UNL     1       0.268   1.478   1.113  0.00  0.00    +0.000 C 
ATOM      3  O   UNL     1       0.872   0.974   2.292  0.00  0.00    +0.000 OA
ATOM      4  C   UNL     1       2.276   0.853   2.127  0.00  0.00    +0.000 C 
ATOM      5  C   UNL     1       2.595  -0.205   1.040  0.00  0.00    +0.000 C 
ATOM      6  C   UNL     1       1.902   0.172  -0.285  0.00  0.00    +0.000 C 
ENDROOT
BRANCH   1   8
ATOM      7  C   UNL     1      -0.738   0.317  -2.224  0.00  0.00    +0.000 C 
ATOM      8  N   UNL     1      -0.220   1.001  -1.244  0.00  0.00    +0.000 NA
ATOM      9  C   UNL     1      -0.799  -1.183  -2.221  0.00  0.00    +0.000 C 
BRANCH   7  11
ATOM     10  H   UNL     1      -1.266   2.010  -3.355  0.00  0.00    +0.000 HD
ATOM     11  O   UNL     1      -1.278   0.998  -3.312  0.00  0.00    +0.000 OA
ENDBRANCH   7  11
ENDBRANCH   1   8
BRANCH   2  12
ATOM     12  O   UNL     1      -1.095   1.693   1.362  0.00  0.00    +0.000 OA
ATOM     13  H   UNL     1      -1.147   2.425   2.031  0.00  0.00    +0.000 HD
ENDBRANCH   2  12
BRANCH   5  14
ATOM     14  O   UNL     1       3.983  -0.298   0.845  0.00  0.00    +0.000 OA
ATOM     15  H   UNL     1       4.146  -1.147   0.355  0.00  0.00    +0.000 HD
ENDBRANCH   5  14
BRANCH   6  16
ATOM     16  O   UNL     1       2.514   1.306  -0.851  0.00  0.00    +0.000 OA
ATOM     17  H   UNL     1       3.307   0.988  -1.357  0.00  0.00    +0.000 HD
ENDBRANCH   6  16
BRANCH   4  18
ATOM     18  C   UNL     1       2.876   0.463   3.486  0.00  0.00    +0.000 C 
BRANCH  18  19
ATOM     19  O   UNL     1       4.275   0.575   3.466  0.00  0.00    +0.000 OA
ATOM     20  H   UNL     1       4.643  -0.346   3.442  0.00  0.00    +0.000 HD
ENDBRANCH  18  19
ENDBRANCH   4  18
TORSDOF 7
