REMARK  Name = 25243937
REMARK  9 active torsions:
REMARK  status: ('A' for Active; 'I' for Inactive)
REMARK    1  A    between atoms: O_2  and  C_3
REMARK    2  A    between atoms: C_3  and  C_30
REMARK    3  A    between atoms: N_4  and  C_5
REMARK    4  A    between atoms: C_7  and  O_9
REMARK    5  A    between atoms: O_9  and  P_10
REMARK    6  A    between atoms: C_15  and  C_17
REMARK    7  A    between atoms: C_17  and  O_20
REMARK    8  A    between atoms: C_22  and  O_24
REMARK    9  A    between atoms: C_26  and  O_28
REMARK                            x       y       z     vdW  Elec       q    Type
REMARK                         _______ _______ _______ _____ _____    ______ ____
ROOT
ATOM      1  C   UNL     1      -0.169   0.530   0.383  0.00  0.00    +0.000 C 
ATOM      2  C   UNL     1       1.350   0.266   0.407  0.00  0.00    +0.000 C 
ATOM      3  O   UNL     1       1.839   0.021  -0.906  0.00  0.00    +0.000 OA
ATOM      4  C   UNL     1       1.263  -1.145  -1.473  0.00  0.00    +0.000 C 
ATOM      5  C   UNL     1      -0.271  -0.983  -1.623  0.00  0.00    +0.000 C 
ATOM      6  C   UNL     1      -0.903  -0.663  -0.258  0.00  0.00    +0.000 C 
ENDROOT
BRANCH   1   8
ATOM      7  C   UNL     1      -1.514   1.620   2.162  0.00  0.00    +0.000 C 
ATOM      8  N   UNL     1      -0.642   0.741   1.757  0.00  0.00    +0.000 NA
ATOM      9  C   UNL     1      -2.152   2.612   1.228  0.00  0.00    +0.000 C 
BRANCH   7  11
ATOM     10  H   UNL     1      -2.501   2.320   3.889  0.00  0.00    +0.000 HD
ATOM     11  O   UNL     1      -1.839   1.650   3.516  0.00  0.00    +0.000 OA
ENDBRANCH   7  11
ENDBRANCH   1   8
BRANCH   5  12
ATOM     12  O   UNL     1      -0.857  -2.135  -2.179  0.00  0.00    +0.000 OA
ATOM     13  H   UNL     1      -0.652  -2.898  -1.578  0.00  0.00    +0.000 HD
ENDBRANCH   5  12
BRANCH   6  14
ATOM     14  O   UNL     1      -2.262  -0.361  -0.442  0.00  0.00    +0.000 OA
ATOM     15  H   UNL     1      -2.720  -0.549   0.419  0.00  0.00    +0.000 HD
ENDBRANCH   6  14
BRANCH   2  16
ATOM     16  O   UNL     1       1.648  -0.807   1.283  0.00  0.00    +0.000 OA
BRANCH  16  17
ATOM     17  P   UNL     1       3.307  -0.768   1.682  0.00  0.00    +0.000 P 
ATOM     18  O   UNL     1       3.627  -1.955   2.562  0.00  0.00    +0.000 OA
ATOM     19  O   UNL     1       4.255  -0.851   0.283  0.00  0.00    +0.000 OA
ATOM     20  O   UNL     1       3.667   0.654   2.525  0.00  0.00    +0.000 OA
ENDBRANCH  16  17
ENDBRANCH   2  16
BRANCH   4  21
ATOM     21  C   UNL     1       1.932  -1.408  -2.828  0.00  0.00    +0.000 C 
BRANCH  21  22
ATOM     22  O   UNL     1       1.750  -0.313  -3.684  0.00  0.00    +0.000 OA
ATOM     23  H   UNL     1       2.204  -0.550  -4.535  0.00  0.00    +0.000 HD
ENDBRANCH  21  22
ENDBRANCH   4  21
TORSDOF 8
