REMARK  Name = 22833605
REMARK  9 active torsions:
REMARK  status: ('A' for Active; 'I' for Inactive)
REMARK    1  A    between atoms: C_1  and  C_2
REMARK    2  A    between atoms: C_2  and  O_3
REMARK    3  A    between atoms: C_2  and  C_15
REMARK    4  A    between atoms: O_3  and  C_4
REMARK    5  A    between atoms: C_5  and  O_6
REMARK    6  A    between atoms: C_7  and  C_8
REMARK    7  A    between atoms: C_8  and  O_9
REMARK    8  A    between atoms: C_11  and  O_12
REMARK    9  A    between atoms: C_13  and  N_14
REMARK                            x       y       z     vdW  Elec       q    Type
REMARK                         _______ _______ _______ _____ _____    ______ ____
ROOT
ATOM      1  C   UNL     1      -0.927  -1.113  -0.096  0.00  0.00    +0.000 C 
ATOM      2  C   UNL     1      -0.333  -1.592  -1.435  0.00  0.00    +0.000 C 
ATOM      3  C   UNL     1      -0.042  -0.377  -2.350  0.00  0.00    +0.000 C 
ATOM      4  O   UNL     1      -1.232   0.362  -2.568  0.00  0.00    +0.000 OA
ATOM      5  C   UNL     1      -1.702   0.933  -1.359  0.00  0.00    +0.000 C 
ATOM      6  C   UNL     1      -2.126  -0.179  -0.374  0.00  0.00    +0.000 C 
ENDROOT
BRANCH   6   7
ATOM      7  N   UNL     1      -2.623   0.400   0.878  0.00  0.00    +0.000 NA
ATOM      8  H   UNL     1      -2.960  -0.382   1.486  0.00  0.00    +0.000 HD
ATOM      9  H   UNL     1      -3.472   0.972   0.669  0.00  0.00    +0.000 HD
ENDBRANCH   6   7
BRANCH   2  10
ATOM     10  O   UNL     1       0.847  -2.318  -1.202  0.00  0.00    +0.000 OA
ATOM     11  H   UNL     1       0.572  -3.205  -0.852  0.00  0.00    +0.000 HD
ENDBRANCH   2  10
BRANCH   5  12
ATOM     12  O   UNL     1      -2.811   1.740  -1.649  0.00  0.00    +0.000 OA
ATOM     13  H   UNL     1      -2.472   2.499  -2.191  0.00  0.00    +0.000 HD
ENDBRANCH   5  12
BRANCH   1  14
ATOM     14  O   UNL     1       0.075  -0.411   0.631  0.00  0.00    +0.000 OA
BRANCH  14  16
ATOM     15  C   UNL     1       0.761   0.281   2.817  0.00  0.00    +0.000 C 
ATOM     16  C   UNL     1       0.168  -0.847   1.977  0.00  0.00    +0.000 C 
BRANCH  16  17
ATOM     17  C   UNL     1       1.044  -2.065   2.069  0.00  0.00    +0.000 C 
ATOM     18  O   UNL     1       2.199  -2.059   1.568  0.00  0.00    +0.000 OA
ATOM     19  O   UNL     1       0.584  -3.203   2.721  0.00  0.00    +0.000 OA
ENDBRANCH  16  17
ENDBRANCH  14  16
ENDBRANCH   1  14
BRANCH   3  20
ATOM     20  C   UNL     1       0.495  -0.820  -3.719  0.00  0.00    +0.000 C 
BRANCH  20  21
ATOM     21  O   UNL     1       1.786  -1.349  -3.591  0.00  0.00    +0.000 OA
ATOM     22  H   UNL     1       2.061  -1.627  -4.504  0.00  0.00    +0.000 HD
ENDBRANCH  20  21
ENDBRANCH   3  20
TORSDOF 8
