REMARK  Name = 118707521
REMARK  10 active torsions:
REMARK  status: ('A' for Active; 'I' for Inactive)
REMARK    1  A    between atoms: C_1  and  N_2
REMARK    2  A    between atoms: C_3  and  C_4
REMARK    3  A    between atoms: N_6  and  C_7
REMARK    4  A    between atoms: C_8  and  O_9
REMARK    5  A    between atoms: C_11  and  C_12
REMARK    6  A    between atoms: C_12  and  O_13
REMARK    7  A    between atoms: C_14  and  O_15
REMARK    8  A    between atoms: C_16  and  O_17
REMARK    9  A    between atoms: C_21  and  C_22
REMARK   10  A    between atoms: C_29  and  C_30
REMARK                            x       y       z     vdW  Elec       q    Type
REMARK                         _______ _______ _______ _____ _____    ______ ____
ROOT
ATOM      1  C   UNL     1      -0.206   1.275  -0.019  0.00  0.00    +0.000 A 
ATOM      2  C   UNL     1      -0.776   0.999  -1.244  0.00  0.00    +0.000 A 
ATOM      3  N   UNL     1      -1.307   2.156  -1.683  0.00  0.00    +0.000 N 
ATOM      4  N   UNL     1      -1.069   3.090  -0.775  0.00  0.00    +0.000 NA
ATOM      5  N   UNL     1      -0.389   2.584   0.244  0.00  0.00    +0.000 NA
ENDROOT
BRANCH   1   8
ATOM      6  C   UNL     1      -0.518  -1.819   0.181  0.00  0.00    +0.000 C 
ATOM      7  N   UNL     1       0.400  -0.975   0.949  0.00  0.00    +0.000 N 
ATOM      8  C   UNL     1       0.566   0.369   0.852  0.00  0.00    +0.000 A 
ATOM      9  N   UNL     1       1.554   0.831   1.648  0.00  0.00    +0.000 NA
ATOM     10  C   UNL     1       2.045  -0.266   2.258  0.00  0.00    +0.000 A 
ATOM     11  C   UNL     1       1.343  -1.382   1.827  0.00  0.00    +0.000 A 
BRANCH  10  12
ATOM     12  C   UNL     1       3.175  -0.218   3.212  0.00  0.00    +0.000 A 
ATOM     13  C   UNL     1       3.222  -1.069   4.331  0.00  0.00    +0.000 A 
ATOM     14  C   UNL     1       4.298  -1.006   5.222  0.00  0.00    +0.000 A 
ATOM     15  C   UNL     1       5.330  -0.087   5.010  0.00  0.00    +0.000 A 
ATOM     16  F   UNL     1       6.372  -0.027   5.875  0.00  0.00    +0.000 F 
ATOM     17  C   UNL     1       5.284   0.775   3.911  0.00  0.00    +0.000 A 
ATOM     18  C   UNL     1       4.209   0.715   3.019  0.00  0.00    +0.000 A 
ENDBRANCH  10  12
BRANCH  11  19
ATOM     19  C   UNL     1       1.650  -2.789   2.153  0.00  0.00    +0.000 A 
ATOM     20  C   UNL     1       0.706  -3.588   2.814  0.00  0.00    +0.000 A 
ATOM     21  C   UNL     1       1.032  -4.907   3.141  0.00  0.00    +0.000 A 
ATOM     22  N   UNL     1       2.258  -5.405   2.823  0.00  0.00    +0.000 NA
ATOM     23  C   UNL     1       3.194  -4.649   2.188  0.00  0.00    +0.000 A 
ATOM     24  C   UNL     1       2.909  -3.325   1.846  0.00  0.00    +0.000 A 
ENDBRANCH  11  19
ENDBRANCH   1   8
BRANCH   3  25
ATOM     25  C   UNL     1      -2.053   2.403  -2.925  0.00  0.00    +0.000 C 
ATOM     26  C   UNL     1      -1.273   1.903  -4.178  0.00  0.00    +0.000 C 
ATOM     27  O   UNL     1      -2.096   1.116  -5.023  0.00  0.00    +0.000 OA
ATOM     28  C   UNL     1      -2.522  -0.048  -4.337  0.00  0.00    +0.000 C 
ATOM     29  C   UNL     1      -3.542   0.312  -3.219  0.00  0.00    +0.000 C 
ATOM     30  C   UNL     1      -3.484   1.817  -2.844  0.00  0.00    +0.000 C 
BRANCH  26  31
ATOM     31  O   UNL     1      -0.817   3.013  -4.905  0.00  0.00    +0.000 OA
ATOM     32  H   UNL     1      -0.248   2.659  -5.639  0.00  0.00    +0.000 HD
ENDBRANCH  26  31
BRANCH  29  33
ATOM     33  O   UNL     1      -3.292  -0.483  -2.088  0.00  0.00    +0.000 OA
ATOM     34  H   UNL     1      -4.115  -0.465  -1.531  0.00  0.00    +0.000 HD
ENDBRANCH  29  33
BRANCH  30  35
ATOM     35  O   UNL     1      -4.309   2.544  -3.721  0.00  0.00    +0.000 OA
ATOM     36  H   UNL     1      -5.247   2.402  -3.423  0.00  0.00    +0.000 HD
ENDBRANCH  30  35
BRANCH  28  37
ATOM     37  C   UNL     1      -3.127  -1.020  -5.361  0.00  0.00    +0.000 C 
BRANCH  37  38
ATOM     38  O   UNL     1      -3.534  -2.212  -4.744  0.00  0.00    +0.000 OA
ATOM     39  H   UNL     1      -2.706  -2.716  -4.525  0.00  0.00    +0.000 HD
ENDBRANCH  37  38
ENDBRANCH  28  37
ENDBRANCH   3  25
TORSDOF 9
