REMARK  Name = 445621
REMARK  6 active torsions:
REMARK  status: ('A' for Active; 'I' for Inactive)
REMARK    1  A    between atoms: N_1  and  C_2
REMARK    2  A    between atoms: C_3  and  O_4
REMARK    3  A    between atoms: C_6  and  C_7
REMARK    4  A    between atoms: C_7  and  O_8
REMARK    5  A    between atoms: C_9  and  O_10
REMARK    6  A    between atoms: C_11  and  O_12
REMARK                            x       y       z     vdW  Elec       q    Type
REMARK                         _______ _______ _______ _____ _____    ______ ____
ROOT
ATOM      1  C   UNL     1      -2.315  -1.214   1.545  0.00  0.00    +0.000 C 
ATOM      2  C   UNL     1      -1.152  -2.246   1.461  0.00  0.00    +0.000 C 
ATOM      3  O   UNL     1      -0.485  -2.127   0.219  0.00  0.00    +0.000 OA
ATOM      4  C   UNL     1       0.262  -0.916   0.122  0.00  0.00    +0.000 C 
ATOM      5  C   UNL     1      -0.391   0.297   0.852  0.00  0.00    +0.000 C 
ATOM      6  C   UNL     1      -1.919   0.124   0.863  0.00  0.00    +0.000 C 
ENDROOT
BRANCH   1   7
ATOM      7  N   UNL     1      -3.554  -1.737   0.949  0.00  0.00    +0.000 N 
ATOM      8  H   UNL     1      -3.921  -2.533   1.519  0.00  0.00    +0.000 HD
ATOM      9  H   UNL     1      -3.380  -2.062  -0.031  0.00  0.00    +0.000 HD
ATOM     10  H   UNL     1      -4.287  -0.991   0.938  0.00  0.00    +0.000 HD
ENDBRANCH   1   7
BRANCH   2  11
ATOM     11  O   UNL     1      -1.629  -3.560   1.591  0.00  0.00    +0.000 OA
ATOM     12  H   UNL     1      -1.887  -3.678   2.542  0.00  0.00    +0.000 HD
ENDBRANCH   2  11
BRANCH   5  13
ATOM     13  O   UNL     1      -0.041   1.485   0.186  0.00  0.00    +0.000 OA
ATOM     14  H   UNL     1      -0.101   2.220   0.851  0.00  0.00    +0.000 HD
ENDBRANCH   5  13
BRANCH   6  15
ATOM     15  O   UNL     1      -2.525   1.190   1.549  0.00  0.00    +0.000 OA
ATOM     16  H   UNL     1      -2.626   1.935   0.901  0.00  0.00    +0.000 HD
ENDBRANCH   6  15
BRANCH   4  17
ATOM     17  C   UNL     1       1.713  -1.153   0.575  0.00  0.00    +0.000 C 
BRANCH  17  18
ATOM     18  O   UNL     1       2.509  -0.028   0.315  0.00  0.00    +0.000 OA
ATOM     19  H   UNL     1       2.684  -0.023  -0.662  0.00  0.00    +0.000 HD
ENDBRANCH  17  18
ENDBRANCH   4  17
TORSDOF 6
