REMARK  Name = 2733787
REMARK  10 active torsions:
REMARK  status: ('A' for Active; 'I' for Inactive)
REMARK    1  A    between atoms: O_2  and  C_3
REMARK    2  A    between atoms: C_3  and  C_45
REMARK    3  A    between atoms: N_4  and  C_5
REMARK    4  A    between atoms: C_7  and  O_9
REMARK    5  A    between atoms: O_9  and  C_10
REMARK    6  A    between atoms: C_16  and  C_17
REMARK    7  A    between atoms: C_30  and  C_32
REMARK    8  A    between atoms: C_32  and  O_35
REMARK    9  A    between atoms: C_37  and  O_39
REMARK   10  A    between atoms: C_41  and  O_43
REMARK                            x       y       z     vdW  Elec       q    Type
REMARK                         _______ _______ _______ _____ _____    ______ ____
ROOT
ATOM      1  C   UNL     1      -1.303   2.069   0.146  0.00  0.00    +0.000 C 
ATOM      2  C   UNL     1       0.193   2.307  -0.163  0.00  0.00    +0.000 C 
ATOM      3  O   UNL     1       0.646   3.456   0.531  0.00  0.00    +0.000 OA
ATOM      4  C   UNL     1       0.011   4.625   0.042  0.00  0.00    +0.000 C 
ATOM      5  C   UNL     1      -1.499   4.580   0.359  0.00  0.00    +0.000 C 
ATOM      6  C   UNL     1      -2.119   3.313  -0.254  0.00  0.00    +0.000 C 
ENDROOT
BRANCH   1   8
ATOM      7  C   UNL     1      -2.558  -0.048  -0.167  0.00  0.00    +0.000 C 
ATOM      8  N   UNL     1      -1.784   0.905  -0.604  0.00  0.00    +0.000 NA
ATOM      9  C   UNL     1      -3.068  -0.092   1.242  0.00  0.00    +0.000 C 
BRANCH   7  11
ATOM     10  H   UNL     1      -2.570  -1.104  -1.986  0.00  0.00    +0.000 HD
ATOM     11  O   UNL     1      -2.907  -1.083  -1.030  0.00  0.00    +0.000 OA
ENDBRANCH   7  11
ENDBRANCH   1   8
BRANCH   5  12
ATOM     12  O   UNL     1      -2.129   5.718  -0.173  0.00  0.00    +0.000 OA
ATOM     13  H   UNL     1      -2.981   5.835   0.323  0.00  0.00    +0.000 HD
ENDBRANCH   5  12
BRANCH   6  14
ATOM     14  O   UNL     1      -3.445   3.187   0.193  0.00  0.00    +0.000 OA
ATOM     15  H   UNL     1      -3.930   2.650  -0.487  0.00  0.00    +0.000 HD
ENDBRANCH   6  14
BRANCH   2  16
ATOM     16  O   UNL     1       0.965   1.195   0.301  0.00  0.00    +0.000 OA
BRANCH  16  17
ATOM     17  C   UNL     1       1.137  -0.040  -0.350  0.00  0.00    +0.000 A 
ATOM     18  C   UNL     1       1.706  -1.087   0.381  0.00  0.00    +0.000 A 
ATOM     19  C   UNL     1       1.892  -2.346  -0.196  0.00  0.00    +0.000 A 
ATOM     20  C   UNL     1       1.512  -2.580  -1.530  0.00  0.00    +0.000 A 
ATOM     21  C   UNL     1       1.669  -3.834  -2.163  0.00  0.00    +0.000 A 
ATOM     22  C   UNL     1       2.259  -5.022  -1.448  0.00  0.00    +0.000 C 
ATOM     23  C   UNL     1       1.260  -3.970  -3.497  0.00  0.00    +0.000 A 
ATOM     24  C   UNL     1       0.713  -2.871  -4.163  0.00  0.00    +0.000 A 
ATOM     25  O   UNL     1       0.343  -2.983  -5.361  0.00  0.00    +0.000 OA
ATOM     26  O   UNL     1       0.578  -1.706  -3.541  0.00  0.00    +0.000 OA
ATOM     27  C   UNL     1       0.947  -1.519  -2.277  0.00  0.00    +0.000 A 
ATOM     28  C   UNL     1       0.770  -0.261  -1.692  0.00  0.00    +0.000 A 
ENDBRANCH  16  17
ENDBRANCH   2  16
BRANCH   4  29
ATOM     29  C   UNL     1       0.668   5.848   0.700  0.00  0.00    +0.000 C 
BRANCH  29  30
ATOM     30  O   UNL     1       2.026   5.918   0.354  0.00  0.00    +0.000 OA
ATOM     31  H   UNL     1       2.509   5.298   0.961  0.00  0.00    +0.000 HD
ENDBRANCH  29  30
ENDBRANCH   4  29
TORSDOF 8
