REMARK  Name = 76325328
REMARK  10 active torsions:
REMARK  status: ('A' for Active; 'I' for Inactive)
REMARK    1  A    between atoms: C_1  and  N_2
REMARK    2  A    between atoms: C_3  and  C_4
REMARK    3  A    between atoms: N_6  and  C_7
REMARK    4  A    between atoms: C_8  and  O_9
REMARK    5  A    between atoms: C_11  and  C_12
REMARK    6  A    between atoms: C_12  and  O_13
REMARK    7  A    between atoms: C_14  and  O_15
REMARK    8  A    between atoms: C_16  and  O_17
REMARK    9  A    between atoms: C_21  and  C_22
REMARK   10  A    between atoms: C_29  and  C_30
REMARK                            x       y       z     vdW  Elec       q    Type
REMARK                         _______ _______ _______ _____ _____    ______ ____
ROOT
ATOM      1  C   UNL     1      -0.571   0.235  -0.190  0.00  0.00    +0.000 A 
ATOM      2  C   UNL     1       0.491  -0.637  -0.306  0.00  0.00    +0.000 A 
ATOM      3  N   UNL     1       0.434  -1.133  -1.553  0.00  0.00    +0.000 N 
ATOM      4  N   UNL     1      -0.616  -0.606  -2.165  0.00  0.00    +0.000 NA
ATOM      5  N   UNL     1      -1.246   0.234  -1.357  0.00  0.00    +0.000 NA
ENDROOT
BRANCH   1   8
ATOM      6  C   UNL     1      -2.862   2.311   0.025  0.00  0.00    +0.000 C 
ATOM      7  N   UNL     1      -1.964   1.887   1.101  0.00  0.00    +0.000 N 
ATOM      8  C   UNL     1      -0.935   1.009   1.013  0.00  0.00    +0.000 A 
ATOM      9  N   UNL     1      -0.249   0.892   2.170  0.00  0.00    +0.000 NA
ATOM     10  C   UNL     1      -0.879   1.719   3.029  0.00  0.00    +0.000 A 
ATOM     11  C   UNL     1      -1.940   2.333   2.377  0.00  0.00    +0.000 A 
BRANCH  10  12
ATOM     12  C   UNL     1      -0.464   1.876   4.440  0.00  0.00    +0.000 A 
ATOM     13  C   UNL     1       0.900   1.824   4.772  0.00  0.00    +0.000 A 
ATOM     14  C   UNL     1       1.311   1.961   6.101  0.00  0.00    +0.000 A 
ATOM     15  C   UNL     1       0.363   2.139   7.112  0.00  0.00    +0.000 A 
ATOM     16  F   UNL     1       0.762   2.271   8.401  0.00  0.00    +0.000 F 
ATOM     17  C   UNL     1      -0.998   2.171   6.795  0.00  0.00    +0.000 A 
ATOM     18  C   UNL     1      -1.412   2.034   5.467  0.00  0.00    +0.000 A 
ENDBRANCH  10  12
BRANCH  11  19
ATOM     19  C   UNL     1      -2.839   3.366   2.934  0.00  0.00    +0.000 A 
ATOM     20  C   UNL     1      -2.310   4.525   3.518  0.00  0.00    +0.000 A 
ATOM     21  C   UNL     1      -3.175   5.479   4.058  0.00  0.00    +0.000 A 
ATOM     22  N   UNL     1      -4.520   5.280   4.018  0.00  0.00    +0.000 NA
ATOM     23  C   UNL     1      -5.059   4.164   3.461  0.00  0.00    +0.000 A 
ATOM     24  C   UNL     1      -4.229   3.184   2.910  0.00  0.00    +0.000 A 
ENDBRANCH  11  19
ENDBRANCH   1   8
BRANCH   3  25
ATOM     25  C   UNL     1       1.323  -2.147  -2.127  0.00  0.00    +0.000 C 
ATOM     26  C   UNL     1       0.638  -3.526  -2.141  0.00  0.00    +0.000 C 
ATOM     27  O   UNL     1       1.492  -4.511  -2.704  0.00  0.00    +0.000 OA
ATOM     28  C   UNL     1       1.804  -4.229  -4.062  0.00  0.00    +0.000 C 
ATOM     29  C   UNL     1       2.589  -2.898  -4.180  0.00  0.00    +0.000 C 
ATOM     30  C   UNL     1       1.767  -1.757  -3.549  0.00  0.00    +0.000 C 
BRANCH  26  31
ATOM     31  O   UNL     1      -0.595  -3.476  -2.817  0.00  0.00    +0.000 OA
ATOM     32  H   UNL     1      -1.025  -4.359  -2.679  0.00  0.00    +0.000 HD
ENDBRANCH  26  31
BRANCH  29  33
ATOM     33  O   UNL     1       2.835  -2.605  -5.532  0.00  0.00    +0.000 OA
ATOM     34  H   UNL     1       3.597  -1.970  -5.555  0.00  0.00    +0.000 HD
ENDBRANCH  29  33
BRANCH  30  35
ATOM     35  O   UNL     1       2.499  -0.556  -3.533  0.00  0.00    +0.000 OA
ATOM     36  H   UNL     1       3.310  -0.704  -2.980  0.00  0.00    +0.000 HD
ENDBRANCH  30  35
BRANCH  28  37
ATOM     37  C   UNL     1       2.621  -5.409  -4.609  0.00  0.00    +0.000 C 
BRANCH  37  38
ATOM     38  O   UNL     1       2.767  -5.304  -5.998  0.00  0.00    +0.000 OA
ATOM     39  H   UNL     1       3.315  -6.083  -6.277  0.00  0.00    +0.000 HD
ENDBRANCH  37  38
ENDBRANCH  28  37
ENDBRANCH   3  25
TORSDOF 9
