REMARK  Name = 408523
REMARK  14 active torsions:
REMARK  status: ('A' for Active; 'I' for Inactive)
REMARK    1  A    between atoms: C_1  and  C_2
REMARK    2  A    between atoms: C_2  and  O_4
REMARK    3  A    between atoms: O_4  and  C_5
REMARK    4  A    between atoms: C_5  and  C_6
REMARK    5  A    between atoms: C_8  and  O_9
REMARK    6  A    between atoms: O_9  and  C_10
REMARK    7  A    between atoms: C_10  and  C_11
REMARK    8  A    between atoms: C_13  and  N_14
REMARK    9  A    between atoms: C_15  and  O_16
REMARK   10  A    between atoms: O_16  and  C_17
REMARK   11  A    between atoms: C_17  and  C_18
REMARK   12  A    between atoms: C_20  and  O_21
REMARK   13  A    between atoms: O_21  and  C_22
REMARK   14  A    between atoms: C_22  and  C_23
REMARK                            x       y       z     vdW  Elec       q    Type
REMARK                         _______ _______ _______ _____ _____    ______ ____
ROOT
ATOM      1  C   UNL     1      -0.526  -1.565  -0.899  0.00  0.00    +0.000 C 
ATOM      2  O   UNL     1      -1.396  -0.985   0.054  0.00  0.00    +0.000 OA
ATOM      3  C   UNL     1      -2.486  -0.323  -0.575  0.00  0.00    +0.000 C 
ATOM      4  C   UNL     1      -2.025   0.629  -1.723  0.00  0.00    +0.000 C 
ATOM      5  C   UNL     1      -0.511   0.885  -1.625  0.00  0.00    +0.000 C 
ATOM      6  C   UNL     1       0.242  -0.462  -1.691  0.00  0.00    +0.000 C 
ENDROOT
BRANCH   4   7
ATOM      7  N   UNL     1      -2.763   1.895  -1.708  0.00  0.00    +0.000 NA
ATOM      8  H   UNL     1      -2.458   2.466  -2.530  0.00  0.00    +0.000 HD
ATOM      9  H   UNL     1      -3.775   1.683  -1.867  0.00  0.00    +0.000 HD
ENDBRANCH   4   7
BRANCH   1  10
ATOM     10  C   UNL     1       0.429  -2.529  -0.175  0.00  0.00    +0.000 C 
BRANCH  10  11
ATOM     11  O   UNL     1       1.323  -1.832   0.694  0.00  0.00    +0.000 OA
BRANCH  11  13
ATOM     12  C   UNL     1       1.936  -0.533   2.734  0.00  0.00    +0.000 C 
ATOM     13  C   UNL     1       0.969  -1.365   1.965  0.00  0.00    +0.000 C 
ATOM     14  O   UNL     1      -0.134  -1.683   2.488  0.00  0.00    +0.000 OA
ENDBRANCH  11  13
ENDBRANCH  10  11
ENDBRANCH   1  10
BRANCH   3  15
ATOM     15  O   UNL     1      -3.192   0.417   0.421  0.00  0.00    +0.000 OA
BRANCH  15  16
ATOM     16  C   UNL     1      -3.826  -0.184   1.513  0.00  0.00    +0.000 C 
ATOM     17  C   UNL     1      -4.535   0.667   2.510  0.00  0.00    +0.000 C 
ATOM     18  O   UNL     1      -3.841  -1.439   1.640  0.00  0.00    +0.000 OA
ENDBRANCH  15  16
ENDBRANCH   3  15
BRANCH   5  19
ATOM     19  O   UNL     1      -0.229   1.559  -0.394  0.00  0.00    +0.000 OA
BRANCH  19  20
ATOM     20  C   UNL     1       0.982   2.206  -0.124  0.00  0.00    +0.000 C 
ATOM     21  C   UNL     1       1.194   2.833   1.212  0.00  0.00    +0.000 C 
ATOM     22  O   UNL     1       1.876   2.301  -1.008  0.00  0.00    +0.000 OA
ENDBRANCH  19  20
ENDBRANCH   5  19
BRANCH   6  23
ATOM     23  O   UNL     1       0.361  -0.848  -3.063  0.00  0.00    +0.000 OA
BRANCH  23  24
ATOM     24  C   UNL     1       1.403  -1.634  -3.567  0.00  0.00    +0.000 C 
ATOM     25  C   UNL     1       1.358  -2.090  -4.986  0.00  0.00    +0.000 C 
ATOM     26  O   UNL     1       2.374  -1.972  -2.837  0.00  0.00    +0.000 OA
ENDBRANCH  23  24
ENDBRANCH   6  23
TORSDOF 10
