REMARK  Name = 441038
REMARK  9 active torsions:
REMARK  status: ('A' for Active; 'I' for Inactive)
REMARK    1  A    between atoms: C_1  and  C_2
REMARK    2  A    between atoms: C_2  and  O_3
REMARK    3  A    between atoms: C_2  and  C_15
REMARK    4  A    between atoms: O_3  and  C_4
REMARK    5  A    between atoms: C_5  and  O_6
REMARK    6  A    between atoms: C_7  and  C_8
REMARK    7  A    between atoms: C_8  and  O_9
REMARK    8  A    between atoms: C_11  and  O_12
REMARK    9  A    between atoms: C_13  and  N_14
REMARK                            x       y       z     vdW  Elec       q    Type
REMARK                         _______ _______ _______ _____ _____    ______ ____
ROOT
ATOM      1  C   UNL     1      -0.236   0.612  -0.254  0.00  0.00    +0.000 C 
ATOM      2  C   UNL     1       0.872   0.468   0.805  0.00  0.00    +0.000 C 
ATOM      3  C   UNL     1       0.534  -0.700   1.762  0.00  0.00    +0.000 C 
ATOM      4  O   UNL     1      -0.724  -0.481   2.378  0.00  0.00    +0.000 OA
ATOM      5  C   UNL     1      -1.765  -0.509   1.419  0.00  0.00    +0.000 C 
ATOM      6  C   UNL     1      -1.610   0.677   0.436  0.00  0.00    +0.000 C 
ENDROOT
BRANCH   6   7
ATOM      7  N   UNL     1      -2.671   0.681  -0.576  0.00  0.00    +0.000 NA
ATOM      8  H   UNL     1      -3.582   0.903  -0.115  0.00  0.00    +0.000 HD
ATOM      9  H   UNL     1      -2.752  -0.270  -1.004  0.00  0.00    +0.000 HD
ENDBRANCH   6   7
BRANCH   2  10
ATOM     10  O   UNL     1       2.097   0.224   0.160  0.00  0.00    +0.000 OA
ATOM     11  H   UNL     1       2.799   0.709   0.666  0.00  0.00    +0.000 HD
ENDBRANCH   2  10
BRANCH   5  12
ATOM     12  O   UNL     1      -2.986  -0.397   2.104  0.00  0.00    +0.000 OA
ATOM     13  H   UNL     1      -3.671  -0.871   1.565  0.00  0.00    +0.000 HD
ENDBRANCH   5  12
BRANCH   1  14
ATOM     14  O   UNL     1      -0.038   1.815  -0.984  0.00  0.00    +0.000 OA
BRANCH  14  16
ATOM     15  C   UNL     1       1.244   2.829  -2.732  0.00  0.00    +0.000 C 
ATOM     16  C   UNL     1       0.512   1.573  -2.268  0.00  0.00    +0.000 C 
BRANCH  16  17
ATOM     17  C   UNL     1      -0.578   1.230  -3.245  0.00  0.00    +0.000 C 
ATOM     18  O   UNL     1      -1.608   1.950  -3.329  0.00  0.00    +0.000 OA
ATOM     19  O   UNL     1      -0.444   0.125  -4.075  0.00  0.00    +0.000 OA
ENDBRANCH  16  17
ENDBRANCH  14  16
ENDBRANCH   1  14
BRANCH   3  20
ATOM     20  C   UNL     1       1.596  -0.832   2.864  0.00  0.00    +0.000 C 
BRANCH  20  21
ATOM     21  O   UNL     1       1.253  -1.859   3.755  0.00  0.00    +0.000 OA
ATOM     22  H   UNL     1       1.445  -2.715   3.289  0.00  0.00    +0.000 HD
ENDBRANCH  20  21
ENDBRANCH   3  20
TORSDOF 8
