REMARK  Name = 84265
REMARK  8 active torsions:
REMARK  status: ('A' for Active; 'I' for Inactive)
REMARK    1  A    between atoms: O_2  and  C_3
REMARK    2  A    between atoms: C_3  and  C_27
REMARK    3  A    between atoms: N_4  and  C_5
REMARK    4  A    between atoms: C_7  and  O_9
REMARK    5  A    between atoms: C_12  and  C_14
REMARK    6  A    between atoms: C_14  and  O_17
REMARK    7  A    between atoms: C_19  and  O_21
REMARK    8  A    between atoms: C_23  and  O_25
REMARK                            x       y       z     vdW  Elec       q    Type
REMARK                         _______ _______ _______ _____ _____    ______ ____
ROOT
ATOM      1  C   UNL     1       0.599   0.483   0.980  0.00  0.00    +0.000 C 
ATOM      2  C   UNL     1      -0.806  -0.112   1.244  0.00  0.00    +0.000 C 
ATOM      3  O   UNL     1      -0.719  -1.367   1.902  0.00  0.00    +0.000 OA
ATOM      4  C   UNL     1      -0.028  -2.326   1.114  0.00  0.00    +0.000 C 
ATOM      5  C   UNL     1       1.438  -1.893   0.890  0.00  0.00    +0.000 C 
ATOM      6  C   UNL     1       1.458  -0.523   0.192  0.00  0.00    +0.000 C 
ENDROOT
BRANCH   1   8
ATOM      7  C   UNL     1       0.330   2.931   0.704  0.00  0.00    +0.000 C 
ATOM      8  N   UNL     1       0.494   1.734   0.219  0.00  0.00    +0.000 NA
ATOM      9  C   UNL     1       0.271   3.200   2.184  0.00  0.00    +0.000 C 
BRANCH   7  11
ATOM     10  H   UNL     1       0.116   4.950   0.133  0.00  0.00    +0.000 HD
ATOM     11  O   UNL     1       0.234   3.997  -0.188  0.00  0.00    +0.000 OA
ENDBRANCH   7  11
ENDBRANCH   1   8
BRANCH   2  12
ATOM     12  O   UNL     1      -1.550  -0.230   0.054  0.00  0.00    +0.000 OA
ATOM     13  H   UNL     1      -1.924   0.667  -0.148  0.00  0.00    +0.000 HD
ENDBRANCH   2  12
BRANCH   5  14
ATOM     14  O   UNL     1       2.107  -1.819   2.126  0.00  0.00    +0.000 OA
ATOM     15  H   UNL     1       3.075  -1.936   1.939  0.00  0.00    +0.000 HD
ENDBRANCH   5  14
BRANCH   6  16
ATOM     16  O   UNL     1       2.782  -0.064   0.094  0.00  0.00    +0.000 OA
ATOM     17  H   UNL     1       2.803   0.608  -0.636  0.00  0.00    +0.000 HD
ENDBRANCH   6  16
BRANCH   4  18
ATOM     18  C   UNL     1      -0.113  -3.687   1.816  0.00  0.00    +0.000 C 
BRANCH  18  19
ATOM     19  O   UNL     1       0.479  -4.680   1.023  0.00  0.00    +0.000 OA
ATOM     20  H   UNL     1       0.396  -5.526   1.534  0.00  0.00    +0.000 HD
ENDBRANCH  18  19
ENDBRANCH   4  18
TORSDOF 7
