REMARK  Name = ZINC000003956714
REMARK  9 active torsions:
REMARK  status: ('A' for Active; 'I' for Inactive)
REMARK    1  A    between atoms: C_1  and  C_2
REMARK    2  A    between atoms: N_4  and  C_5
REMARK    3  A    between atoms: C_6  and  O_7
REMARK    4  A    between atoms: O_7  and  C_8
REMARK    5  A    between atoms: C_8  and  C_9
REMARK    6  A    between atoms: C_16  and  C_17
REMARK    7  A    between atoms: C_17  and  O_18
REMARK    8  A    between atoms: C_19  and  O_20
REMARK    9  A    between atoms: C_21  and  O_22
REMARK                            x       y       z     vdW  Elec       q    Type
REMARK                         _______ _______ _______ _____ _____    ______ ____
ROOT
ATOM      1  C   UNL     1       1.143   0.022  -0.544  0.00  0.00    +0.000 C 
ATOM      2  C   UNL     1      -0.111   0.915  -0.603  0.00  0.00    +0.000 C 
ATOM      3  O   UNL     1      -0.063   1.794  -1.720  0.00  0.00    +0.000 OA
ATOM      4  C   UNL     1      -0.029   1.106  -2.966  0.00  0.00    +0.000 C 
ATOM      5  C   UNL     1       1.177   0.142  -3.078  0.00  0.00    +0.000 C 
ATOM      6  C   UNL     1       1.259  -0.786  -1.849  0.00  0.00    +0.000 C 
ENDROOT
BRANCH   1  10
ATOM      7  C   UNL     1       4.711   1.183   0.531  0.00  0.00    +0.000 C 
ATOM      8  C   UNL     1       3.494   0.330   0.390  0.00  0.00    +0.000 C 
ATOM      9  O   UNL     1       3.491  -0.835   0.873  0.00  0.00    +0.000 OA
ATOM     10  N   UNL     1       2.346   0.832  -0.309  0.00  0.00    +0.000 N 
ATOM     11  H   UNL     1       2.388   1.807  -0.684  0.00  0.00    +0.000 HD
ENDBRANCH   1  10
BRANCH   5  12
ATOM     12  O   UNL     1       2.355   0.900  -3.201  0.00  0.00    +0.000 OA
ATOM     13  H   UNL     1       3.033   0.318  -3.635  0.00  0.00    +0.000 HD
ENDBRANCH   5  12
BRANCH   6  14
ATOM     14  O   UNL     1       2.454  -1.524  -1.858  0.00  0.00    +0.000 OA
ATOM     15  H   UNL     1       2.370  -2.194  -2.586  0.00  0.00    +0.000 HD
ENDBRANCH   6  14
BRANCH   2  16
ATOM     16  O   UNL     1      -0.161   1.684   0.587  0.00  0.00    +0.000 OA
BRANCH  16  17
ATOM     17  C   UNL     1      -1.465   2.186   0.814  0.00  0.00    +0.000 C 
BRANCH  17  18
ATOM     18  C   UNL     1      -2.281   1.189   1.593  0.00  0.00    +0.000 A 
ATOM     19  C   UNL     1      -3.377   0.541   0.999  0.00  0.00    +0.000 A 
ATOM     20  C   UNL     1      -4.114  -0.402   1.722  0.00  0.00    +0.000 A 
ATOM     21  C   UNL     1      -3.761  -0.705   3.040  0.00  0.00    +0.000 A 
ATOM     22  C   UNL     1      -2.670  -0.068   3.636  0.00  0.00    +0.000 A 
ATOM     23  C   UNL     1      -1.929   0.875   2.916  0.00  0.00    +0.000 A 
ENDBRANCH  17  18
ENDBRANCH  16  17
ENDBRANCH   2  16
BRANCH   4  24
ATOM     24  C   UNL     1      -1.375   0.438  -3.325  0.00  0.00    +0.000 C 
BRANCH  24  25
ATOM     25  O   UNL     1      -2.420   1.369  -3.244  0.00  0.00    +0.000 OA
ATOM     26  H   UNL     1      -2.697   1.404  -2.292  0.00  0.00    +0.000 HD
ENDBRANCH  24  25
ENDBRANCH   4  24
TORSDOF 8
