REMARK  Name = 99461
REMARK  16 active torsions:
REMARK  status: ('A' for Active; 'I' for Inactive)
REMARK    1  A    between atoms: O_2  and  C_3
REMARK    2  A    between atoms: C_3  and  C_47
REMARK    3  A    between atoms: N_4  and  C_5
REMARK    4  A    between atoms: C_7  and  O_9
REMARK    5  A    between atoms: O_9  and  C_10
REMARK    6  A    between atoms: C_10  and  C_12
REMARK    7  A    between atoms: C_17  and  C_19
REMARK    8  A    between atoms: C_19  and  O_22
REMARK    9  A    between atoms: O_22  and  C_23
REMARK   10  A    between atoms: C_23  and  C_25
REMARK   11  A    between atoms: C_29  and  O_31
REMARK   12  A    between atoms: O_31  and  C_32
REMARK   13  A    between atoms: C_32  and  C_34
REMARK   14  A    between atoms: C_38  and  O_40
REMARK   15  A    between atoms: O_40  and  C_41
REMARK   16  A    between atoms: C_41  and  C_43
REMARK                            x       y       z     vdW  Elec       q    Type
REMARK                         _______ _______ _______ _____ _____    ______ ____
ROOT
ATOM      1  C   UNL     1      -0.690  -0.562   1.809  0.00  0.00    +0.000 C 
ATOM      2  C   UNL     1       0.566  -1.127   2.509  0.00  0.00    +0.000 C 
ATOM      3  O   UNL     1       1.734  -0.689   1.837  0.00  0.00    +0.000 OA
ATOM      4  C   UNL     1       1.796  -1.233   0.529  0.00  0.00    +0.000 C 
ATOM      5  C   UNL     1       0.631  -0.689  -0.334  0.00  0.00    +0.000 C 
ATOM      6  C   UNL     1      -0.704  -1.034   0.340  0.00  0.00    +0.000 C 
ENDROOT
BRANCH   1   8
ATOM      7  C   UNL     1      -3.034  -0.423   2.610  0.00  0.00    +0.000 C 
ATOM      8  N   UNL     1      -1.887  -1.033   2.510  0.00  0.00    +0.000 NA
ATOM      9  C   UNL     1      -4.128  -1.079   3.382  0.00  0.00    +0.000 C 
BRANCH   7  11
ATOM     10  H   UNL     1      -2.605   1.325   1.465  0.00  0.00    +0.000 HD
ATOM     11  O   UNL     1      -3.278   0.826   2.031  0.00  0.00    +0.000 OA
ENDBRANCH   7  11
ENDBRANCH   1   8
BRANCH   2  12
ATOM     12  O   UNL     1       0.629  -0.640   3.851  0.00  0.00    +0.000 OA
BRANCH  12  13
ATOM     13  C   UNL     1      -0.014  -1.248   4.937  0.00  0.00    +0.000 C 
ATOM     14  O   UNL     1      -0.604  -2.354   4.805  0.00  0.00    +0.000 OA
ATOM     15  C   UNL     1       0.051  -0.605   6.280  0.00  0.00    +0.000 C 
ENDBRANCH  12  13
ENDBRANCH   2  12
BRANCH   4  16
ATOM     16  C   UNL     1       3.164  -0.886  -0.071  0.00  0.00    +0.000 C 
BRANCH  16  17
ATOM     17  O   UNL     1       3.318   0.527  -0.170  0.00  0.00    +0.000 OA
BRANCH  17  18
ATOM     18  C   UNL     1       4.457   1.125  -0.715  0.00  0.00    +0.000 C 
ATOM     19  O   UNL     1       5.403   0.421  -1.163  0.00  0.00    +0.000 OA
ATOM     20  C   UNL     1       4.527   2.610  -0.818  0.00  0.00    +0.000 C 
ENDBRANCH  17  18
ENDBRANCH  16  17
ENDBRANCH   4  16
BRANCH   5  21
ATOM     21  O   UNL     1       0.650  -1.283  -1.635  0.00  0.00    +0.000 OA
BRANCH  21  22
ATOM     22  C   UNL     1       1.170  -0.658  -2.775  0.00  0.00    +0.000 C 
ATOM     23  O   UNL     1       1.608   0.524  -2.725  0.00  0.00    +0.000 OA
ATOM     24  C   UNL     1       1.157  -1.383  -4.076  0.00  0.00    +0.000 C 
ENDBRANCH  21  22
ENDBRANCH   5  21
BRANCH   6  25
ATOM     25  O   UNL     1      -1.759  -0.400  -0.387  0.00  0.00    +0.000 OA
BRANCH  25  26
ATOM     26  C   UNL     1      -3.016  -0.979  -0.603  0.00  0.00    +0.000 C 
ATOM     27  O   UNL     1      -3.272  -2.145  -0.199  0.00  0.00    +0.000 OA
ATOM     28  C   UNL     1      -4.058  -0.213  -1.343  0.00  0.00    +0.000 C 
ENDBRANCH  25  26
ENDBRANCH   6  25
TORSDOF 11
