REMARK  Name = 440235
REMARK  9 active torsions:
REMARK  status: ('A' for Active; 'I' for Inactive)
REMARK    1  A    between atoms: O_2  and  C_3
REMARK    2  A    between atoms: C_3  and  C_30
REMARK    3  A    between atoms: N_4  and  C_5
REMARK    4  A    between atoms: C_7  and  O_9
REMARK    5  A    between atoms: C_12  and  C_14
REMARK    6  A    between atoms: C_14  and  O_17
REMARK    7  A    between atoms: O_17  and  S_18
REMARK    8  A    between atoms: C_22  and  O_24
REMARK    9  A    between atoms: C_26  and  O_28
REMARK                            x       y       z     vdW  Elec       q    Type
REMARK                         _______ _______ _______ _____ _____    ______ ____
ROOT
ATOM      1  C   UNL     1      -0.382  -0.809   0.835  0.00  0.00    +0.000 C 
ATOM      2  C   UNL     1      -1.649  -1.589   0.398  0.00  0.00    +0.000 C 
ATOM      3  O   UNL     1      -1.450  -2.203  -0.863  0.00  0.00    +0.000 OA
ATOM      4  C   UNL     1      -1.439  -1.222  -1.892  0.00  0.00    +0.000 C 
ATOM      5  C   UNL     1      -0.436  -0.058  -1.604  0.00  0.00    +0.000 C 
ATOM      6  C   UNL     1       0.465  -0.385  -0.395  0.00  0.00    +0.000 C 
ENDROOT
BRANCH   1   8
ATOM      7  C   UNL     1       0.005   1.040   2.391  0.00  0.00    +0.000 C 
ATOM      8  N   UNL     1      -0.787   0.365   1.612  0.00  0.00    +0.000 NA
ATOM      9  C   UNL     1      -0.518   2.239   3.113  0.00  0.00    +0.000 C 
BRANCH   7  11
ATOM     10  H   UNL     1       1.972   1.200   3.127  0.00  0.00    +0.000 HD
ATOM     11  O   UNL     1       1.343   0.671   2.535  0.00  0.00    +0.000 OA
ENDBRANCH   7  11
ENDBRANCH   1   8
BRANCH   2  12
ATOM     12  O   UNL     1      -1.969  -2.567   1.353  0.00  0.00    +0.000 OA
ATOM     13  H   UNL     1      -1.290  -3.287   1.274  0.00  0.00    +0.000 HD
ENDBRANCH   2  12
BRANCH   5  14
ATOM     14  O   UNL     1      -1.160   1.121  -1.349  0.00  0.00    +0.000 OA
ATOM     15  H   UNL     1      -0.524   1.878  -1.438  0.00  0.00    +0.000 HD
ENDBRANCH   5  14
BRANCH   6  16
ATOM     16  O   UNL     1       1.345  -1.422  -0.749  0.00  0.00    +0.000 OA
ATOM     17  H   UNL     1       2.091  -1.404  -0.094  0.00  0.00    +0.000 HD
ENDBRANCH   6  16
BRANCH   4  18
ATOM     18  C   UNL     1      -1.131  -1.917  -3.224  0.00  0.00    +0.000 C 
BRANCH  18  19
ATOM     19  O   UNL     1       0.132  -2.536  -3.161  0.00  0.00    +0.000 OA
BRANCH  19  20
ATOM     20  S   UNL     1       0.473  -3.209  -4.677  0.00  0.00    +0.000 S 
ATOM     21  O   UNL     1       1.746  -4.000  -4.579  0.00  0.00    +0.000 OA
ATOM     22  O   UNL     1       0.652  -2.119  -5.696  0.00  0.00    +0.000 OA
ATOM     23  O   UNL     1      -0.768  -4.236  -5.157  0.00  0.00    +0.000 OA
ENDBRANCH  19  20
ENDBRANCH  18  19
ENDBRANCH   4  18
TORSDOF 8
