REMARK  Name = 90220
REMARK  9 active torsions:
REMARK  status: ('A' for Active; 'I' for Inactive)
REMARK    1  A    between atoms: C_1  and  C_2
REMARK    2  A    between atoms: N_4  and  C_5
REMARK    3  A    between atoms: C_6  and  O_7
REMARK    4  A    between atoms: O_7  and  C_8
REMARK    5  A    between atoms: C_11  and  N_12
REMARK    6  A    between atoms: C_18  and  C_19
REMARK    7  A    between atoms: C_19  and  O_20
REMARK    8  A    between atoms: C_21  and  O_22
REMARK    9  A    between atoms: C_23  and  O_24
REMARK                            x       y       z     vdW  Elec       q    Type
REMARK                         _______ _______ _______ _____ _____    ______ ____
ROOT
ATOM      1  C   UNL     1      -0.061   0.670   1.102  0.00  0.00    +0.000 C 
ATOM      2  C   UNL     1      -0.203   0.420  -0.415  0.00  0.00    +0.000 C 
ATOM      3  O   UNL     1       0.399  -0.809  -0.779  0.00  0.00    +0.000 OA
ATOM      4  C   UNL     1      -0.222  -1.935  -0.172  0.00  0.00    +0.000 C 
ATOM      5  C   UNL     1      -0.314  -1.833   1.378  0.00  0.00    +0.000 C 
ATOM      6  C   UNL     1      -0.777  -0.449   1.878  0.00  0.00    +0.000 C 
ENDROOT
BRANCH   1  10
ATOM      7  C   UNL     1       3.238   1.358   3.068  0.00  0.00    +0.000 C 
ATOM      8  C   UNL     1       1.784   1.324   2.726  0.00  0.00    +0.000 C 
ATOM      9  O   UNL     1       0.947   1.839   3.515  0.00  0.00    +0.000 OA
ATOM     10  N   UNL     1       1.355   0.739   1.489  0.00  0.00    +0.000 N 
ATOM     11  H   UNL     1       2.089   0.387   0.832  0.00  0.00    +0.000 HD
ENDBRANCH   1  10
BRANCH   5  12
ATOM     12  O   UNL     1      -1.141  -2.849   1.888  0.00  0.00    +0.000 OA
ATOM     13  H   UNL     1      -0.950  -2.915   2.860  0.00  0.00    +0.000 HD
ENDBRANCH   5  12
BRANCH   6  14
ATOM     14  O   UNL     1      -2.169  -0.319   1.746  0.00  0.00    +0.000 OA
ATOM     15  H   UNL     1      -2.444   0.445   2.318  0.00  0.00    +0.000 HD
ENDBRANCH   6  14
BRANCH   2  16
ATOM     16  O   UNL     1       0.459   1.461  -1.137  0.00  0.00    +0.000 OA
BRANCH  16  17
ATOM     17  C   UNL     1       0.003   2.782  -1.285  0.00  0.00    +0.000 A 
ATOM     18  C   UNL     1       0.855   3.705  -1.901  0.00  0.00    +0.000 A 
ATOM     19  C   UNL     1       0.460   5.034  -2.076  0.00  0.00    +0.000 A 
ATOM     20  C   UNL     1      -0.803   5.466  -1.639  0.00  0.00    +0.000 A 
ATOM     21  C   UNL     1      -1.663   4.538  -1.025  0.00  0.00    +0.000 A 
ATOM     22  C   UNL     1      -1.266   3.208  -0.850  0.00  0.00    +0.000 A 
BRANCH  20  23
ATOM     23  N   UNL     1      -1.208   6.835  -1.820  0.00  0.00    +0.000 N 
ATOM     24  O   UNL     1      -2.330   7.224  -1.433  0.00  0.00    +0.000 OA
ATOM     25  O   UNL     1      -0.365   7.740  -2.422  0.00  0.00    +0.000 OA
ENDBRANCH  20  23
ENDBRANCH  16  17
ENDBRANCH   2  16
BRANCH   4  26
ATOM     26  C   UNL     1      -1.506  -2.378  -0.914  0.00  0.00    +0.000 C 
BRANCH  26  27
ATOM     27  O   UNL     1      -2.618  -1.588  -0.587  0.00  0.00    +0.000 OA
ATOM     28  H   UNL     1      -3.171  -2.110   0.052  0.00  0.00    +0.000 HD
ENDBRANCH  26  27
ENDBRANCH   4  26
TORSDOF 8
