REMARK  Name = 57339290
REMARK  12 active torsions:
REMARK  status: ('A' for Active; 'I' for Inactive)
REMARK    1  A    between atoms: O_2  and  C_3
REMARK    2  A    between atoms: C_3  and  C_37
REMARK    3  A    between atoms: N_4  and  C_5
REMARK    4  A    between atoms: C_7  and  O_9
REMARK    5  A    between atoms: O_9  and  C_10
REMARK    6  A    between atoms: C_10  and  C_12
REMARK    7  A    between atoms: C_10  and  C_15
REMARK    8  A    between atoms: C_15  and  C_18
REMARK    9  A    between atoms: C_22  and  C_24
REMARK   10  A    between atoms: C_24  and  O_27
REMARK   11  A    between atoms: C_29  and  O_31
REMARK   12  A    between atoms: C_33  and  O_35
REMARK                            x       y       z     vdW  Elec       q    Type
REMARK                         _______ _______ _______ _____ _____    ______ ____
ROOT
ATOM      1  C   UNL     1       1.391  -1.031   0.204  0.00  0.00    +0.000 C 
ATOM      2  C   UNL     1       0.665   0.199  -0.385  0.00  0.00    +0.000 C 
ATOM      3  O   UNL     1       1.324   1.401  -0.017  0.00  0.00    +0.000 OA
ATOM      4  C   UNL     1       1.328   1.599   1.389  0.00  0.00    +0.000 C 
ATOM      5  C   UNL     1       2.129   0.476   2.088  0.00  0.00    +0.000 C 
ATOM      6  C   UNL     1       1.522  -0.889   1.730  0.00  0.00    +0.000 C 
ENDROOT
BRANCH   1   8
ATOM      7  C   UNL     1       0.591  -2.900  -1.233  0.00  0.00    +0.000 C 
ATOM      8  N   UNL     1       0.651  -2.262  -0.098  0.00  0.00    +0.000 NA
ATOM      9  C   UNL     1       1.316  -2.440  -2.469  0.00  0.00    +0.000 C 
BRANCH   7  11
ATOM     10  H   UNL     1      -0.307  -4.564  -2.165  0.00  0.00    +0.000 HD
ATOM     11  O   UNL     1      -0.206  -4.040  -1.304  0.00  0.00    +0.000 OA
ENDBRANCH   7  11
ENDBRANCH   1   8
BRANCH   5  12
ATOM     12  O   UNL     1       2.082   0.653   3.482  0.00  0.00    +0.000 OA
ATOM     13  H   UNL     1       2.864   0.172   3.860  0.00  0.00    +0.000 HD
ENDBRANCH   5  12
BRANCH   6  14
ATOM     14  O   UNL     1       2.349  -1.907   2.236  0.00  0.00    +0.000 OA
ATOM     15  H   UNL     1       1.786  -2.720   2.325  0.00  0.00    +0.000 HD
ENDBRANCH   6  14
BRANCH   2  16
ATOM     16  O   UNL     1      -0.697   0.208   0.029  0.00  0.00    +0.000 OA
BRANCH  16  17
ATOM     17  C   UNL     1      -1.541   0.833  -0.925  0.00  0.00    +0.000 C 
BRANCH  17  18
ATOM     18  C   UNL     1      -1.411   2.331  -0.836  0.00  0.00    +0.000 C 
ATOM     19  O   UNL     1      -1.058   2.996  -1.845  0.00  0.00    +0.000 OA
ATOM     20  O   UNL     1      -1.677   2.989   0.359  0.00  0.00    +0.000 OA
ENDBRANCH  17  18
BRANCH  17  21
ATOM     21  C   UNL     1      -2.987   0.403  -0.635  0.00  0.00    +0.000 C 
BRANCH  21  22
ATOM     22  C   UNL     1      -3.939   0.905  -1.679  0.00  0.00    +0.000 C 
ATOM     23  O   UNL     1      -4.068   0.287  -2.769  0.00  0.00    +0.000 OA
ATOM     24  O   UNL     1      -4.651   2.079  -1.465  0.00  0.00    +0.000 OA
ENDBRANCH  21  22
ENDBRANCH  17  21
ENDBRANCH  16  17
ENDBRANCH   2  16
BRANCH   4  25
ATOM     25  C   UNL     1       1.939   2.982   1.662  0.00  0.00    +0.000 C 
BRANCH  25  26
ATOM     26  O   UNL     1       1.738   3.362   2.998  0.00  0.00    +0.000 OA
ATOM     27  H   UNL     1       2.611   3.277   3.462  0.00  0.00    +0.000 HD
ENDBRANCH  25  26
ENDBRANCH   4  25
TORSDOF 11
