REMARK  Name = 440271
REMARK  8 active torsions:
REMARK  status: ('A' for Active; 'I' for Inactive)
REMARK    1  A    between atoms: C_1  and  C_2
REMARK    2  A    between atoms: N_4  and  C_5
REMARK    3  A    between atoms: C_6  and  O_7
REMARK    4  A    between atoms: C_9  and  C_10
REMARK    5  A    between atoms: C_10  and  O_11
REMARK    6  A    between atoms: O_11  and  S_12
REMARK    7  A    between atoms: C_16  and  O_17
REMARK    8  A    between atoms: C_18  and  O_19
REMARK                            x       y       z     vdW  Elec       q    Type
REMARK                         _______ _______ _______ _____ _____    ______ ____
ROOT
ATOM      1  C   UNL     1       0.342   0.074  -0.875  0.00  0.00    +0.000 C 
ATOM      2  C   UNL     1      -0.411   1.403  -1.115  0.00  0.00    +0.000 C 
ATOM      3  O   UNL     1       0.071   2.421  -0.251  0.00  0.00    +0.000 OA
ATOM      4  C   UNL     1      -0.196   2.090   1.103  0.00  0.00    +0.000 C 
ATOM      5  C   UNL     1       0.605   0.836   1.519  0.00  0.00    +0.000 C 
ATOM      6  C   UNL     1       0.213  -0.340   0.601  0.00  0.00    +0.000 C 
ENDROOT
BRANCH   1  10
ATOM      7  C   UNL     1      -0.025  -3.060  -3.170  0.00  0.00    +0.000 C 
ATOM      8  C   UNL     1       0.612  -1.963  -2.382  0.00  0.00    +0.000 C 
ATOM      9  O   UNL     1       1.867  -1.929  -2.264  0.00  0.00    +0.000 OA
ATOM     10  N   UNL     1      -0.208  -0.977  -1.738  0.00  0.00    +0.000 N 
ATOM     11  H   UNL     1      -1.246  -1.093  -1.784  0.00  0.00    +0.000 HD
ENDBRANCH   1  10
BRANCH   2  12
ATOM     12  O   UNL     1      -0.251   1.811  -2.448  0.00  0.00    +0.000 OA
ATOM     13  H   UNL     1       0.700   2.072  -2.562  0.00  0.00    +0.000 HD
ENDBRANCH   2  12
BRANCH   5  14
ATOM     14  O   UNL     1       1.984   1.094   1.415  0.00  0.00    +0.000 OA
ATOM     15  H   UNL     1       2.444   0.461   2.025  0.00  0.00    +0.000 HD
ENDBRANCH   5  14
BRANCH   6  16
ATOM     16  O   UNL     1       1.031  -1.454   0.852  0.00  0.00    +0.000 OA
ATOM     17  H   UNL     1       0.740  -1.832   1.722  0.00  0.00    +0.000 HD
ENDBRANCH   6  16
BRANCH   4  18
ATOM     18  C   UNL     1       0.156   3.290   1.990  0.00  0.00    +0.000 C 
BRANCH  18  19
ATOM     19  O   UNL     1      -0.665   4.379   1.639  0.00  0.00    +0.000 OA
BRANCH  19  20
ATOM     20  S   UNL     1      -0.258   5.699   2.621  0.00  0.00    +0.000 S 
ATOM     21  O   UNL     1      -0.475   5.361   4.070  0.00  0.00    +0.000 OA
ATOM     22  O   UNL     1       1.177   6.091   2.402  0.00  0.00    +0.000 OA
ATOM     23  O   UNL     1      -1.243   6.997   2.213  0.00  0.00    +0.000 OA
ENDBRANCH  19  20
ENDBRANCH  18  19
ENDBRANCH   4  18
TORSDOF 7
