REMARK  Name = 739
REMARK  6 active torsions:
REMARK  status: ('A' for Active; 'I' for Inactive)
REMARK    1  A    between atoms: N_1  and  C_2
REMARK    2  A    between atoms: C_3  and  O_4
REMARK    3  A    between atoms: C_6  and  C_7
REMARK    4  A    between atoms: C_7  and  O_8
REMARK    5  A    between atoms: C_9  and  O_10
REMARK    6  A    between atoms: C_11  and  O_12
REMARK                            x       y       z     vdW  Elec       q    Type
REMARK                         _______ _______ _______ _____ _____    ______ ____
ROOT
ATOM      1  C   UNL     1       0.724   1.084  -0.531  0.00  0.00    +0.000 C 
ATOM      2  C   UNL     1      -0.060   1.724   0.636  0.00  0.00    +0.000 C 
ATOM      3  O   UNL     1      -1.300   1.064   0.848  0.00  0.00    +0.000 OA
ATOM      4  C   UNL     1      -1.119  -0.292   1.228  0.00  0.00    +0.000 C 
ATOM      5  C   UNL     1      -0.427  -1.097   0.101  0.00  0.00    +0.000 C 
ATOM      6  C   UNL     1       0.909  -0.429  -0.271  0.00  0.00    +0.000 C 
ENDROOT
BRANCH   1   7
ATOM      7  N   UNL     1       0.048   1.348  -1.812  0.00  0.00    +0.000 N 
ATOM      8  H   UNL     1       0.590   0.933  -2.604  0.00  0.00    +0.000 HD
ATOM      9  H   UNL     1      -0.923   0.961  -1.817  0.00  0.00    +0.000 HD
ATOM     10  H   UNL     1      -0.004   2.380  -1.975  0.00  0.00    +0.000 HD
ENDBRANCH   1   7
BRANCH   2  11
ATOM     11  O   UNL     1       0.720   1.737   1.806  0.00  0.00    +0.000 OA
ATOM     12  H   UNL     1       0.201   2.246   2.482  0.00  0.00    +0.000 HD
ENDBRANCH   2  11
BRANCH   5  13
ATOM     13  O   UNL     1      -0.170  -2.409   0.537  0.00  0.00    +0.000 OA
ATOM     14  H   UNL     1      -0.921  -2.977   0.222  0.00  0.00    +0.000 HD
ENDBRANCH   5  13
BRANCH   6  15
ATOM     15  O   UNL     1       1.471  -1.050  -1.399  0.00  0.00    +0.000 OA
ATOM     16  H   UNL     1       1.876  -1.902  -1.090  0.00  0.00    +0.000 HD
ENDBRANCH   6  15
BRANCH   4  17
ATOM     17  C   UNL     1      -2.494  -0.886   1.556  0.00  0.00    +0.000 C 
BRANCH  17  18
ATOM     18  O   UNL     1      -3.101  -0.137   2.572  0.00  0.00    +0.000 OA
ATOM     19  H   UNL     1      -3.986  -0.556   2.733  0.00  0.00    +0.000 HD
ENDBRANCH  17  18
ENDBRANCH   4  17
TORSDOF 6
