REMARK  Name = 90659182
REMARK  10 active torsions:
REMARK  status: ('A' for Active; 'I' for Inactive)
REMARK    1  A    between atoms: O_2  and  C_3
REMARK    2  A    between atoms: C_3  and  C_32
REMARK    3  A    between atoms: N_4  and  C_5
REMARK    4  A    between atoms: C_7  and  O_9
REMARK    5  A    between atoms: C_12  and  C_14
REMARK    6  A    between atoms: C_14  and  O_17
REMARK    7  A    between atoms: C_19  and  O_21
REMARK    8  A    between atoms: O_21  and  C_22
REMARK    9  A    between atoms: C_22  and  C_24
REMARK   10  A    between atoms: C_28  and  O_30
REMARK                            x       y       z     vdW  Elec       q    Type
REMARK                         _______ _______ _______ _____ _____    ______ ____
ROOT
ATOM      1  C   UNL     1      -1.027  -1.201   2.232  0.00  0.00    +0.000 C 
ATOM      2  C   UNL     1       0.124  -2.174   1.883  0.00  0.00    +0.000 C 
ATOM      3  O   UNL     1       0.785  -1.824   0.677  0.00  0.00    +0.000 OA
ATOM      4  C   UNL     1      -0.099  -1.818  -0.432  0.00  0.00    +0.000 C 
ATOM      5  C   UNL     1      -1.159  -0.702  -0.278  0.00  0.00    +0.000 C 
ATOM      6  C   UNL     1      -1.947  -0.914   1.026  0.00  0.00    +0.000 C 
ENDROOT
BRANCH   1   8
ATOM      7  C   UNL     1       0.354   0.870   2.553  0.00  0.00    +0.000 C 
ATOM      8  N   UNL     1      -0.570   0.025   2.909  0.00  0.00    +0.000 NA
ATOM      9  C   UNL     1       0.626   2.055   3.422  0.00  0.00    +0.000 C 
BRANCH   7  11
ATOM     10  H   UNL     1       1.851   1.326   1.147  0.00  0.00    +0.000 HD
ATOM     11  O   UNL     1       1.121   0.674   1.410  0.00  0.00    +0.000 OA
ENDBRANCH   7  11
ENDBRANCH   1   8
BRANCH   2  12
ATOM     12  O   UNL     1      -0.358  -3.493   1.822  0.00  0.00    +0.000 OA
ATOM     13  H   UNL     1       0.436  -4.078   1.713  0.00  0.00    +0.000 HD
ENDBRANCH   2  12
BRANCH   6  14
ATOM     14  O   UNL     1      -2.754   0.205   1.301  0.00  0.00    +0.000 OA
ATOM     15  H   UNL     1      -3.629   0.052   0.858  0.00  0.00    +0.000 HD
ENDBRANCH   6  14
BRANCH   4  16
ATOM     16  C   UNL     1       0.749  -1.612  -1.700  0.00  0.00    +0.000 C 
BRANCH  16  17
ATOM     17  O   UNL     1      -0.015  -1.791  -2.862  0.00  0.00    +0.000 OA
ATOM     18  H   UNL     1      -0.160  -2.768  -2.960  0.00  0.00    +0.000 HD
ENDBRANCH  16  17
ENDBRANCH   4  16
BRANCH   5  19
ATOM     19  O   UNL     1      -2.057  -0.748  -1.390  0.00  0.00    +0.000 OA
BRANCH  19  20
ATOM     20  C   UNL     1      -2.763   0.362  -1.870  0.00  0.00    +0.000 C 
ATOM     21  O   UNL     1      -2.580   1.508  -1.377  0.00  0.00    +0.000 OA
ATOM     22  C   UNL     1      -3.696   0.193  -3.019  0.00  0.00    +0.000 C 
ENDBRANCH  19  20
ENDBRANCH   5  19
TORSDOF 8
