REMARK  Name = 439281
REMARK  7 active torsions:
REMARK  status: ('A' for Active; 'I' for Inactive)
REMARK    1  A    between atoms: C_1  and  C_2
REMARK    2  A    between atoms: N_4  and  C_5
REMARK    3  A    between atoms: C_6  and  O_7
REMARK    4  A    between atoms: C_9  and  C_10
REMARK    5  A    between atoms: C_10  and  O_11
REMARK    6  A    between atoms: C_12  and  O_13
REMARK    7  A    between atoms: C_14  and  O_15
REMARK                            x       y       z     vdW  Elec       q    Type
REMARK                         _______ _______ _______ _____ _____    ______ ____
ROOT
ATOM      1  C   UNL     1      -0.978   1.783  -1.162  0.00  0.00    +0.000 C 
ATOM      2  C   UNL     1      -2.097   1.272  -2.097  0.00  0.00    +0.000 C 
ATOM      3  O   UNL     1      -2.310  -0.122  -1.937  0.00  0.00    +0.000 OA
ATOM      4  C   UNL     1      -1.154  -0.876  -2.271  0.00  0.00    +0.000 C 
ATOM      5  C   UNL     1       0.028  -0.533  -1.330  0.00  0.00    +0.000 C 
ATOM      6  C   UNL     1       0.314   0.977  -1.392  0.00  0.00    +0.000 C 
ENDROOT
BRANCH   1  10
ATOM      7  C   UNL     1      -1.456   2.431   2.657  0.00  0.00    +0.000 C 
ATOM      8  C   UNL     1      -1.048   2.643   1.236  0.00  0.00    +0.000 C 
ATOM      9  O   UNL     1      -0.360   3.655   0.931  0.00  0.00    +0.000 OA
ATOM     10  N   UNL     1      -1.413   1.681   0.237  0.00  0.00    +0.000 N 
ATOM     11  H   UNL     1      -1.927   0.824   0.546  0.00  0.00    +0.000 HD
ENDBRANCH   1  10
BRANCH   2  12
ATOM     12  O   UNL     1      -1.819   1.579  -3.442  0.00  0.00    +0.000 OA
ATOM     13  H   UNL     1      -1.949   2.558  -3.547  0.00  0.00    +0.000 HD
ENDBRANCH   2  12
BRANCH   5  14
ATOM     14  O   UNL     1       1.182  -1.230  -1.731  0.00  0.00    +0.000 OA
ATOM     15  H   UNL     1       1.223  -2.063  -1.194  0.00  0.00    +0.000 HD
ENDBRANCH   5  14
BRANCH   6  16
ATOM     16  O   UNL     1       1.273   1.333  -0.429  0.00  0.00    +0.000 OA
ATOM     17  H   UNL     1       2.159   1.068  -0.791  0.00  0.00    +0.000 HD
ENDBRANCH   6  16
BRANCH   4  18
ATOM     18  C   UNL     1      -1.515  -2.366  -2.201  0.00  0.00    +0.000 C 
BRANCH  18  19
ATOM     19  O   UNL     1      -1.922  -2.711  -0.905  0.00  0.00    +0.000 OA
ATOM     20  H   UNL     1      -2.134  -3.679  -0.932  0.00  0.00    +0.000 HD
ENDBRANCH  18  19
ENDBRANCH   4  18
TORSDOF 6
