REMARK  Name = ZINC000004027859
REMARK  6 active torsions:
REMARK  status: ('A' for Active; 'I' for Inactive)
REMARK    1  A    between atoms: O_2  and  C_3
REMARK    2  A    between atoms: C_3  and  C_38
REMARK    3  A    between atoms: N_4  and  C_5
REMARK    4  A    between atoms: C_7  and  O_9
REMARK    5  A    between atoms: C_14  and  C_16
REMARK    6  A    between atoms: C_34  and  O_36
REMARK                            x       y       z     vdW  Elec       q    Type
REMARK                         _______ _______ _______ _____ _____    ______ ____
ROOT
ATOM      1  C   UNL     1      -1.019  -1.527   1.286  0.00  0.00    +0.000 C 
ATOM      2  C   UNL     1      -1.192  -0.063   0.824  0.00  0.00    +0.000 C 
ATOM      3  C   UNL     1       0.180   0.628   0.831  0.00  0.00    +0.000 C 
ATOM      4  O   UNL     1       0.089   1.938   0.307  0.00  0.00    +0.000 OA
ATOM      5  C   UNL     1       1.368   2.556   0.350  0.00  0.00    +0.000 C 
ATOM      6  O   UNL     1       2.295   1.873  -0.483  0.00  0.00    +0.000 OA
ATOM      7  C   UNL     1       2.492   0.554  -0.011  0.00  0.00    +0.000 C 
ATOM      8  C   UNL     1       1.167  -0.202  -0.001  0.00  0.00    +0.000 C 
ATOM      9  O   UNL     1       1.331  -1.488   0.568  0.00  0.00    +0.000 OA
ATOM     10  C   UNL     1       0.112  -2.214   0.477  0.00  0.00    +0.000 C 
ENDROOT
BRANCH   5  11
ATOM     11  C   UNL     1       1.229   3.968  -0.156  0.00  0.00    +0.000 A 
ATOM     12  C   UNL     1       0.745   4.205  -1.455  0.00  0.00    +0.000 A 
ATOM     13  C   UNL     1       0.614   5.512  -1.932  0.00  0.00    +0.000 A 
ATOM     14  C   UNL     1       0.965   6.593  -1.119  0.00  0.00    +0.000 A 
ATOM     15  C   UNL     1       1.448   6.368   0.173  0.00  0.00    +0.000 A 
ATOM     16  C   UNL     1       1.581   5.062   0.655  0.00  0.00    +0.000 A 
ENDBRANCH   5  11
BRANCH   1  18
ATOM     17  C   UNL     1      -3.260  -2.354   1.944  0.00  0.00    +0.000 C 
ATOM     18  N   UNL     1      -2.268  -2.274   1.103  0.00  0.00    +0.000 NA
ATOM     19  C   UNL     1      -3.226  -1.692   3.295  0.00  0.00    +0.000 C 
BRANCH  17  21
ATOM     20  H   UNL     1      -5.172  -3.206   2.195  0.00  0.00    +0.000 HD
ATOM     21  O   UNL     1      -4.376  -3.102   1.577  0.00  0.00    +0.000 OA
ENDBRANCH  17  21
ENDBRANCH   1  18
BRANCH   2  22
ATOM     22  O   UNL     1      -1.755  -0.032  -0.465  0.00  0.00    +0.000 OA
ATOM     23  H   UNL     1      -2.158   0.868  -0.584  0.00  0.00    +0.000 HD
ENDBRANCH   2  22
BRANCH  10  24
ATOM     24  O   UNL     1       0.314  -3.519   0.953  0.00  0.00    +0.000 OA
ATOM     25  H   UNL     1       0.714  -3.442   1.859  0.00  0.00    +0.000 HD
ENDBRANCH  10  24
TORSDOF 5
