REMARK  Name = ZINC000257347638
REMARK  9 active torsions:
REMARK  status: ('A' for Active; 'I' for Inactive)
REMARK    1  A    between atoms: O_2  and  C_3
REMARK    2  A    between atoms: C_3  and  C_47
REMARK    3  A    between atoms: N_4  and  C_5
REMARK    4  A    between atoms: C_7  and  O_9
REMARK    5  A    between atoms: O_9  and  S_10
REMARK    6  A    between atoms: S_10  and  C_13
REMARK    7  A    between atoms: C_20  and  C_22
REMARK    8  A    between atoms: C_40  and  O_42
REMARK    9  A    between atoms: O_42  and  C_43
REMARK                            x       y       z     vdW  Elec       q    Type
REMARK                         _______ _______ _______ _____ _____    ______ ____
ROOT
ATOM      1  C   UNL     1       0.526  -0.830   1.337  0.00  0.00    +0.000 C 
ATOM      2  C   UNL     1       0.570  -0.158  -0.056  0.00  0.00    +0.000 C 
ATOM      3  C   UNL     1       1.745   0.838  -0.081  0.00  0.00    +0.000 C 
ATOM      4  O   UNL     1       1.911   1.385  -1.375  0.00  0.00    +0.000 OA
ATOM      5  C   UNL     1       3.124   2.130  -1.503  0.00  0.00    +0.000 C 
ATOM      6  O   UNL     1       3.768   2.388  -0.262  0.00  0.00    +0.000 OA
ATOM      7  C   UNL     1       4.181   1.170   0.331  0.00  0.00    +0.000 C 
ATOM      8  C   UNL     1       3.037   0.140   0.379  0.00  0.00    +0.000 C 
ATOM      9  O   UNL     1       2.884  -0.365   1.693  0.00  0.00    +0.000 OA
ATOM     10  C   UNL     1       1.912  -1.402   1.709  0.00  0.00    +0.000 C 
ENDROOT
BRANCH   5  11
ATOM     11  C   UNL     1       2.839   3.450  -2.174  0.00  0.00    +0.000 A 
ATOM     12  C   UNL     1       3.823   4.054  -2.980  0.00  0.00    +0.000 A 
ATOM     13  C   UNL     1       3.587   5.300  -3.568  0.00  0.00    +0.000 A 
ATOM     14  C   UNL     1       2.370   5.956  -3.353  0.00  0.00    +0.000 A 
ATOM     15  C   UNL     1       1.398   5.378  -2.531  0.00  0.00    +0.000 A 
ATOM     16  C   UNL     1       1.634   4.136  -1.934  0.00  0.00    +0.000 A 
ENDBRANCH   5  11
BRANCH   1  18
ATOM     17  C   UNL     1      -1.747  -1.722   1.501  0.00  0.00    +0.000 C 
ATOM     18  N   UNL     1      -0.467  -1.905   1.363  0.00  0.00    +0.000 NA
BRANCH  17  19
ATOM     19  C   UNL     1      -2.654  -2.895   1.500  0.00  0.00    +0.000 A 
ATOM     20  C   UNL     1      -3.896  -2.848   2.161  0.00  0.00    +0.000 A 
ATOM     21  C   UNL     1      -4.741  -3.962   2.164  0.00  0.00    +0.000 A 
ATOM     22  C   UNL     1      -4.356  -5.136   1.514  0.00  0.00    +0.000 A 
ATOM     23  C   UNL     1      -3.122  -5.200   0.862  0.00  0.00    +0.000 A 
ATOM     24  C   UNL     1      -2.273  -4.089   0.857  0.00  0.00    +0.000 A 
ENDBRANCH  17  19
BRANCH  17  26
ATOM     25  H   UNL     1      -3.243  -0.222   1.634  0.00  0.00    +0.000 HD
ATOM     26  O   UNL     1      -2.251  -0.425   1.646  0.00  0.00    +0.000 OA
ENDBRANCH  17  26
ENDBRANCH   1  18
BRANCH  10  27
ATOM     27  O   UNL     1       1.832  -1.948   3.012  0.00  0.00    +0.000 OA
ATOM     28  C   UNL     1       2.989  -2.704   3.294  0.00  0.00    +0.000 C 
ENDBRANCH  10  27
BRANCH   2  29
ATOM     29  O   UNL     1       0.753  -1.151  -1.052  0.00  0.00    +0.000 OA
BRANCH  29  30
ATOM     30  S   UNL     1      -0.299  -0.902  -2.365  0.00  0.00    +0.000 S 
ATOM     31  O   UNL     1       0.160  -1.763  -3.508  0.00  0.00    +0.000 OA
ATOM     32  O   UNL     1      -0.278   0.535  -2.812  0.00  0.00    +0.000 OA
ATOM     33  C   UNL     1      -1.964  -1.367  -1.943  0.00  0.00    +0.000 C 
ENDBRANCH  29  30
ENDBRANCH   2  29
TORSDOF 7
