REMARK  Name = ZINC000015205814
REMARK  9 active torsions:
REMARK  status: ('A' for Active; 'I' for Inactive)
REMARK    1  A    between atoms: C_1  and  C_2
REMARK    2  A    between atoms: N_4  and  C_5
REMARK    3  A    between atoms: C_6  and  O_7
REMARK    4  A    between atoms: O_7  and  C_8
REMARK    5  A    between atoms: C_11  and  N_12
REMARK    6  A    between atoms: C_18  and  C_19
REMARK    7  A    between atoms: C_19  and  O_20
REMARK    8  A    between atoms: C_21  and  O_22
REMARK    9  A    between atoms: C_23  and  O_24
REMARK                            x       y       z     vdW  Elec       q    Type
REMARK                         _______ _______ _______ _____ _____    ______ ____
ROOT
ATOM      1  C   UNL     1       0.144  -1.513   1.469  0.00  0.00    +0.000 C 
ATOM      2  C   UNL     1       0.189  -0.393   0.413  0.00  0.00    +0.000 C 
ATOM      3  O   UNL     1      -0.956  -0.462  -0.420  0.00  0.00    +0.000 OA
ATOM      4  C   UNL     1      -0.950  -1.659  -1.181  0.00  0.00    +0.000 C 
ATOM      5  C   UNL     1      -1.074  -2.892  -0.248  0.00  0.00    +0.000 C 
ATOM      6  C   UNL     1       0.077  -2.888   0.776  0.00  0.00    +0.000 C 
ENDROOT
BRANCH   1  10
ATOM      7  C   UNL     1       2.527  -0.667   4.440  0.00  0.00    +0.000 C 
ATOM      8  C   UNL     1       1.270  -0.825   3.648  0.00  0.00    +0.000 C 
ATOM      9  O   UNL     1       0.183  -0.392   4.117  0.00  0.00    +0.000 OA
ATOM     10  N   UNL     1       1.315  -1.432   2.349  0.00  0.00    +0.000 N 
ATOM     11  H   UNL     1       2.253  -1.684   1.962  0.00  0.00    +0.000 HD
ENDBRANCH   1  10
BRANCH   5  12
ATOM     12  O   UNL     1      -1.029  -4.083  -0.995  0.00  0.00    +0.000 OA
ATOM     13  H   UNL     1      -1.967  -4.332  -1.206  0.00  0.00    +0.000 HD
ENDBRANCH   5  12
BRANCH   6  14
ATOM     14  O   UNL     1       1.299  -3.163   0.133  0.00  0.00    +0.000 OA
ATOM     15  H   UNL     1       1.379  -4.151   0.072  0.00  0.00    +0.000 HD
ENDBRANCH   6  14
BRANCH   2  16
ATOM     16  O   UNL     1       0.198   0.868   1.083  0.00  0.00    +0.000 OA
BRANCH  16  17
ATOM     17  C   UNL     1       0.354   2.111   0.451  0.00  0.00    +0.000 A 
ATOM     18  C   UNL     1       0.327   3.264   1.243  0.00  0.00    +0.000 A 
ATOM     19  C   UNL     1       0.477   4.528   0.667  0.00  0.00    +0.000 A 
ATOM     20  C   UNL     1       0.658   4.662  -0.720  0.00  0.00    +0.000 A 
ATOM     21  C   UNL     1       0.687   3.503  -1.517  0.00  0.00    +0.000 A 
ATOM     22  C   UNL     1       0.537   2.239  -0.938  0.00  0.00    +0.000 A 
BRANCH  20  23
ATOM     23  N   UNL     1       0.813   5.965  -1.312  0.00  0.00    +0.000 N 
ATOM     24  O   UNL     1       0.974   6.090  -2.544  0.00  0.00    +0.000 OA
ATOM     25  O   UNL     1       0.784   7.096  -0.529  0.00  0.00    +0.000 OA
ENDBRANCH  20  23
ENDBRANCH  16  17
ENDBRANCH   2  16
BRANCH   4  26
ATOM     26  C   UNL     1      -2.101  -1.593  -2.193  0.00  0.00    +0.000 C 
BRANCH  26  27
ATOM     27  O   UNL     1      -3.331  -1.483  -1.530  0.00  0.00    +0.000 OA
ATOM     28  H   UNL     1      -4.024  -1.449  -2.240  0.00  0.00    +0.000 HD
ENDBRANCH  26  27
ENDBRANCH   4  26
TORSDOF 8
