REMARK  Name = ZINC000307008534
REMARK  8 active torsions:
REMARK  status: ('A' for Active; 'I' for Inactive)
REMARK    1  A    between atoms: C_1  and  N_2
REMARK    2  A    between atoms: N_2  and  C_3
REMARK    3  A    between atoms: C_4  and  O_5
REMARK    4  A    between atoms: O_5  and  C_6
REMARK    5  A    between atoms: C_8  and  C_9
REMARK    6  A    between atoms: C_9  and  O_10
REMARK    7  A    between atoms: C_11  and  O_12
REMARK    8  A    between atoms: C_13  and  O_14
REMARK                            x       y       z     vdW  Elec       q    Type
REMARK                         _______ _______ _______ _____ _____    ______ ____
ROOT
ATOM      1  C   UNL     1       0.859   0.660  -0.636  0.00  0.00    +0.000 C 
ATOM      2  C   UNL     1       0.404  -0.688  -1.293  0.00  0.00    +0.000 C 
ATOM      3  O   UNL     1      -0.980  -0.969  -1.094  0.00  0.00    +0.000 OA
ATOM      4  C   UNL     1      -1.355  -0.749   0.254  0.00  0.00    +0.000 C 
ATOM      5  C   UNL     1      -1.405   0.772   0.546  0.00  0.00    +0.000 C 
ATOM      6  C   UNL     1      -0.395   1.527  -0.351  0.00  0.00    +0.000 C 
ENDROOT
BRANCH   1   8
ATOM      7  C   UNL     1       3.080   0.363   0.324  0.00  0.00    +0.000 C 
ATOM      8  N   UNL     1       1.640   0.410   0.600  0.00  0.00    +0.000 NA
ATOM      9  H   UNL     1       1.500   1.182   1.292  0.00  0.00    +0.000 HD
ENDBRANCH   1   8
BRANCH   2  10
ATOM     10  O   UNL     1       1.194  -1.773  -0.831  0.00  0.00    +0.000 OA
ATOM     11  C   UNL     1       1.059  -2.881  -1.694  0.00  0.00    +0.000 C 
ENDBRANCH   2  10
BRANCH   5  12
ATOM     12  O   UNL     1      -1.125   0.985   1.907  0.00  0.00    +0.000 OA
ATOM     13  H   UNL     1      -1.554   1.843   2.163  0.00  0.00    +0.000 HD
ENDBRANCH   5  12
BRANCH   6  14
ATOM     14  O   UNL     1      -0.047   2.763   0.220  0.00  0.00    +0.000 OA
ATOM     15  H   UNL     1       0.402   3.292  -0.491  0.00  0.00    +0.000 HD
ENDBRANCH   6  14
BRANCH   4  16
ATOM     16  C   UNL     1      -2.718  -1.404   0.511  0.00  0.00    +0.000 C 
BRANCH  16  17
ATOM     17  O   UNL     1      -2.624  -2.797   0.377  0.00  0.00    +0.000 OA
ATOM     18  H   UNL     1      -2.647  -2.993  -0.596  0.00  0.00    +0.000 HD
ENDBRANCH  16  17
ENDBRANCH   4  16
TORSDOF 6
