REMARK  Name = ZINC000101073479
REMARK  9 active torsions:
REMARK  status: ('A' for Active; 'I' for Inactive)
REMARK    1  A    between atoms: C_1  and  O_2
REMARK    2  A    between atoms: O_2  and  C_3
REMARK    3  A    between atoms: C_6  and  C_7
REMARK    4  A    between atoms: N_8  and  C_9
REMARK    5  A    between atoms: C_10  and  O_11
REMARK    6  A    between atoms: C_12  and  O_13
REMARK    7  A    between atoms: C_14  and  C_15
REMARK    8  A    between atoms: C_15  and  O_16
REMARK    9  A    between atoms: C_18  and  O_19
REMARK                            x       y       z     vdW  Elec       q    Type
REMARK                         _______ _______ _______ _____ _____    ______ ____
ROOT
ATOM      1  C   UNL     1       0.009   1.357  -0.794  0.00  0.00    +0.000 C 
ATOM      2  C   UNL     1       0.286   2.834  -1.124  0.00  0.00    +0.000 C 
ATOM      3  C   UNL     1       1.671   3.279  -0.589  0.00  0.00    +0.000 C 
ATOM      4  C   UNL     1       1.997   2.560   0.748  0.00  0.00    +0.000 C 
ATOM      5  O   UNL     1       0.799   2.196   1.408  0.00  0.00    +0.000 OA
ATOM      6  C   UNL     1       0.168   1.111   0.738  0.00  0.00    +0.000 C 
ENDROOT
BRANCH   1   8
ATOM      7  C   UNL     1       0.691  -0.647  -2.090  0.00  0.00    +0.000 C 
ATOM      8  N   UNL     1       0.944   0.509  -1.546  0.00  0.00    +0.000 NA
BRANCH   7  12
ATOM      9  C   UNL     1      -3.147  -2.567  -2.079  0.00  0.00    +0.000 A 
ATOM     10  C   UNL     1      -2.522  -2.217  -3.291  0.00  0.00    +0.000 A 
ATOM     11  C   UNL     1      -1.271  -1.591  -3.284  0.00  0.00    +0.000 A 
ATOM     12  C   UNL     1      -0.637  -1.290  -2.071  0.00  0.00    +0.000 A 
ATOM     13  C   UNL     1      -1.247  -1.663  -0.865  0.00  0.00    +0.000 A 
ATOM     14  C   UNL     1      -2.497  -2.289  -0.871  0.00  0.00    +0.000 A 
BRANCH   9  16
ATOM     15  C   UNL     1      -5.172  -3.536  -3.179  0.00  0.00    +0.000 C 
ATOM     16  O   UNL     1      -4.401  -3.194  -2.032  0.00  0.00    +0.000 OA
ENDBRANCH   9  16
ENDBRANCH   7  12
ENDBRANCH   1   8
BRANCH   2  17
ATOM     17  O   UNL     1       0.183   3.043  -2.510  0.00  0.00    +0.000 OA
ATOM     18  H   UNL     1       0.118   4.024  -2.646  0.00  0.00    +0.000 HD
ENDBRANCH   2  17
BRANCH   3  19
ATOM     19  O   UNL     1       2.681   2.986  -1.522  0.00  0.00    +0.000 OA
ATOM     20  H   UNL     1       2.717   3.744  -2.163  0.00  0.00    +0.000 HD
ENDBRANCH   3  19
BRANCH   6  21
ATOM     21  O   UNL     1      -1.104   0.923   1.299  0.00  0.00    +0.000 OA
ATOM     22  H   UNL     1      -0.959   0.630   2.236  0.00  0.00    +0.000 HD
ENDBRANCH   6  21
BRANCH   4  23
ATOM     23  C   UNL     1       2.821   3.456   1.683  0.00  0.00    +0.000 C 
BRANCH  23  24
ATOM     24  O   UNL     1       4.034   3.825   1.083  0.00  0.00    +0.000 OA
ATOM     25  H   UNL     1       4.623   3.027   1.118  0.00  0.00    +0.000 HD
ENDBRANCH  23  24
ENDBRANCH   4  23
TORSDOF 8
