REMARK  Name = ZINC000015205949
REMARK  10 active torsions:
REMARK  status: ('A' for Active; 'I' for Inactive)
REMARK    1  A    between atoms: O_2  and  C_3
REMARK    2  A    between atoms: C_3  and  C_39
REMARK    3  A    between atoms: N_4  and  C_5
REMARK    4  A    between atoms: C_7  and  O_9
REMARK    5  A    between atoms: C_11  and  O_13
REMARK    6  A    between atoms: C_15  and  C_17
REMARK    7  A    between atoms: C_17  and  O_20
REMARK    8  A    between atoms: C_23  and  O_25
REMARK    9  A    between atoms: O_25  and  C_26
REMARK   10  A    between atoms: C_31  and  N_32
REMARK                            x       y       z     vdW  Elec       q    Type
REMARK                         _______ _______ _______ _____ _____    ______ ____
ROOT
ATOM      1  C   UNL     1      -0.851   0.461  -1.067  0.00  0.00    +0.000 C 
ATOM      2  C   UNL     1      -1.924  -0.503  -0.534  0.00  0.00    +0.000 C 
ATOM      3  C   UNL     1      -2.377  -1.446  -1.665  0.00  0.00    +0.000 C 
ATOM      4  C   UNL     1      -1.145  -2.112  -2.323  0.00  0.00    +0.000 C 
ATOM      5  O   UNL     1      -0.238  -1.133  -2.810  0.00  0.00    +0.000 OA
ATOM      6  C   UNL     1       0.287  -0.330  -1.764  0.00  0.00    +0.000 C 
ENDROOT
BRANCH   1   8
ATOM      7  C   UNL     1       0.265   2.429  -0.067  0.00  0.00    +0.000 C 
ATOM      8  N   UNL     1      -0.345   1.283   0.035  0.00  0.00    +0.000 NA
ATOM      9  C   UNL     1       0.716   3.118   1.177  0.00  0.00    +0.000 C 
BRANCH   7  11
ATOM     10  H   UNL     1       0.223   2.648  -2.186  0.00  0.00    +0.000 HD
ATOM     11  O   UNL     1       0.497   3.048  -1.299  0.00  0.00    +0.000 OA
ENDBRANCH   7  11
ENDBRANCH   1   8
BRANCH   2  12
ATOM     12  O   UNL     1      -1.414  -1.241   0.551  0.00  0.00    +0.000 OA
ATOM     13  H   UNL     1      -2.191  -1.535   1.093  0.00  0.00    +0.000 HD
ENDBRANCH   2  12
BRANCH   3  14
ATOM     14  O   UNL     1      -3.241  -2.431  -1.158  0.00  0.00    +0.000 OA
ATOM     15  H   UNL     1      -4.110  -1.984  -0.981  0.00  0.00    +0.000 HD
ENDBRANCH   3  14
BRANCH   4  16
ATOM     16  C   UNL     1      -1.558  -3.020  -3.493  0.00  0.00    +0.000 C 
BRANCH  16  17
ATOM     17  O   UNL     1      -2.224  -2.293  -4.491  0.00  0.00    +0.000 OA
ATOM     18  H   UNL     1      -1.526  -1.827  -5.021  0.00  0.00    +0.000 HD
ENDBRANCH  16  17
ENDBRANCH   4  16
BRANCH   6  19
ATOM     19  O   UNL     1       1.021  -1.146  -0.839  0.00  0.00    +0.000 OA
BRANCH  19  20
ATOM     20  C   UNL     1       2.029  -0.715   0.038  0.00  0.00    +0.000 A 
ATOM     21  C   UNL     1       2.281  -1.486   1.177  0.00  0.00    +0.000 A 
ATOM     22  C   UNL     1       3.262  -1.104   2.096  0.00  0.00    +0.000 A 
ATOM     23  C   UNL     1       4.022   0.060   1.884  0.00  0.00    +0.000 A 
ATOM     24  C   UNL     1       3.784   0.824   0.729  0.00  0.00    +0.000 A 
ATOM     25  C   UNL     1       2.803   0.438  -0.190  0.00  0.00    +0.000 A 
BRANCH  23  26
ATOM     26  N   UNL     1       5.030   0.463   2.828  0.00  0.00    +0.000 N 
ATOM     27  O   UNL     1       5.246  -0.212   3.856  0.00  0.00    +0.000 OA
ATOM     28  O   UNL     1       5.773   1.602   2.616  0.00  0.00    +0.000 OA
ENDBRANCH  23  26
ENDBRANCH  19  20
ENDBRANCH   6  19
TORSDOF 9
