REMARK  Name = 52948856
REMARK  16 active torsions:
REMARK  status: ('A' for Active; 'I' for Inactive)
REMARK    1  A    between atoms: C_1  and  O_2
REMARK    2  A    between atoms: O_2  and  C_3
REMARK    3  A    between atoms: C_3  and  C_4
REMARK    4  A    between atoms: C_6  and  O_7
REMARK    5  A    between atoms: O_7  and  C_8
REMARK    6  A    between atoms: C_8  and  C_9
REMARK    7  A    between atoms: C_9  and  C_10
REMARK    8  A    between atoms: C_16  and  N_17
REMARK    9  A    between atoms: N_17  and  C_18
REMARK   10  A    between atoms: C_18  and  C_19
REMARK   11  A    between atoms: C_19  and  C_20
REMARK   12  A    between atoms: C_20  and  N_21
REMARK   13  A    between atoms: C_22  and  O_23
REMARK   14  A    between atoms: O_23  and  C_24
REMARK   15  A    between atoms: C_24  and  C_25
REMARK   16  A    between atoms: C_35  and  O_36
REMARK                            x       y       z     vdW  Elec       q    Type
REMARK                         _______ _______ _______ _____ _____    ______ ____
ROOT
ATOM      1  C   UNL     1       0.597   2.692  -0.546  0.00  0.00    +0.000 C 
ATOM      2  O   UNL     1       0.605   3.057   0.825  0.00  0.00    +0.000 OA
ATOM      3  C   UNL     1      -0.441   2.427   1.552  0.00  0.00    +0.000 C 
ATOM      4  C   UNL     1      -1.833   2.859   1.012  0.00  0.00    +0.000 C 
ATOM      5  C   UNL     1      -1.925   2.585  -0.508  0.00  0.00    +0.000 C 
ATOM      6  C   UNL     1      -0.703   3.187  -1.222  0.00  0.00    +0.000 C 
ENDROOT
BRANCH   4   7
ATOM      7  N   UNL     1      -2.952   2.198   1.726  0.00  0.00    +0.000 N 
ATOM      8  H   UNL     1      -3.845   2.453   1.241  0.00  0.00    +0.000 HD
ATOM      9  H   UNL     1      -2.836   1.159   1.680  0.00  0.00    +0.000 HD
BRANCH   7  10
ATOM     10  C   UNL     1      -3.055   2.616   3.137  0.00  0.00    +0.000 C 
BRANCH  10  11
ATOM     11  C   UNL     1      -4.395   2.193   3.765  0.00  0.00    +0.000 C 
BRANCH  11  12
ATOM     12  C   UNL     1      -4.536   0.670   3.882  0.00  0.00    +0.000 C 
BRANCH  12  13
ATOM     13  N   UNL     1      -5.765   0.332   4.593  0.00  0.00    +0.000 NA
ATOM     14  H   UNL     1      -5.657   0.624   5.593  0.00  0.00    +0.000 HD
ATOM     15  H   UNL     1      -5.853  -0.710   4.598  0.00  0.00    +0.000 HD
ENDBRANCH  12  13
ENDBRANCH  11  12
ENDBRANCH  10  11
ENDBRANCH   7  10
ENDBRANCH   4   7
BRANCH   6  16
ATOM     16  O   UNL     1      -0.719   2.812  -2.576  0.00  0.00    +0.000 OA
ATOM     17  H   UNL     1      -1.393   3.386  -3.025  0.00  0.00    +0.000 HD
ENDBRANCH   6  16
BRANCH   1  18
ATOM     18  C   UNL     1       1.844   3.314  -1.199  0.00  0.00    +0.000 C 
BRANCH  18  20
ATOM     19  C   UNL     1       2.915   1.794  -2.591  0.00  0.00    +0.000 C 
ATOM     20  O   UNL     1       2.000   2.865  -2.534  0.00  0.00    +0.000 OA
ENDBRANCH  18  20
ENDBRANCH   1  18
BRANCH   3  21
ATOM     21  O   UNL     1      -0.313   1.014   1.527  0.00  0.00    +0.000 OA
BRANCH  21  22
ATOM     22  C   UNL     1       0.747   0.600   2.362  0.00  0.00    +0.000 C 
BRANCH  22  23
ATOM     23  C   UNL     1       0.949  -0.907   2.218  0.00  0.00    +0.000 C 
BRANCH  23  24
ATOM     24  C   UNL     1       1.410  -1.266   0.830  0.00  0.00    +0.000 A 
ATOM     25  C   UNL     1       2.781  -1.283   0.522  0.00  0.00    +0.000 A 
ATOM     26  C   UNL     1       3.209  -1.608  -0.768  0.00  0.00    +0.000 A 
ATOM     27  C   UNL     1       2.273  -1.903  -1.763  0.00  0.00    +0.000 A 
ATOM     28  C   UNL     1       0.907  -1.867  -1.470  0.00  0.00    +0.000 A 
ATOM     29  C   UNL     1       0.475  -1.549  -0.179  0.00  0.00    +0.000 A 
ENDBRANCH  23  24
ENDBRANCH  22  23
ENDBRANCH  21  22
ENDBRANCH   3  21
BRANCH   5  30
ATOM     30  O   UNL     1      -1.955   1.183  -0.741  0.00  0.00    +0.000 OA
BRANCH  30  31
ATOM     31  C   UNL     1      -3.135   0.798  -1.410  0.00  0.00    +0.000 C 
BRANCH  31  32
ATOM     32  C   UNL     1      -3.091  -0.684  -1.631  0.00  0.00    +0.000 A 
ATOM     33  C   UNL     1      -3.438  -1.558  -0.590  0.00  0.00    +0.000 A 
ATOM     34  C   UNL     1      -3.327  -2.941  -0.758  0.00  0.00    +0.000 A 
ATOM     35  C   UNL     1      -2.856  -3.468  -1.969  0.00  0.00    +0.000 A 
ATOM     36  C   UNL     1      -2.724  -4.854  -2.143  0.00  0.00    +0.000 A 
ATOM     37  C   UNL     1      -2.241  -5.367  -3.351  0.00  0.00    +0.000 A 
ATOM     38  C   UNL     1      -1.888  -4.502  -4.390  0.00  0.00    +0.000 A 
ATOM     39  C   UNL     1      -2.015  -3.119  -4.230  0.00  0.00    +0.000 A 
ATOM     40  C   UNL     1      -2.498  -2.592  -3.022  0.00  0.00    +0.000 A 
ATOM     41  C   UNL     1      -2.611  -1.205  -2.843  0.00  0.00    +0.000 A 
ENDBRANCH  31  32
ENDBRANCH  30  31
ENDBRANCH   5  30
TORSDOF 15
