REMARK  Name = ZINC000013545464
REMARK  9 active torsions:
REMARK  status: ('A' for Active; 'I' for Inactive)
REMARK    1  A    between atoms: O_2  and  C_3
REMARK    2  A    between atoms: C_3  and  C_37
REMARK    3  A    between atoms: N_4  and  C_5
REMARK    4  A    between atoms: C_7  and  O_9
REMARK    5  A    between atoms: O_9  and  C_10
REMARK    6  A    between atoms: C_22  and  C_24
REMARK    7  A    between atoms: C_24  and  O_27
REMARK    8  A    between atoms: C_29  and  O_31
REMARK    9  A    between atoms: C_33  and  O_35
REMARK                            x       y       z     vdW  Elec       q    Type
REMARK                         _______ _______ _______ _____ _____    ______ ____
ROOT
ATOM      1  C   UNL     1      -1.378  -0.197  -0.262  0.00  0.00    +0.000 C 
ATOM      2  C   UNL     1       0.099  -0.623  -0.093  0.00  0.00    +0.000 C 
ATOM      3  O   UNL     1       0.191  -2.033  -0.003  0.00  0.00    +0.000 OA
ATOM      4  C   UNL     1      -0.284  -2.479   1.261  0.00  0.00    +0.000 C 
ATOM      5  C   UNL     1      -1.686  -1.884   1.625  0.00  0.00    +0.000 C 
ATOM      6  C   UNL     1      -2.329  -1.243   0.383  0.00  0.00    +0.000 C 
ENDROOT
BRANCH   1   8
ATOM      7  C   UNL     1      -2.427   2.012  -0.059  0.00  0.00    +0.000 C 
ATOM      8  N   UNL     1      -1.557   1.131   0.336  0.00  0.00    +0.000 NA
ATOM      9  C   UNL     1      -2.504   3.332   0.638  0.00  0.00    +0.000 C 
BRANCH   7  11
ATOM     10  H   UNL     1      -3.930   2.441  -1.470  0.00  0.00    +0.000 HD
ATOM     11  O   UNL     1      -3.261   1.753  -1.146  0.00  0.00    +0.000 OA
ENDBRANCH   7  11
ENDBRANCH   1   8
BRANCH   5  12
ATOM     12  O   UNL     1      -1.551  -0.911   2.630  0.00  0.00    +0.000 OA
ATOM     13  H   UNL     1      -1.391  -1.400   3.480  0.00  0.00    +0.000 HD
ENDBRANCH   5  12
BRANCH   6  14
ATOM     14  O   UNL     1      -3.567  -0.677   0.729  0.00  0.00    +0.000 OA
ATOM     15  H   UNL     1      -4.095  -0.610  -0.109  0.00  0.00    +0.000 HD
ENDBRANCH   6  14
BRANCH   2  16
ATOM     16  O   UNL     1       0.846  -0.174  -1.224  0.00  0.00    +0.000 OA
BRANCH  16  17
ATOM     17  C   UNL     1       2.238  -0.288  -1.363  0.00  0.00    +0.000 A 
ATOM     18  C   UNL     1       3.059  -0.841  -0.360  0.00  0.00    +0.000 A 
ATOM     19  C   UNL     1       4.442  -0.929  -0.553  0.00  0.00    +0.000 A 
ATOM     20  C   UNL     1       5.015  -0.469  -1.741  0.00  0.00    +0.000 A 
ATOM     21  C   UNL     1       4.207   0.082  -2.738  0.00  0.00    +0.000 A 
ATOM     22  C   UNL     1       2.825   0.172  -2.550  0.00  0.00    +0.000 A 
ENDBRANCH  16  17
ENDBRANCH   2  16
BRANCH   4  23
ATOM     23  C   UNL     1      -0.308  -4.014   1.253  0.00  0.00    +0.000 C 
BRANCH  23  24
ATOM     24  O   UNL     1      -1.091  -4.498   0.194  0.00  0.00    +0.000 OA
ATOM     25  H   UNL     1      -2.019  -4.582   0.534  0.00  0.00    +0.000 HD
ENDBRANCH  23  24
ENDBRANCH   4  23
TORSDOF 8
