REMARK  Name = ZINC000077269504
REMARK  6 active torsions:
REMARK  status: ('A' for Active; 'I' for Inactive)
REMARK    1  A    between atoms: O_2  and  C_3
REMARK    2  A    between atoms: C_3  and  C_38
REMARK    3  A    between atoms: N_4  and  C_5
REMARK    4  A    between atoms: C_7  and  O_9
REMARK    5  A    between atoms: C_18  and  C_20
REMARK    6  A    between atoms: C_34  and  O_36
REMARK                            x       y       z     vdW  Elec       q    Type
REMARK                         _______ _______ _______ _____ _____    ______ ____
ROOT
ATOM      1  C   UNL     1       2.502  -0.566   0.383  0.00  0.00    +0.000 C 
ATOM      2  C   UNL     1       2.832   0.252   1.659  0.00  0.00    +0.000 C 
ATOM      3  O   UNL     1       1.760   0.225   2.593  0.00  0.00    +0.000 OA
ATOM      4  C   UNL     1       0.583   0.773   2.025  0.00  0.00    +0.000 C 
ATOM      5  C   UNL     1      -0.542   0.809   3.057  0.00  0.00    +0.000 C 
ATOM      6  O   UNL     1      -1.737   1.269   2.455  0.00  0.00    +0.000 OA
ATOM      7  C   UNL     1      -2.107   0.411   1.384  0.00  0.00    +0.000 C 
ATOM      8  O   UNL     1      -1.127   0.427   0.354  0.00  0.00    +0.000 OA
ATOM      9  C   UNL     1       0.091  -0.088   0.855  0.00  0.00    +0.000 C 
ATOM     10  C   UNL     1       1.161  -0.111  -0.241  0.00  0.00    +0.000 C 
ENDROOT
BRANCH   7  11
ATOM     11  C   UNL     1      -3.407   0.906   0.808  0.00  0.00    +0.000 A 
ATOM     12  C   UNL     1      -4.555   0.094   0.816  0.00  0.00    +0.000 A 
ATOM     13  C   UNL     1      -5.756   0.566   0.278  0.00  0.00    +0.000 A 
ATOM     14  C   UNL     1      -5.823   1.849  -0.272  0.00  0.00    +0.000 A 
ATOM     15  C   UNL     1      -4.688   2.663  -0.284  0.00  0.00    +0.000 A 
ATOM     16  C   UNL     1      -3.484   2.196   0.253  0.00  0.00    +0.000 A 
ENDBRANCH   7  11
BRANCH   1  18
ATOM     17  C   UNL     1       3.773  -1.258  -1.589  0.00  0.00    +0.000 C 
ATOM     18  N   UNL     1       3.599  -0.457  -0.580  0.00  0.00    +0.000 NA
ATOM     19  C   UNL     1       4.936  -1.047  -2.504  0.00  0.00    +0.000 C 
BRANCH  17  21
ATOM     20  H   UNL     1       3.047  -2.971  -2.575  0.00  0.00    +0.000 HD
ATOM     21  O   UNL     1       2.909  -2.332  -1.802  0.00  0.00    +0.000 OA
ENDBRANCH  17  21
ENDBRANCH   1  18
BRANCH   2  22
ATOM     22  O   UNL     1       3.177   1.582   1.347  0.00  0.00    +0.000 OA
ATOM     23  H   UNL     1       4.125   1.578   1.051  0.00  0.00    +0.000 HD
ENDBRANCH   2  22
BRANCH  10  24
ATOM     24  O   UNL     1       1.284   1.167  -0.816  0.00  0.00    +0.000 OA
ATOM     25  H   UNL     1       1.664   1.041  -1.724  0.00  0.00    +0.000 HD
ENDBRANCH  10  24
TORSDOF 5
