REMARK  Name = ZINC000575124647
REMARK  11 active torsions:
REMARK  status: ('A' for Active; 'I' for Inactive)
REMARK    1  A    between atoms: O_2  and  C_3
REMARK    2  A    between atoms: C_3  and  C_36
REMARK    3  A    between atoms: N_4  and  C_5
REMARK    4  A    between atoms: C_7  and  O_9
REMARK    5  A    between atoms: C_11  and  O_13
REMARK    6  A    between atoms: C_15  and  C_17
REMARK    7  A    between atoms: C_17  and  O_20
REMARK    8  A    between atoms: C_23  and  O_25
REMARK    9  A    between atoms: O_25  and  C_26
REMARK   10  A    between atoms: C_26  and  C_29
REMARK   11  A    between atoms: C_29  and  C_32
REMARK                            x       y       z     vdW  Elec       q    Type
REMARK                         _______ _______ _______ _____ _____    ______ ____
ROOT
ATOM      1  C   UNL     1      -0.007   0.940   0.662  0.00  0.00    +0.000 C 
ATOM      2  C   UNL     1       0.122   0.883   2.201  0.00  0.00    +0.000 C 
ATOM      3  C   UNL     1      -1.189   0.386   2.852  0.00  0.00    +0.000 C 
ATOM      4  C   UNL     1      -1.727  -0.864   2.116  0.00  0.00    +0.000 C 
ATOM      5  O   UNL     1      -1.896  -0.587   0.737  0.00  0.00    +0.000 OA
ATOM      6  C   UNL     1      -0.642  -0.358   0.113  0.00  0.00    +0.000 C 
ENDROOT
BRANCH   1   8
ATOM      7  C   UNL     1       1.532   1.727  -1.078  0.00  0.00    +0.000 C 
ATOM      8  N   UNL     1       1.316   1.159   0.071  0.00  0.00    +0.000 NA
ATOM      9  C   UNL     1       2.934   1.875  -1.573  0.00  0.00    +0.000 C 
BRANCH   7  11
ATOM     10  H   UNL     1       0.636   2.681  -2.727  0.00  0.00    +0.000 HD
ATOM     11  O   UNL     1       0.474   2.227  -1.836  0.00  0.00    +0.000 OA
ENDBRANCH   7  11
ENDBRANCH   1   8
BRANCH   2  12
ATOM     12  O   UNL     1       1.231   0.115   2.610  0.00  0.00    +0.000 OA
ATOM     13  H   UNL     1       1.096  -0.818   2.308  0.00  0.00    +0.000 HD
ENDBRANCH   2  12
BRANCH   3  14
ATOM     14  O   UNL     1      -0.974   0.090   4.209  0.00  0.00    +0.000 OA
ATOM     15  H   UNL     1      -0.887   0.959   4.681  0.00  0.00    +0.000 HD
ENDBRANCH   3  14
BRANCH   4  16
ATOM     16  C   UNL     1      -3.076  -1.322   2.692  0.00  0.00    +0.000 C 
BRANCH  16  17
ATOM     17  O   UNL     1      -4.072  -0.358   2.470  0.00  0.00    +0.000 OA
ATOM     18  H   UNL     1      -4.108   0.212   3.282  0.00  0.00    +0.000 HD
ENDBRANCH  16  17
ENDBRANCH   4  16
BRANCH   6  19
ATOM     19  O   UNL     1      -0.848  -0.205  -1.278  0.00  0.00    +0.000 OA
BRANCH  19  20
ATOM     20  C   UNL     1      -1.186  -1.438  -1.891  0.00  0.00    +0.000 C 
BRANCH  20  21
ATOM     21  C   UNL     1      -0.172  -1.767  -2.988  0.00  0.00    +0.000 C 
ATOM     22  C   UNL     1       1.213  -2.059  -2.413  0.00  0.00    +0.000 C 
ENDBRANCH  20  21
ENDBRANCH  19  20
ENDBRANCH   6  19
TORSDOF 9
