REMARK  Name = ZINC000106384102
REMARK  10 active torsions:
REMARK  status: ('A' for Active; 'I' for Inactive)
REMARK    1  A    between atoms: O_2  and  C_3
REMARK    2  A    between atoms: C_3  and  C_40
REMARK    3  A    between atoms: N_4  and  C_5
REMARK    4  A    between atoms: C_7  and  O_9
REMARK    5  A    between atoms: O_9  and  C_10
REMARK    6  A    between atoms: C_19  and  C_20
REMARK    7  A    between atoms: C_25  and  C_27
REMARK    8  A    between atoms: C_27  and  O_30
REMARK    9  A    between atoms: C_32  and  O_34
REMARK   10  A    between atoms: C_36  and  O_38
REMARK                            x       y       z     vdW  Elec       q    Type
REMARK                         _______ _______ _______ _____ _____    ______ ____
ROOT
ATOM      1  C   UNL     1       1.616  -0.096  -0.049  0.00  0.00    +0.000 C 
ATOM      2  C   UNL     1       0.289   0.491   0.523  0.00  0.00    +0.000 C 
ATOM      3  O   UNL     1       0.286   0.535   1.943  0.00  0.00    +0.000 OA
ATOM      4  C   UNL     1       0.567  -0.748   2.471  0.00  0.00    +0.000 C 
ATOM      5  C   UNL     1       2.062  -1.101   2.254  0.00  0.00    +0.000 C 
ATOM      6  C   UNL     1       2.650  -0.285   1.075  0.00  0.00    +0.000 C 
ENDROOT
BRANCH   1   8
ATOM      7  C   UNL     1       0.844  -1.558  -1.889  0.00  0.00    +0.000 C 
ATOM      8  N   UNL     1       1.368  -1.385  -0.708  0.00  0.00    +0.000 NA
ATOM      9  C   UNL     1       0.438  -0.409  -2.766  0.00  0.00    +0.000 C 
BRANCH   7  11
ATOM     10  H   UNL     1       0.925  -3.658  -1.808  0.00  0.00    +0.000 HD
ATOM     11  O   UNL     1       0.663  -2.853  -2.365  0.00  0.00    +0.000 OA
ENDBRANCH   7  11
ENDBRANCH   1   8
BRANCH   5  12
ATOM     12  O   UNL     1       2.175  -2.481   2.008  0.00  0.00    +0.000 OA
ATOM     13  H   UNL     1       3.085  -2.756   2.295  0.00  0.00    +0.000 HD
ENDBRANCH   5  12
BRANCH   6  14
ATOM     14  O   UNL     1       3.811  -0.891   0.564  0.00  0.00    +0.000 OA
ATOM     15  H   UNL     1       4.522  -0.762   1.244  0.00  0.00    +0.000 HD
ENDBRANCH   6  14
BRANCH   2  16
ATOM     16  O   UNL     1       0.124   1.817   0.024  0.00  0.00    +0.000 OA
BRANCH  16  17
ATOM     17  C   UNL     1      -1.022   2.613   0.196  0.00  0.00    +0.000 A 
ATOM     18  C   UNL     1      -2.153   2.154   0.903  0.00  0.00    +0.000 A 
ATOM     19  C   UNL     1      -3.272   2.976   1.056  0.00  0.00    +0.000 A 
ATOM     20  C   UNL     1      -3.279   4.258   0.507  0.00  0.00    +0.000 A 
ATOM     21  C   UNL     1      -2.168   4.724  -0.198  0.00  0.00    +0.000 A 
ATOM     22  C   UNL     1      -1.036   3.908  -0.359  0.00  0.00    +0.000 A 
ATOM     23  C   UNL     1       0.158   4.415  -1.119  0.00  0.00    +0.000 C 
ENDBRANCH  16  17
ENDBRANCH   2  16
BRANCH   4  24
ATOM     24  C   UNL     1       0.205  -0.768   3.962  0.00  0.00    +0.000 C 
BRANCH  24  25
ATOM     25  O   UNL     1      -1.174  -0.580   4.133  0.00  0.00    +0.000 OA
ATOM     26  H   UNL     1      -1.344   0.394   4.043  0.00  0.00    +0.000 HD
ENDBRANCH  24  25
ENDBRANCH   4  24
TORSDOF 8
