REMARK  Name = ZINC000032106887
REMARK  5 active torsions:
REMARK  status: ('A' for Active; 'I' for Inactive)
REMARK    1  A    between atoms: O_2  and  C_3
REMARK    2  A    between atoms: C_8  and  C_10
REMARK    3  A    between atoms: C_28  and  O_30
REMARK    4  A    between atoms: O_30  and  C_31
REMARK    5  A    between atoms: C_35  and  N_37
REMARK                            x       y       z     vdW  Elec       q    Type
REMARK                         _______ _______ _______ _____ _____    ______ ____
ROOT
ATOM      1  C   UNL     1      -1.339   1.776   0.362  0.00  0.00    +0.000 C 
ATOM      2  C   UNL     1      -0.450   0.530   0.597  0.00  0.00    +0.000 C 
ATOM      3  O   UNL     1       0.867   0.756   0.133  0.00  0.00    +0.000 OA
ATOM      4  C   UNL     1       1.663  -0.396   0.365  0.00  0.00    +0.000 C 
ATOM      5  O   UNL     1       1.186  -1.501  -0.387  0.00  0.00    +0.000 OA
ATOM      6  C   UNL     1      -0.108  -1.861   0.053  0.00  0.00    +0.000 C 
ATOM      7  C   UNL     1      -1.072  -0.689  -0.114  0.00  0.00    +0.000 C 
ATOM      8  O   UNL     1      -2.361  -1.052   0.374  0.00  0.00    +0.000 OA
ATOM      9  C   UNL     1      -3.114   0.028   0.924  0.00  0.00    +0.000 C 
ATOM     10  C   UNL     1      -2.841   1.393   0.217  0.00  0.00    +0.000 C 
ENDROOT
BRANCH   4  11
ATOM     11  C   UNL     1       3.071  -0.096  -0.077  0.00  0.00    +0.000 A 
ATOM     12  C   UNL     1       3.326   0.280  -1.408  0.00  0.00    +0.000 A 
ATOM     13  C   UNL     1       4.631   0.558  -1.827  0.00  0.00    +0.000 A 
ATOM     14  C   UNL     1       5.691   0.463  -0.922  0.00  0.00    +0.000 A 
ATOM     15  C   UNL     1       5.449   0.089   0.403  0.00  0.00    +0.000 A 
ATOM     16  C   UNL     1       4.146  -0.190   0.826  0.00  0.00    +0.000 A 
ENDBRANCH   4  11
BRANCH  10  17
ATOM     17  N   UNL     1      -3.256   1.409  -1.195  0.00  0.00    +0.000 NA
ATOM     18  N   UNL     1      -3.718   0.428  -1.781  0.00  0.00    +0.000 NA
ATOM     19  N   UNL     1      -4.178  -0.549  -2.369  0.00  0.00    +0.000 NA
ENDBRANCH  10  17
BRANCH   1  21
ATOM     20  H   UNL     1      -0.786   1.951  -1.508  0.00  0.00    +0.000 HD
ATOM     21  O   UNL     1      -0.892   2.552  -0.725  0.00  0.00    +0.000 OA
ENDBRANCH   1  21
BRANCH   9  22
ATOM     22  O   UNL     1      -4.491  -0.299   0.820  0.00  0.00    +0.000 OA
ATOM     23  C   UNL     1      -5.197   0.101   1.975  0.00  0.00    +0.000 C 
ENDBRANCH   9  22
TORSDOF 4
