REMARK  Name = ZINC000102974493
REMARK  8 active torsions:
REMARK  status: ('A' for Active; 'I' for Inactive)
REMARK    1  A    between atoms: C_1  and  C_2
REMARK    2  A    between atoms: N_4  and  C_5
REMARK    3  A    between atoms: C_6  and  O_7
REMARK    4  A    between atoms: O_7  and  C_8
REMARK    5  A    between atoms: C_16  and  C_17
REMARK    6  A    between atoms: C_17  and  O_18
REMARK    7  A    between atoms: C_19  and  O_20
REMARK    8  A    between atoms: C_21  and  O_22
REMARK                            x       y       z     vdW  Elec       q    Type
REMARK                         _______ _______ _______ _____ _____    ______ ____
ROOT
ATOM      1  C   UNL     1      -0.970   0.825  -0.301  0.00  0.00    +0.000 C 
ATOM      2  C   UNL     1      -0.688  -0.688  -0.137  0.00  0.00    +0.000 C 
ATOM      3  O   UNL     1      -1.770  -1.433  -0.670  0.00  0.00    +0.000 OA
ATOM      4  C   UNL     1      -2.964  -1.195   0.059  0.00  0.00    +0.000 C 
ATOM      5  C   UNL     1      -3.416   0.275  -0.123  0.00  0.00    +0.000 C 
ATOM      6  C   UNL     1      -2.304   1.225   0.361  0.00  0.00    +0.000 C 
ENDROOT
BRANCH   1  10
ATOM      7  C   UNL     1       1.967   2.511   1.696  0.00  0.00    +0.000 C 
ATOM      8  C   UNL     1       0.772   1.653   1.438  0.00  0.00    +0.000 C 
ATOM      9  O   UNL     1       0.360   0.885   2.347  0.00  0.00    +0.000 OA
ATOM     10  N   UNL     1       0.149   1.673   0.141  0.00  0.00    +0.000 N 
ATOM     11  H   UNL     1       0.563   2.314  -0.574  0.00  0.00    +0.000 HD
ENDBRANCH   1  10
BRANCH   5  12
ATOM     12  O   UNL     1      -4.593   0.526   0.606  0.00  0.00    +0.000 OA
ATOM     13  H   UNL     1      -5.357   0.391  -0.013  0.00  0.00    +0.000 HD
ENDBRANCH   5  12
BRANCH   6  14
ATOM     14  O   UNL     1      -2.203   1.166   1.761  0.00  0.00    +0.000 OA
ATOM     15  H   UNL     1      -2.865   1.806   2.130  0.00  0.00    +0.000 HD
ENDBRANCH   6  14
BRANCH   2  16
ATOM     16  O   UNL     1       0.482  -1.031  -0.885  0.00  0.00    +0.000 OA
BRANCH  16  17
ATOM     17  C   UNL     1       1.799  -0.945  -0.413  0.00  0.00    +0.000 A 
ATOM     18  C   UNL     1       2.151  -1.301   0.902  0.00  0.00    +0.000 A 
ATOM     19  C   UNL     1       3.476  -1.180   1.333  0.00  0.00    +0.000 A 
ATOM     20  C   UNL     1       4.460  -0.718   0.454  0.00  0.00    +0.000 A 
ATOM     21 CL   UNL     1       6.120  -0.561   0.999  0.00  0.00    +0.000 Cl
ATOM     22  C   UNL     1       4.121  -0.390  -0.862  0.00  0.00    +0.000 A 
ATOM     23  C   UNL     1       2.797  -0.511  -1.294  0.00  0.00    +0.000 A 
ENDBRANCH  16  17
ENDBRANCH   2  16
BRANCH   4  24
ATOM     24  C   UNL     1      -4.040  -2.167  -0.448  0.00  0.00    +0.000 C 
BRANCH  24  25
ATOM     25  O   UNL     1      -3.594  -3.492  -0.338  0.00  0.00    +0.000 OA
ATOM     26  H   UNL     1      -3.646  -3.731   0.624  0.00  0.00    +0.000 HD
ENDBRANCH  24  25
ENDBRANCH   4  24
TORSDOF 7
