REMARK  Name = ZINC000307565252
REMARK  7 active torsions:
REMARK  status: ('A' for Active; 'I' for Inactive)
REMARK    1  A    between atoms: C_1  and  O_2
REMARK    2  A    between atoms: O_2  and  C_3
REMARK    3  A    between atoms: C_5  and  C_6
REMARK    4  A    between atoms: C_6  and  O_7
REMARK    5  A    between atoms: C_8  and  O_9
REMARK    6  A    between atoms: C_10  and  O_11
REMARK    7  A    between atoms: C_12  and  N_13
REMARK                            x       y       z     vdW  Elec       q    Type
REMARK                         _______ _______ _______ _____ _____    ______ ____
ROOT
ATOM      1  C   UNL     1      -1.202  -0.936   1.893  0.00  0.00    +0.000 C 
ATOM      2  O   UNL     1      -2.179  -1.948   1.700  0.00  0.00    +0.000 OA
ATOM      3  C   UNL     1      -3.230  -1.480   0.868  0.00  0.00    +0.000 C 
ATOM      4  C   UNL     1      -2.700  -1.189  -0.558  0.00  0.00    +0.000 C 
ATOM      5  C   UNL     1      -1.542  -0.170  -0.496  0.00  0.00    +0.000 C 
ATOM      6  C   UNL     1      -0.510  -0.634   0.548  0.00  0.00    +0.000 C 
ENDROOT
BRANCH   6   7
ATOM      7  N   UNL     1       0.584   0.338   0.687  0.00  0.00    +0.000 N 
ATOM      8  C   UNL     1       1.783   0.348  -0.096  0.00  0.00    +0.000 C 
ATOM      9  O   UNL     1       2.142  -0.594  -0.852  0.00  0.00    +0.000 OA
ATOM     10  C   UNL     1       2.501   1.602   0.089  0.00  0.00    +0.000 A 
ATOM     11  C   UNL     1       3.702   2.053  -0.456  0.00  0.00    +0.000 A 
ATOM     12  C   UNL     1       4.149   3.337  -0.097  0.00  0.00    +0.000 A 
ATOM     13  C   UNL     1       3.392   4.136   0.787  0.00  0.00    +0.000 A 
ATOM     14  C   UNL     1       2.181   3.659   1.320  0.00  0.00    +0.000 A 
ATOM     15  C   UNL     1       1.763   2.381   0.952  0.00  0.00    +0.000 A 
ATOM     16  C   UNL     1       0.570   1.628   1.319  0.00  0.00    +0.000 C 
ATOM     17  O   UNL     1      -0.350   2.051   2.067  0.00  0.00    +0.000 OA
ENDBRANCH   6   7
BRANCH   1  19
ATOM     18  C   UNL     1      -0.719  -1.350   4.121  0.00  0.00    +0.000 C 
ATOM     19  O   UNL     1      -0.223  -1.405   2.801  0.00  0.00    +0.000 OA
ENDBRANCH   1  19
BRANCH   4  20
ATOM     20  O   UNL     1      -3.739  -0.695  -1.365  0.00  0.00    +0.000 OA
ATOM     21  H   UNL     1      -3.426  -0.761  -2.305  0.00  0.00    +0.000 HD
ENDBRANCH   4  20
BRANCH   5  22
ATOM     22  O   UNL     1      -2.033   1.103  -0.156  0.00  0.00    +0.000 OA
ATOM     23  H   UNL     1      -2.344   1.529  -0.998  0.00  0.00    +0.000 HD
ENDBRANCH   5  22
BRANCH   3  24
ATOM     24  C   UNL     1      -4.330  -2.551   0.829  0.00  0.00    +0.000 C 
BRANCH  24  25
ATOM     25  O   UNL     1      -4.790  -2.826   2.125  0.00  0.00    +0.000 OA
ATOM     26  H   UNL     1      -5.368  -2.063   2.390  0.00  0.00    +0.000 HD
ENDBRANCH  24  25
ENDBRANCH   3  24
TORSDOF 6
