REMARK  Name = ZINC000015205949
REMARK  10 active torsions:
REMARK  status: ('A' for Active; 'I' for Inactive)
REMARK    1  A    between atoms: O_2  and  C_3
REMARK    2  A    between atoms: C_3  and  C_39
REMARK    3  A    between atoms: N_4  and  C_5
REMARK    4  A    between atoms: C_7  and  O_9
REMARK    5  A    between atoms: C_11  and  O_13
REMARK    6  A    between atoms: C_15  and  C_17
REMARK    7  A    between atoms: C_17  and  O_20
REMARK    8  A    between atoms: C_23  and  O_25
REMARK    9  A    between atoms: O_25  and  C_26
REMARK   10  A    between atoms: C_31  and  N_32
REMARK                            x       y       z     vdW  Elec       q    Type
REMARK                         _______ _______ _______ _____ _____    ______ ____
ROOT
ATOM      1  C   UNL     1       0.324  -1.514   0.633  0.00  0.00    +0.000 C 
ATOM      2  C   UNL     1       1.563  -1.432   1.540  0.00  0.00    +0.000 C 
ATOM      3  C   UNL     1       1.475  -0.247   2.526  0.00  0.00    +0.000 C 
ATOM      4  C   UNL     1       1.019   1.058   1.816  0.00  0.00    +0.000 C 
ATOM      5  O   UNL     1      -0.136   0.859   1.010  0.00  0.00    +0.000 OA
ATOM      6  C   UNL     1       0.056  -0.130   0.008  0.00  0.00    +0.000 C 
ENDROOT
BRANCH   1   8
ATOM      7  C   UNL     1      -1.890  -2.592   0.954  0.00  0.00    +0.000 C 
ATOM      8  N   UNL     1      -0.835  -1.976   1.405  0.00  0.00    +0.000 NA
ATOM      9  C   UNL     1      -2.971  -2.958   1.914  0.00  0.00    +0.000 C 
BRANCH   7  11
ATOM     10  H   UNL     1      -1.353  -2.746  -1.105  0.00  0.00    +0.000 HD
ATOM     11  O   UNL     1      -2.043  -2.938  -0.392  0.00  0.00    +0.000 OA
ENDBRANCH   7  11
ENDBRANCH   1   8
BRANCH   2  12
ATOM     12  O   UNL     1       1.728  -2.643   2.234  0.00  0.00    +0.000 OA
ATOM     13  H   UNL     1       2.651  -2.640   2.599  0.00  0.00    +0.000 HD
ENDBRANCH   2  12
BRANCH   3  14
ATOM     14  O   UNL     1       0.640  -0.557   3.618  0.00  0.00    +0.000 OA
ATOM     15  H   UNL     1      -0.303  -0.424   3.342  0.00  0.00    +0.000 HD
ENDBRANCH   3  14
BRANCH   4  16
ATOM     16  C   UNL     1       2.159   1.768   1.049  0.00  0.00    +0.000 C 
BRANCH  16  17
ATOM     17  O   UNL     1       3.116   2.273   1.942  0.00  0.00    +0.000 OA
ATOM     18  H   UNL     1       2.733   3.102   2.333  0.00  0.00    +0.000 HD
ENDBRANCH  16  17
ENDBRANCH   4  16
BRANCH   6  19
ATOM     19  O   UNL     1      -1.119  -0.201  -0.798  0.00  0.00    +0.000 OA
BRANCH  19  20
ATOM     20  C   UNL     1      -1.601   0.827  -1.622  0.00  0.00    +0.000 A 
ATOM     21  C   UNL     1      -0.920   2.047  -1.790  0.00  0.00    +0.000 A 
ATOM     22  C   UNL     1      -1.446   3.040  -2.623  0.00  0.00    +0.000 A 
ATOM     23  C   UNL     1      -2.658   2.833  -3.304  0.00  0.00    +0.000 A 
ATOM     24  C   UNL     1      -3.332   1.611  -3.135  0.00  0.00    +0.000 A 
ATOM     25  C   UNL     1      -2.805   0.620  -2.302  0.00  0.00    +0.000 A 
BRANCH  23  26
ATOM     26  N   UNL     1      -3.196   3.858  -4.159  0.00  0.00    +0.000 N 
ATOM     27  O   UNL     1      -4.272   3.680  -4.767  0.00  0.00    +0.000 OA
ATOM     28  O   UNL     1      -2.534   5.053  -4.321  0.00  0.00    +0.000 OA
ENDBRANCH  23  26
ENDBRANCH  19  20
ENDBRANCH   6  19
TORSDOF 9
