REMARK  Name = ZINC000100342293
REMARK  9 active torsions:
REMARK  status: ('A' for Active; 'I' for Inactive)
REMARK    1  A    between atoms: C_1  and  O_2
REMARK    2  A    between atoms: O_2  and  C_3
REMARK    3  A    between atoms: C_6  and  C_7
REMARK    4  A    between atoms: N_8  and  C_9
REMARK    5  A    between atoms: C_10  and  O_11
REMARK    6  A    between atoms: C_13  and  C_14
REMARK    7  A    between atoms: C_14  and  O_15
REMARK    8  A    between atoms: C_16  and  O_17
REMARK    9  A    between atoms: C_18  and  O_19
REMARK                            x       y       z     vdW  Elec       q    Type
REMARK                         _______ _______ _______ _____ _____    ______ ____
ROOT
ATOM      1  C   UNL     1      -1.427  -0.694   0.202  0.00  0.00    +0.000 C 
ATOM      2  C   UNL     1      -2.021   0.448   1.075  0.00  0.00    +0.000 C 
ATOM      3  O   UNL     1      -3.426   0.336   1.245  0.00  0.00    +0.000 OA
ATOM      4  C   UNL     1      -4.120   0.317   0.008  0.00  0.00    +0.000 C 
ATOM      5  C   UNL     1      -3.722  -0.930  -0.816  0.00  0.00    +0.000 C 
ATOM      6  C   UNL     1      -2.215  -0.907  -1.106  0.00  0.00    +0.000 C 
ENDROOT
BRANCH   1   8
ATOM      7  C   UNL     1       0.923  -0.515   0.798  0.00  0.00    +0.000 C 
ATOM      8  N   UNL     1      -0.015  -0.448  -0.096  0.00  0.00    +0.000 NA
BRANCH   7  12
ATOM      9  C   UNL     1       5.033   0.254  -0.191  0.00  0.00    +0.000 A 
ATOM     10  C   UNL     1       4.660  -0.086   1.123  0.00  0.00    +0.000 A 
ATOM     11  C   UNL     1       3.320  -0.335   1.435  0.00  0.00    +0.000 A 
ATOM     12  C   UNL     1       2.331  -0.249   0.444  0.00  0.00    +0.000 A 
ATOM     13  C   UNL     1       2.705   0.091  -0.869  0.00  0.00    +0.000 A 
ATOM     14  C   UNL     1       4.045   0.340  -1.179  0.00  0.00    +0.000 A 
BRANCH   9  16
ATOM     15  C   UNL     1       7.465   0.462   0.346  0.00  0.00    +0.000 C 
ATOM     16  O   UNL     1       6.363   0.513  -0.553  0.00  0.00    +0.000 OA
ENDBRANCH   9  16
ENDBRANCH   7  12
ENDBRANCH   1   8
BRANCH   2  17
ATOM     17  O   UNL     1      -1.655   1.744   0.660  0.00  0.00    +0.000 OA
ATOM     18  H   UNL     1      -1.740   1.802  -0.323  0.00  0.00    +0.000 HD
ENDBRANCH   2  17
BRANCH   5  19
ATOM     19  O   UNL     1      -4.423  -0.963  -2.035  0.00  0.00    +0.000 OA
ATOM     20  H   UNL     1      -5.223  -1.535  -1.899  0.00  0.00    +0.000 HD
ENDBRANCH   5  19
BRANCH   6  21
ATOM     21  O   UNL     1      -1.926   0.099  -2.047  0.00  0.00    +0.000 OA
ATOM     22  H   UNL     1      -1.092  -0.169  -2.514  0.00  0.00    +0.000 HD
ENDBRANCH   6  21
BRANCH   4  23
ATOM     23  C   UNL     1      -5.627   0.315   0.308  0.00  0.00    +0.000 C 
BRANCH  23  24
ATOM     24  O   UNL     1      -5.969   1.412   1.111  0.00  0.00    +0.000 OA
ATOM     25  H   UNL     1      -5.955   2.211   0.521  0.00  0.00    +0.000 HD
ENDBRANCH  23  24
ENDBRANCH   4  23
TORSDOF 8
