REMARK  Name = ZINC000257347639
REMARK  9 active torsions:
REMARK  status: ('A' for Active; 'I' for Inactive)
REMARK    1  A    between atoms: O_2  and  C_3
REMARK    2  A    between atoms: C_3  and  C_47
REMARK    3  A    between atoms: N_4  and  C_5
REMARK    4  A    between atoms: C_7  and  O_9
REMARK    5  A    between atoms: O_9  and  S_10
REMARK    6  A    between atoms: S_10  and  C_13
REMARK    7  A    between atoms: C_20  and  C_22
REMARK    8  A    between atoms: C_40  and  O_42
REMARK    9  A    between atoms: O_42  and  C_43
REMARK                            x       y       z     vdW  Elec       q    Type
REMARK                         _______ _______ _______ _____ _____    ______ ____
ROOT
ATOM      1  C   UNL     1       1.165  -0.054  -0.633  0.00  0.00    +0.000 C 
ATOM      2  C   UNL     1      -0.055  -0.034   0.315  0.00  0.00    +0.000 C 
ATOM      3  C   UNL     1      -0.732  -1.412   0.272  0.00  0.00    +0.000 C 
ATOM      4  O   UNL     1      -1.771  -1.490   1.226  0.00  0.00    +0.000 OA
ATOM      5  C   UNL     1      -2.401  -2.760   1.141  0.00  0.00    +0.000 C 
ATOM      6  O   UNL     1      -1.496  -3.807   1.468  0.00  0.00    +0.000 OA
ATOM      7  C   UNL     1      -0.426  -3.837   0.544  0.00  0.00    +0.000 C 
ATOM      8  C   UNL     1       0.311  -2.501   0.553  0.00  0.00    +0.000 C 
ATOM      9  O   UNL     1       1.321  -2.479  -0.437  0.00  0.00    +0.000 OA
ATOM     10  C   UNL     1       2.070  -1.273  -0.337  0.00  0.00    +0.000 C 
ENDROOT
BRANCH   5  11
ATOM     11  C   UNL     1      -3.542  -2.773   2.124  0.00  0.00    +0.000 A 
ATOM     12  C   UNL     1      -4.862  -2.551   1.686  0.00  0.00    +0.000 A 
ATOM     13  C   UNL     1      -5.911  -2.505   2.610  0.00  0.00    +0.000 A 
ATOM     14  C   UNL     1      -5.652  -2.666   3.975  0.00  0.00    +0.000 A 
ATOM     15  C   UNL     1      -4.344  -2.873   4.419  0.00  0.00    +0.000 A 
ATOM     16  C   UNL     1      -3.291  -2.916   3.502  0.00  0.00    +0.000 A 
ENDBRANCH   5  11
BRANCH   1  18
ATOM     17  C   UNL     1       2.052   2.159  -1.327  0.00  0.00    +0.000 C 
ATOM     18  N   UNL     1       1.941   1.182  -0.472  0.00  0.00    +0.000 NA
BRANCH  17  19
ATOM     19  C   UNL     1       1.371   2.154  -2.637  0.00  0.00    +0.000 A 
ATOM     20  C   UNL     1      -0.028   2.248  -2.721  0.00  0.00    +0.000 A 
ATOM     21  C   UNL     1      -0.656   2.262  -3.970  0.00  0.00    +0.000 A 
ATOM     22  C   UNL     1       0.106   2.195  -5.139  0.00  0.00    +0.000 A 
ATOM     23  C   UNL     1       1.499   2.106  -5.060  0.00  0.00    +0.000 A 
ATOM     24  C   UNL     1       2.131   2.092  -3.812  0.00  0.00    +0.000 A 
ENDBRANCH  17  19
BRANCH  17  26
ATOM     25  H   UNL     1       2.985   4.020  -1.630  0.00  0.00    +0.000 HD
ATOM     26  O   UNL     1       2.872   3.235  -1.000  0.00  0.00    +0.000 OA
ENDBRANCH  17  26
ENDBRANCH   1  18
BRANCH  10  27
ATOM     27  O   UNL     1       3.112  -1.290  -1.294  0.00  0.00    +0.000 OA
ATOM     28  C   UNL     1       4.124  -2.188  -0.895  0.00  0.00    +0.000 C 
ENDBRANCH  10  27
BRANCH   2  29
ATOM     29  O   UNL     1       0.376   0.245   1.637  0.00  0.00    +0.000 OA
BRANCH  29  30
ATOM     30  S   UNL     1      -0.526   1.518   2.309  0.00  0.00    +0.000 S 
ATOM     31  O   UNL     1      -2.000   1.292   2.107  0.00  0.00    +0.000 OA
ATOM     32  O   UNL     1      -0.247   1.574   3.783  0.00  0.00    +0.000 OA
ATOM     33  C   UNL     1      -0.048   3.070   1.579  0.00  0.00    +0.000 C 
ENDBRANCH  29  30
ENDBRANCH   2  29
TORSDOF 7
