REMARK  Name = ZINC000106381125
REMARK  12 active torsions:
REMARK  status: ('A' for Active; 'I' for Inactive)
REMARK    1  A    between atoms: C_1  and  C_2
REMARK    2  A    between atoms: C_2  and  C_3
REMARK    3  A    between atoms: C_3  and  C_4
REMARK    4  A    between atoms: C_3  and  C_5
REMARK    5  A    between atoms: C_3  and  O_6
REMARK    6  A    between atoms: O_6  and  C_7
REMARK    7  A    between atoms: C_9  and  C_10
REMARK    8  A    between atoms: C_10  and  O_11
REMARK    9  A    between atoms: C_12  and  O_13
REMARK   10  A    between atoms: C_14  and  O_15
REMARK   11  A    between atoms: C_16  and  N_17
REMARK   12  A    between atoms: C_18  and  C_19
REMARK                            x       y       z     vdW  Elec       q    Type
REMARK                         _______ _______ _______ _____ _____    ______ ____
ROOT
ATOM      1  C   UNL     1       0.276  -1.034  -0.594  0.00  0.00    +0.000 C 
ATOM      2  O   UNL     1       0.477  -2.416  -0.349  0.00  0.00    +0.000 OA
ATOM      3  C   UNL     1       0.372  -3.166  -1.549  0.00  0.00    +0.000 C 
ATOM      4  C   UNL     1       1.518  -2.783  -2.518  0.00  0.00    +0.000 C 
ATOM      5  C   UNL     1       1.474  -1.271  -2.807  0.00  0.00    +0.000 C 
ATOM      6  C   UNL     1       1.416  -0.493  -1.478  0.00  0.00    +0.000 C 
ENDROOT
BRANCH   6   7
ATOM      7  N   UNL     1       1.229   0.942  -1.726  0.00  0.00    +0.000 N 
ATOM      8  C   UNL     1       1.921   1.955  -0.982  0.00  0.00    +0.000 C 
ATOM      9  C   UNL     1       1.607   3.397  -1.218  0.00  0.00    +0.000 C 
ATOM     10  O   UNL     1       2.769   1.641  -0.103  0.00  0.00    +0.000 OA
ATOM     11  H   UNL     1       0.453   1.247  -2.356  0.00  0.00    +0.000 HD
ENDBRANCH   6   7
BRANCH   4  12
ATOM     12  O   UNL     1       1.402  -3.492  -3.727  0.00  0.00    +0.000 OA
ATOM     13  H   UNL     1       1.958  -4.310  -3.643  0.00  0.00    +0.000 HD
ENDBRANCH   4  12
BRANCH   5  14
ATOM     14  O   UNL     1       0.350  -0.961  -3.597  0.00  0.00    +0.000 OA
ATOM     15  H   UNL     1       0.608  -1.117  -4.543  0.00  0.00    +0.000 HD
ENDBRANCH   5  14
BRANCH   1  16
ATOM     16  O   UNL     1       0.319  -0.350   0.649  0.00  0.00    +0.000 OA
BRANCH  16  17
ATOM     17  C   UNL     1      -0.951  -0.086   1.248  0.00  0.00    +0.000 C 
ATOM     18  C   UNL     1      -0.633   0.337   2.696  0.00  0.00    +0.000 C 
ATOM     19  C   UNL     1      -1.850  -1.351   1.313  0.00  0.00    +0.000 C 
BRANCH  17  21
ATOM     20  C   UNL     1      -2.926   1.626   1.166  0.00  0.00    +0.000 C 
ATOM     21  C   UNL     1      -1.653   1.092   0.499  0.00  0.00    +0.000 C 
ENDBRANCH  17  21
ENDBRANCH  16  17
ENDBRANCH   1  16
BRANCH   3  22
ATOM     22  C   UNL     1       0.427  -4.658  -1.192  0.00  0.00    +0.000 C 
BRANCH  22  23
ATOM     23  O   UNL     1      -0.572  -4.975  -0.260  0.00  0.00    +0.000 OA
ATOM     24  H   UNL     1      -1.432  -4.983  -0.756  0.00  0.00    +0.000 HD
ENDBRANCH  22  23
ENDBRANCH   3  22
TORSDOF 8
