REMARK  Name = ZINC000100342293
REMARK  9 active torsions:
REMARK  status: ('A' for Active; 'I' for Inactive)
REMARK    1  A    between atoms: C_1  and  O_2
REMARK    2  A    between atoms: O_2  and  C_3
REMARK    3  A    between atoms: C_6  and  C_7
REMARK    4  A    between atoms: N_8  and  C_9
REMARK    5  A    between atoms: C_10  and  O_11
REMARK    6  A    between atoms: C_13  and  C_14
REMARK    7  A    between atoms: C_14  and  O_15
REMARK    8  A    between atoms: C_16  and  O_17
REMARK    9  A    between atoms: C_18  and  O_19
REMARK                            x       y       z     vdW  Elec       q    Type
REMARK                         _______ _______ _______ _____ _____    ______ ____
ROOT
ATOM      1  C   UNL     1      -1.799  -1.239   1.033  0.00  0.00    +0.000 C 
ATOM      2  C   UNL     1      -2.694  -0.209   1.789  0.00  0.00    +0.000 C 
ATOM      3  O   UNL     1      -3.623   0.481   0.957  0.00  0.00    +0.000 OA
ATOM      4  C   UNL     1      -3.043   0.838  -0.284  0.00  0.00    +0.000 C 
ATOM      5  C   UNL     1      -2.852  -0.432  -1.155  0.00  0.00    +0.000 C 
ATOM      6  C   UNL     1      -2.495  -1.664  -0.277  0.00  0.00    +0.000 C 
ENDROOT
BRANCH   1   8
ATOM      7  C   UNL     1       0.584  -1.369   0.533  0.00  0.00    +0.000 C 
ATOM      8  N   UNL     1      -0.480  -0.660   0.758  0.00  0.00    +0.000 NA
BRANCH   7  12
ATOM      9  C   UNL     1       4.368   0.468  -0.336  0.00  0.00    +0.000 A 
ATOM     10  C   UNL     1       4.246  -0.924  -0.262  0.00  0.00    +0.000 A 
ATOM     11  C   UNL     1       3.012  -1.516   0.022  0.00  0.00    +0.000 A 
ATOM     12  C   UNL     1       1.877  -0.722   0.239  0.00  0.00    +0.000 A 
ATOM     13  C   UNL     1       1.996   0.677   0.165  0.00  0.00    +0.000 A 
ATOM     14  C   UNL     1       3.231   1.268  -0.120  0.00  0.00    +0.000 A 
BRANCH   9  16
ATOM     15  C   UNL     1       5.896   2.407  -0.729  0.00  0.00    +0.000 C 
ATOM     16  O   UNL     1       5.628   1.012  -0.624  0.00  0.00    +0.000 OA
ENDBRANCH   9  16
ENDBRANCH   7  12
ENDBRANCH   1   8
BRANCH   2  17
ATOM     17  O   UNL     1      -1.910   0.713   2.503  0.00  0.00    +0.000 OA
ATOM     18  H   UNL     1      -2.536   1.247   3.057  0.00  0.00    +0.000 HD
ENDBRANCH   2  17
BRANCH   5  19
ATOM     19  O   UNL     1      -1.896  -0.207  -2.163  0.00  0.00    +0.000 OA
ATOM     20  H   UNL     1      -1.027  -0.020  -1.723  0.00  0.00    +0.000 HD
ENDBRANCH   5  19
BRANCH   6  21
ATOM     21  O   UNL     1      -1.702  -2.584  -0.982  0.00  0.00    +0.000 OA
ATOM     22  H   UNL     1      -2.287  -2.995  -1.672  0.00  0.00    +0.000 HD
ENDBRANCH   6  21
BRANCH   4  23
ATOM     23  C   UNL     1      -3.953   1.853  -0.990  0.00  0.00    +0.000 C 
BRANCH  23  24
ATOM     24  O   UNL     1      -4.090   3.011  -0.211  0.00  0.00    +0.000 OA
ATOM     25  H   UNL     1      -3.247   3.525  -0.314  0.00  0.00    +0.000 HD
ENDBRANCH  23  24
ENDBRANCH   4  23
TORSDOF 8
