REMARK  Name = ZINC000101135603
REMARK  12 active torsions:
REMARK  status: ('A' for Active; 'I' for Inactive)
REMARK    1  A    between atoms: O_2  and  C_3
REMARK    2  A    between atoms: C_3  and  C_53
REMARK    3  A    between atoms: N_4  and  C_5
REMARK    4  A    between atoms: C_7  and  O_9
REMARK    5  A    between atoms: O_9  and  C_10
REMARK    6  A    between atoms: C_10  and  C_13
REMARK    7  A    between atoms: C_24  and  O_26
REMARK    8  A    between atoms: C_28  and  C_30
REMARK    9  A    between atoms: C_30  and  O_33
REMARK   10  A    between atoms: C_36  and  O_38
REMARK   11  A    between atoms: O_38  and  C_39
REMARK   12  A    between atoms: C_39  and  C_42
REMARK                            x       y       z     vdW  Elec       q    Type
REMARK                         _______ _______ _______ _____ _____    ______ ____
ROOT
ATOM      1  C   UNL     1      -0.189  -0.979  -0.421  0.00  0.00    +0.000 C 
ATOM      2  C   UNL     1      -0.983  -0.846   0.892  0.00  0.00    +0.000 C 
ATOM      3  C   UNL     1      -0.024  -1.015   2.086  0.00  0.00    +0.000 C 
ATOM      4  C   UNL     1       1.200  -0.076   1.934  0.00  0.00    +0.000 C 
ATOM      5  O   UNL     1       1.863  -0.335   0.706  0.00  0.00    +0.000 OA
ATOM      6  C   UNL     1       1.029  -0.025  -0.398  0.00  0.00    +0.000 C 
ENDROOT
BRANCH   1   8
ATOM      7  C   UNL     1      -1.109  -1.248  -2.711  0.00  0.00    +0.000 C 
ATOM      8  N   UNL     1      -1.066  -0.656  -1.552  0.00  0.00    +0.000 NA
ATOM      9  C   UNL     1      -0.247  -2.437  -3.043  0.00  0.00    +0.000 C 
BRANCH   7  11
ATOM     10  H   UNL     1      -2.089  -1.197  -4.577  0.00  0.00    +0.000 HD
ATOM     11  O   UNL     1      -2.007  -0.771  -3.662  0.00  0.00    +0.000 OA
ENDBRANCH   7  11
ENDBRANCH   1   8
BRANCH   3  12
ATOM     12  O   UNL     1      -0.701  -0.804   3.303  0.00  0.00    +0.000 OA
ATOM     13  H   UNL     1      -0.920   0.162   3.367  0.00  0.00    +0.000 HD
ENDBRANCH   3  12
BRANCH   2  14
ATOM     14  O   UNL     1      -1.591   0.438   0.949  0.00  0.00    +0.000 OA
BRANCH  14  15
ATOM     15  C   UNL     1      -2.998   0.336   0.935  0.00  0.00    +0.000 C 
BRANCH  15  16
ATOM     16  C   UNL     1      -3.579   1.719   0.893  0.00  0.00    +0.000 A 
ATOM     17  C   UNL     1      -3.898   2.392   2.084  0.00  0.00    +0.000 A 
ATOM     18  C   UNL     1      -4.398   3.697   2.042  0.00  0.00    +0.000 A 
ATOM     19  C   UNL     1      -4.569   4.343   0.814  0.00  0.00    +0.000 A 
ATOM     20  C   UNL     1      -4.236   3.686  -0.374  0.00  0.00    +0.000 A 
ATOM     21  C   UNL     1      -3.736   2.380  -0.336  0.00  0.00    +0.000 A 
ENDBRANCH  15  16
ENDBRANCH  14  15
ENDBRANCH   2  14
BRANCH   4  22
ATOM     22  C   UNL     1       2.198  -0.296   3.080  0.00  0.00    +0.000 C 
BRANCH  22  23
ATOM     23  O   UNL     1       3.314   0.538   2.925  0.00  0.00    +0.000 OA
ATOM     24  H   UNL     1       3.025   1.451   3.188  0.00  0.00    +0.000 HD
ENDBRANCH  22  23
ENDBRANCH   4  22
BRANCH   6  25
ATOM     25  O   UNL     1       1.787  -0.230  -1.579  0.00  0.00    +0.000 OA
BRANCH  25  26
ATOM     26  C   UNL     1       1.809   0.928  -2.386  0.00  0.00    +0.000 C 
BRANCH  26  27
ATOM     27  C   UNL     1       2.519   0.608  -3.669  0.00  0.00    +0.000 A 
ATOM     28  C   UNL     1       3.921   0.666  -3.734  0.00  0.00    +0.000 A 
ATOM     29  C   UNL     1       4.585   0.324  -4.916  0.00  0.00    +0.000 A 
ATOM     30  C   UNL     1       3.857  -0.089  -6.035  0.00  0.00    +0.000 A 
ATOM     31  C   UNL     1       2.462  -0.164  -5.973  0.00  0.00    +0.000 A 
ATOM     32  C   UNL     1       1.794   0.178  -4.793  0.00  0.00    +0.000 A 
ENDBRANCH  26  27
ENDBRANCH  25  26
ENDBRANCH   6  25
TORSDOF 11
