REMARK  Name = ZINC000394934764
REMARK  7 active torsions:
REMARK  status: ('A' for Active; 'I' for Inactive)
REMARK    1  A    between atoms: O_2  and  C_3
REMARK    2  A    between atoms: C_3  and  C_6
REMARK    3  A    between atoms: C_9  and  O_11
REMARK    4  A    between atoms: O_11  and  C_12
REMARK    5  A    between atoms: C_16  and  N_18
REMARK    6  A    between atoms: C_21  and  O_23
REMARK    7  A    between atoms: C_25  and  O_27
REMARK                            x       y       z     vdW  Elec       q    Type
REMARK                         _______ _______ _______ _____ _____    ______ ____
ROOT
ATOM      1  C   UNL     1      -0.715  -1.024  -1.869  0.00  0.00    +0.000 C 
ATOM      2  O   UNL     1       0.199  -0.253  -1.097  0.00  0.00    +0.000 OA
ATOM      3  C   UNL     1      -0.443   0.767  -0.342  0.00  0.00    +0.000 C 
ATOM      4  C   UNL     1      -1.414   0.156   0.682  0.00  0.00    +0.000 C 
ATOM      5  C   UNL     1      -2.466  -0.694  -0.046  0.00  0.00    +0.000 C 
ATOM      6  C   UNL     1      -1.796  -1.708  -0.995  0.00  0.00    +0.000 C 
ENDROOT
BRANCH   4   7
ATOM      7  N   UNL     1      -0.675  -0.659   1.647  0.00  0.00    +0.000 NA
ATOM      8  N   UNL     1      -0.690  -0.393   2.849  0.00  0.00    +0.000 NA
ATOM      9  N   UNL     1      -0.704  -0.127   4.050  0.00  0.00    +0.000 NA
ENDBRANCH   4   7
BRANCH   3  10
ATOM     10  O   UNL     1       0.535   1.511   0.361  0.00  0.00    +0.000 OA
ATOM     11  C   UNL     1       1.233   2.358  -0.526  0.00  0.00    +0.000 C 
ENDBRANCH   3  10
BRANCH   5  12
ATOM     12  O   UNL     1      -3.277  -1.355   0.892  0.00  0.00    +0.000 OA
ATOM     13  H   UNL     1      -4.072  -1.688   0.400  0.00  0.00    +0.000 HD
ENDBRANCH   5  12
BRANCH   6  14
ATOM     14  O   UNL     1      -1.212  -2.741  -0.241  0.00  0.00    +0.000 OA
ATOM     15  H   UNL     1      -1.090  -3.513  -0.854  0.00  0.00    +0.000 HD
ENDBRANCH   6  14
BRANCH   1  16
ATOM     16  C   UNL     1      -1.305  -0.242  -3.060  0.00  0.00    +0.000 C 
BRANCH  16  18
ATOM     17  H   UNL     1      -0.717   0.906  -4.494  0.00  0.00    +0.000 HD
ATOM     18  O   UNL     1      -0.280   0.425  -3.744  0.00  0.00    +0.000 OA
ENDBRANCH  16  18
ENDBRANCH   1  16
TORSDOF 6
