REMARK  Name = ZINC000102205030
REMARK  11 active torsions:
REMARK  status: ('A' for Active; 'I' for Inactive)
REMARK    1  A    between atoms: O_2  and  C_3
REMARK    2  A    between atoms: C_3  and  C_35
REMARK    3  A    between atoms: N_4  and  C_5
REMARK    4  A    between atoms: C_7  and  O_9
REMARK    5  A    between atoms: C_11  and  O_13
REMARK    6  A    between atoms: C_15  and  C_17
REMARK    7  A    between atoms: C_17  and  O_20
REMARK    8  A    between atoms: C_23  and  O_25
REMARK    9  A    between atoms: O_25  and  C_26
REMARK   10  A    between atoms: C_26  and  C_29
REMARK   11  A    between atoms: C_29  and  N_32
REMARK                            x       y       z     vdW  Elec       q    Type
REMARK                         _______ _______ _______ _____ _____    ______ ____
ROOT
ATOM      1  C   UNL     1      -1.058   1.736  -0.826  0.00  0.00    +0.000 C 
ATOM      2  C   UNL     1      -2.224   1.403  -1.792  0.00  0.00    +0.000 C 
ATOM      3  C   UNL     1      -3.084   0.247  -1.252  0.00  0.00    +0.000 C 
ATOM      4  C   UNL     1      -2.188  -0.990  -0.914  0.00  0.00    +0.000 C 
ATOM      5  O   UNL     1      -0.803  -0.678  -0.949  0.00  0.00    +0.000 OA
ATOM      6  C   UNL     1      -0.528   0.450  -0.137  0.00  0.00    +0.000 C 
ENDROOT
BRANCH   1   8
ATOM      7  C   UNL     1      -0.710   3.407   0.932  0.00  0.00    +0.000 C 
ATOM      8  N   UNL     1      -1.504   2.700   0.185  0.00  0.00    +0.000 NA
ATOM      9  C   UNL     1      -1.289   4.340   1.947  0.00  0.00    +0.000 C 
BRANCH   7  11
ATOM     10  H   UNL     1       1.299   3.835   1.394  0.00  0.00    +0.000 HD
ATOM     11  O   UNL     1       0.676   3.297   0.805  0.00  0.00    +0.000 OA
ENDBRANCH   7  11
ENDBRANCH   1   8
BRANCH   2  12
ATOM     12  O   UNL     1      -3.033   2.527  -2.023  0.00  0.00    +0.000 OA
ATOM     13  H   UNL     1      -2.483   3.185  -2.522  0.00  0.00    +0.000 HD
ENDBRANCH   2  12
BRANCH   3  14
ATOM     14  O   UNL     1      -3.769   0.674  -0.101  0.00  0.00    +0.000 OA
ATOM     15  H   UNL     1      -4.490   0.013   0.065  0.00  0.00    +0.000 HD
ENDBRANCH   3  14
BRANCH   4  16
ATOM     16  C   UNL     1      -2.448  -2.137  -1.898  0.00  0.00    +0.000 C 
BRANCH  16  17
ATOM     17  O   UNL     1      -1.655  -3.241  -1.558  0.00  0.00    +0.000 OA
ATOM     18  H   UNL     1      -1.841  -3.935  -2.243  0.00  0.00    +0.000 HD
ENDBRANCH  16  17
ENDBRANCH   4  16
BRANCH   6  19
ATOM     19  O   UNL     1       0.875   0.561   0.022  0.00  0.00    +0.000 OA
BRANCH  19  20
ATOM     20  C   UNL     1       1.307  -0.209   1.125  0.00  0.00    +0.000 C 
BRANCH  20  21
ATOM     21  C   UNL     1       2.834  -0.272   1.130  0.00  0.00    +0.000 C 
BRANCH  21  22
ATOM     22  N   UNL     1       3.321  -0.956   2.323  0.00  0.00    +0.000 NA
ATOM     23  N   UNL     1       3.187  -0.453   3.439  0.00  0.00    +0.000 NA
ATOM     24  N   UNL     1       3.054   0.052   4.552  0.00  0.00    +0.000 NA
ENDBRANCH  21  22
ENDBRANCH  20  21
ENDBRANCH  19  20
ENDBRANCH   6  19
TORSDOF 10
