REMARK  Name = 51351654
REMARK  7 active torsions:
REMARK  status: ('A' for Active; 'I' for Inactive)
REMARK    1  A    between atoms: S_2  and  N_5
REMARK    2  A    between atoms: N_5  and  C_6
REMARK    3  A    between atoms: C_7  and  O_8
REMARK    4  A    between atoms: C_10  and  C_11
REMARK    5  A    between atoms: C_11  and  O_12
REMARK    6  A    between atoms: C_13  and  O_14
REMARK    7  A    between atoms: C_15  and  O_16
REMARK                            x       y       z     vdW  Elec       q    Type
REMARK                         _______ _______ _______ _____ _____    ______ ____
ROOT
ATOM      1  C   UNL     1       0.704   0.263   0.646  0.00  0.00    +0.000 C 
ATOM      2  C   UNL     1       0.144  -1.090   1.149  0.00  0.00    +0.000 C 
ATOM      3  O   UNL     1      -0.816  -1.592   0.235  0.00  0.00    +0.000 OA
ATOM      4  C   UNL     1      -1.958  -0.753   0.197  0.00  0.00    +0.000 C 
ATOM      5  C   UNL     1      -1.577   0.634  -0.379  0.00  0.00    +0.000 C 
ATOM      6  C   UNL     1      -0.457   1.258   0.469  0.00  0.00    +0.000 C 
ENDROOT
BRANCH   1   7
ATOM      7  N   UNL     1       1.686   0.835   1.591  0.00  0.00    +0.000 NA
ATOM      8  H   UNL     1       1.718   0.298   2.488  0.00  0.00    +0.000 HD
BRANCH   7  10
ATOM      9  O   UNL     1       3.335   1.732  -0.284  0.00  0.00    +0.000 OA
ATOM     10  S   UNL     1       3.290   0.834   0.920  0.00  0.00    +0.000 S 
ATOM     11  O   UNL     1       4.258   1.342   1.951  0.00  0.00    +0.000 OA
ATOM     12  O   UNL     1       3.728  -0.725   0.471  0.00  0.00    +0.000 OA
ENDBRANCH   7  10
ENDBRANCH   1   7
BRANCH   2  13
ATOM     13  O   UNL     1       1.194  -2.013   1.248  0.00  0.00    +0.000 OA
ATOM     14  H   UNL     1       0.815  -2.824   1.676  0.00  0.00    +0.000 HD
ENDBRANCH   2  13
BRANCH   5  15
ATOM     15  O   UNL     1      -2.688   1.495  -0.361  0.00  0.00    +0.000 OA
ATOM     16  H   UNL     1      -3.068   1.505  -1.278  0.00  0.00    +0.000 HD
ENDBRANCH   5  15
BRANCH   6  17
ATOM     17  O   UNL     1       0.001   2.425  -0.166  0.00  0.00    +0.000 OA
ATOM     18  H   UNL     1       0.428   2.986   0.532  0.00  0.00    +0.000 HD
ENDBRANCH   6  17
BRANCH   4  19
ATOM     19  C   UNL     1      -3.026  -1.448  -0.665  0.00  0.00    +0.000 C 
BRANCH  19  20
ATOM     20  O   UNL     1      -4.265  -0.799  -0.564  0.00  0.00    +0.000 OA
ATOM     21  H   UNL     1      -4.643  -1.041   0.321  0.00  0.00    +0.000 HD
ENDBRANCH  19  20
ENDBRANCH   4  19
TORSDOF 7
