REMARK  Name = ZINC000257346492
REMARK  6 active torsions:
REMARK  status: ('A' for Active; 'I' for Inactive)
REMARK    1  A    between atoms: O_2  and  C_3
REMARK    2  A    between atoms: C_8  and  C_10
REMARK    3  A    between atoms: C_10  and  C_13
REMARK    4  A    between atoms: C_31  and  O_33
REMARK    5  A    between atoms: O_33  and  C_34
REMARK    6  A    between atoms: C_38  and  N_40
REMARK                            x       y       z     vdW  Elec       q    Type
REMARK                         _______ _______ _______ _____ _____    ______ ____
ROOT
ATOM      1  C   UNL     1       0.550  -2.052   1.229  0.00  0.00    +0.000 C 
ATOM      2  C   UNL     1       0.634  -0.506   1.161  0.00  0.00    +0.000 C 
ATOM      3  O   UNL     1      -0.379   0.059   0.346  0.00  0.00    +0.000 OA
ATOM      4  C   UNL     1      -0.130   1.440   0.057  0.00  0.00    +0.000 C 
ATOM      5  O   UNL     1       0.776   2.052   0.974  0.00  0.00    +0.000 OA
ATOM      6  C   UNL     1       2.072   1.474   0.874  0.00  0.00    +0.000 C 
ATOM      7  C   UNL     1       2.011  -0.048   0.672  0.00  0.00    +0.000 C 
ATOM      8  O   UNL     1       3.015  -0.727   1.392  0.00  0.00    +0.000 OA
ATOM      9  C   UNL     1       3.105  -2.099   0.994  0.00  0.00    +0.000 C 
ATOM     10  C   UNL     1       1.751  -2.738   0.528  0.00  0.00    +0.000 C 
ENDROOT
BRANCH  10  11
ATOM     11  N   UNL     1       1.637  -2.647  -0.929  0.00  0.00    +0.000 NA
ATOM     12  N   UNL     1       0.792  -3.290  -1.552  0.00  0.00    +0.000 NA
ATOM     13  N   UNL     1      -0.051  -3.933  -2.176  0.00  0.00    +0.000 NA
ENDBRANCH  10  11
BRANCH   1  15
ATOM     14  H   UNL     1      -0.785  -3.446   1.012  0.00  0.00    +0.000 HD
ATOM     15  O   UNL     1      -0.675  -2.506   0.711  0.00  0.00    +0.000 OA
ENDBRANCH   1  15
BRANCH   9  16
ATOM     16  O   UNL     1       3.587  -2.855   2.090  0.00  0.00    +0.000 OA
ATOM     17  C   UNL     1       4.970  -2.637   2.269  0.00  0.00    +0.000 C 
ENDBRANCH   9  16
BRANCH   4  18
ATOM     18  C   UNL     1      -1.455   2.205   0.100  0.00  0.00    +0.000 C 
BRANCH  18  19
ATOM     19  C   UNL     1      -2.428   1.672  -0.920  0.00  0.00    +0.000 A 
ATOM     20  C   UNL     1      -3.346   0.668  -0.569  0.00  0.00    +0.000 A 
ATOM     21  C   UNL     1      -4.222   0.148  -1.528  0.00  0.00    +0.000 A 
ATOM     22  C   UNL     1      -4.183   0.622  -2.842  0.00  0.00    +0.000 A 
ATOM     23  C   UNL     1      -3.265   1.612  -3.201  0.00  0.00    +0.000 A 
ATOM     24  C   UNL     1      -2.387   2.134  -2.247  0.00  0.00    +0.000 A 
ENDBRANCH  18  19
ENDBRANCH   4  18
TORSDOF 5
