REMARK  Name = 49802606
REMARK  8 active torsions:
REMARK  status: ('A' for Active; 'I' for Inactive)
REMARK    1  A    between atoms: O_2  and  C_3
REMARK    2  A    between atoms: C_3  and  C_27
REMARK    3  A    between atoms: N_4  and  C_5
REMARK    4  A    between atoms: C_7  and  O_9
REMARK    5  A    between atoms: C_12  and  C_14
REMARK    6  A    between atoms: C_14  and  O_17
REMARK    7  A    between atoms: C_19  and  O_21
REMARK    8  A    between atoms: C_23  and  O_25
REMARK                            x       y       z     vdW  Elec       q    Type
REMARK                         _______ _______ _______ _____ _____    ______ ____
ROOT
ATOM      1  C   UNL     1       0.850  -0.117   1.400  0.00  0.00    +0.000 C 
ATOM      2  C   UNL     1      -0.256   0.368   2.387  0.00  0.00    +0.000 C 
ATOM      3  O   UNL     1      -1.543   0.449   1.784  0.00  0.00    +0.000 OA
ATOM      4  C   UNL     1      -1.477   1.138   0.549  0.00  0.00    +0.000 C 
ATOM      5  C   UNL     1      -0.770   0.258  -0.525  0.00  0.00    +0.000 C 
ATOM      6  C   UNL     1       0.210  -0.741   0.139  0.00  0.00    +0.000 C 
ENDROOT
BRANCH   1   8
ATOM      7  C   UNL     1       2.879   0.909   0.485  0.00  0.00    +0.000 C 
ATOM      8  N   UNL     1       1.702   1.017   1.027  0.00  0.00    +0.000 NA
BRANCH   7   9
ATOM      9  C   UNL     1       3.656   2.142   0.137  0.00  0.00    +0.000 C 
ATOM     10  F   UNL     1       2.898   3.280   0.350  0.00  0.00    +0.000 F 
ATOM     11  F   UNL     1       4.793   2.203   0.922  0.00  0.00    +0.000 F 
ATOM     12  F   UNL     1       4.026   2.092  -1.194  0.00  0.00    +0.000 F 
ENDBRANCH   7   9
BRANCH   7  14
ATOM     13  H   UNL     1       4.352  -0.446  -0.173  0.00  0.00    +0.000 HD
ATOM     14  O   UNL     1       3.432  -0.348   0.241  0.00  0.00    +0.000 OA
ENDBRANCH   7  14
ENDBRANCH   1   8
BRANCH   2  15
ATOM     15  O   UNL     1      -0.325  -0.528   3.463  0.00  0.00    +0.000 OA
ATOM     16  H   UNL     1      -0.945  -0.127   4.127  0.00  0.00    +0.000 HD
ENDBRANCH   2  15
BRANCH   5  17
ATOM     17  O   UNL     1      -1.701  -0.439  -1.317  0.00  0.00    +0.000 OA
ATOM     18  H   UNL     1      -1.211  -0.761  -2.118  0.00  0.00    +0.000 HD
ENDBRANCH   5  17
BRANCH   6  19
ATOM     19  O   UNL     1      -0.476  -1.917   0.494  0.00  0.00    +0.000 OA
ATOM     20  H   UNL     1       0.213  -2.615   0.650  0.00  0.00    +0.000 HD
ENDBRANCH   6  19
BRANCH   4  21
ATOM     21  C   UNL     1      -2.886   1.590   0.140  0.00  0.00    +0.000 C 
BRANCH  21  22
ATOM     22  O   UNL     1      -3.782   0.512   0.184  0.00  0.00    +0.000 OA
ATOM     23  H   UNL     1      -4.661   0.873  -0.103  0.00  0.00    +0.000 HD
ENDBRANCH  21  22
ENDBRANCH   4  21
TORSDOF 8
