REMARK  Name = 49859685
REMARK  9 active torsions:
REMARK  status: ('A' for Active; 'I' for Inactive)
REMARK    1  A    between atoms: O_2  and  C_3
REMARK    2  A    between atoms: C_3  and  C_30
REMARK    3  A    between atoms: N_4  and  C_5
REMARK    4  A    between atoms: C_7  and  O_9
REMARK    5  A    between atoms: O_9  and  P_10
REMARK    6  A    between atoms: C_15  and  C_17
REMARK    7  A    between atoms: C_17  and  O_20
REMARK    8  A    between atoms: C_22  and  O_24
REMARK    9  A    between atoms: C_26  and  O_28
REMARK                            x       y       z     vdW  Elec       q    Type
REMARK                         _______ _______ _______ _____ _____    ______ ____
ROOT
ATOM      1  C   UNL     1       1.322   0.237  -0.691  0.00  0.00    +0.000 C 
ATOM      2  C   UNL     1       1.024  -0.262   0.744  0.00  0.00    +0.000 C 
ATOM      3  O   UNL     1       0.097  -1.340   0.724  0.00  0.00    +0.000 OA
ATOM      4  C   UNL     1      -1.154  -0.947   0.180  0.00  0.00    +0.000 C 
ATOM      5  C   UNL     1      -0.999  -0.542  -1.302  0.00  0.00    +0.000 C 
ATOM      6  C   UNL     1       0.012   0.616  -1.401  0.00  0.00    +0.000 C 
ENDROOT
BRANCH   1   8
ATOM      7  C   UNL     1       3.489   1.404  -0.441  0.00  0.00    +0.000 C 
ATOM      8  N   UNL     1       2.204   1.406  -0.655  0.00  0.00    +0.000 NA
ATOM      9  C   UNL     1       4.216   2.706  -0.419  0.00  0.00    +0.000 C 
BRANCH   7  11
ATOM     10  H   UNL     1       3.810  -0.698  -0.299  0.00  0.00    +0.000 HD
ATOM     11  O   UNL     1       4.218   0.226  -0.254  0.00  0.00    +0.000 OA
ENDBRANCH   7  11
ENDBRANCH   1   8
BRANCH   5  12
ATOM     12  O   UNL     1      -0.553  -1.644  -2.055  0.00  0.00    +0.000 OA
ATOM     13  H   UNL     1      -0.824  -1.480  -2.996  0.00  0.00    +0.000 HD
ENDBRANCH   5  12
BRANCH   6  14
ATOM     14  O   UNL     1       0.278   0.922  -2.746  0.00  0.00    +0.000 OA
ATOM     15  H   UNL     1      -0.526   1.386  -3.098  0.00  0.00    +0.000 HD
ENDBRANCH   6  14
BRANCH   2  16
ATOM     16  O   UNL     1       0.556   0.811   1.543  0.00  0.00    +0.000 OA
BRANCH  16  17
ATOM     17  P   UNL     1       0.722   0.405   3.192  0.00  0.00    +0.000 P 
ATOM     18  O   UNL     1       0.142   1.519   4.032  0.00  0.00    +0.000 OA
ATOM     19  O   UNL     1      -0.106  -1.031   3.535  0.00  0.00    +0.000 OA
ATOM     20  O   UNL     1       2.359   0.218   3.579  0.00  0.00    +0.000 OA
ENDBRANCH  16  17
ENDBRANCH   2  16
BRANCH   4  21
ATOM     21  C   UNL     1      -2.145  -2.106   0.349  0.00  0.00    +0.000 C 
BRANCH  21  22
ATOM     22  O   UNL     1      -3.418  -1.725  -0.094  0.00  0.00    +0.000 OA
ATOM     23  H   UNL     1      -4.003  -2.515   0.037  0.00  0.00    +0.000 HD
ENDBRANCH  21  22
ENDBRANCH   4  21
TORSDOF 8
