REMARK  Name = ZINC000616583781
REMARK  11 active torsions:
REMARK  status: ('A' for Active; 'I' for Inactive)
REMARK    1  A    between atoms: C_1  and  C_2
REMARK    2  A    between atoms: C_2  and  C_3
REMARK    3  A    between atoms: C_3  and  C_4
REMARK    4  A    between atoms: C_4  and  O_5
REMARK    5  A    between atoms: O_5  and  C_6
REMARK    6  A    between atoms: C_8  and  C_9
REMARK    7  A    between atoms: C_9  and  O_10
REMARK    8  A    between atoms: C_11  and  O_12
REMARK    9  A    between atoms: C_13  and  O_14
REMARK   10  A    between atoms: C_15  and  N_16
REMARK   11  A    between atoms: C_17  and  C_18
REMARK                            x       y       z     vdW  Elec       q    Type
REMARK                         _______ _______ _______ _____ _____    ______ ____
ROOT
ATOM      1  C   UNL     1      -0.352   0.178   0.073  0.00  0.00    +0.000 C 
ATOM      2  O   UNL     1       0.835   0.868  -0.286  0.00  0.00    +0.000 OA
ATOM      3  C   UNL     1       1.980   0.071  -0.033  0.00  0.00    +0.000 C 
ATOM      4  C   UNL     1       1.973  -1.175  -0.954  0.00  0.00    +0.000 C 
ATOM      5  C   UNL     1       0.675  -1.978  -0.748  0.00  0.00    +0.000 C 
ATOM      6  C   UNL     1      -0.545  -1.040  -0.854  0.00  0.00    +0.000 C 
ENDROOT
BRANCH   6   7
ATOM      7  N   UNL     1      -1.781  -1.758  -0.520  0.00  0.00    +0.000 N 
ATOM      8  C   UNL     1      -2.385  -2.703  -1.414  0.00  0.00    +0.000 C 
ATOM      9  C   UNL     1      -3.629  -3.422  -1.007  0.00  0.00    +0.000 C 
ATOM     10  O   UNL     1      -1.891  -2.909  -2.556  0.00  0.00    +0.000 OA
ATOM     11  H   UNL     1      -2.258  -1.565   0.391  0.00  0.00    +0.000 HD
ENDBRANCH   6   7
BRANCH   4  12
ATOM     12  O   UNL     1       3.085  -1.989  -0.677  0.00  0.00    +0.000 OA
ATOM     13  H   UNL     1       3.184  -2.609  -1.446  0.00  0.00    +0.000 HD
ENDBRANCH   4  12
BRANCH   5  14
ATOM     14  O   UNL     1       0.704  -2.606   0.511  0.00  0.00    +0.000 OA
ATOM     15  H   UNL     1       0.114  -3.402   0.453  0.00  0.00    +0.000 HD
ENDBRANCH   5  14
BRANCH   1  16
ATOM     16  O   UNL     1      -1.457   1.046  -0.100  0.00  0.00    +0.000 OA
BRANCH  16  17
ATOM     17  C   UNL     1      -1.527   1.968   0.969  0.00  0.00    +0.000 C 
BRANCH  17  18
ATOM     18  C   UNL     1      -2.652   2.968   0.686  0.00  0.00    +0.000 C 
BRANCH  18  20
ATOM     19  C   UNL     1      -3.217   3.608   3.091  0.00  0.00    +0.000 C 
ATOM     20  C   UNL     1      -2.724   4.094   1.729  0.00  0.00    +0.000 C 
ENDBRANCH  18  20
ENDBRANCH  17  18
ENDBRANCH  16  17
ENDBRANCH   1  16
BRANCH   3  21
ATOM     21  C   UNL     1       3.223   0.943  -0.276  0.00  0.00    +0.000 C 
BRANCH  21  22
ATOM     22  O   UNL     1       4.394   0.287   0.131  0.00  0.00    +0.000 OA
ATOM     23  H   UNL     1       4.409   0.320   1.123  0.00  0.00    +0.000 HD
ENDBRANCH  21  22
ENDBRANCH   3  21
TORSDOF 9
