REMARK  Name = ZINC000616583702
REMARK  12 active torsions:
REMARK  status: ('A' for Active; 'I' for Inactive)
REMARK    1  A    between atoms: C_1  and  C_2
REMARK    2  A    between atoms: C_2  and  C_3
REMARK    3  A    between atoms: C_3  and  C_4
REMARK    4  A    between atoms: C_4  and  C_5
REMARK    5  A    between atoms: C_5  and  O_6
REMARK    6  A    between atoms: O_6  and  C_7
REMARK    7  A    between atoms: C_9  and  C_10
REMARK    8  A    between atoms: C_10  and  O_11
REMARK    9  A    between atoms: C_12  and  O_13
REMARK   10  A    between atoms: C_14  and  O_15
REMARK   11  A    between atoms: C_16  and  N_17
REMARK   12  A    between atoms: C_18  and  C_19
REMARK                            x       y       z     vdW  Elec       q    Type
REMARK                         _______ _______ _______ _____ _____    ______ ____
ROOT
ATOM      1  C   UNL     1       0.189   0.230  -0.533  0.00  0.00    +0.000 C 
ATOM      2  O   UNL     1      -0.919  -0.634  -0.342  0.00  0.00    +0.000 OA
ATOM      3  C   UNL     1      -2.009  -0.249  -1.163  0.00  0.00    +0.000 C 
ATOM      4  C   UNL     1      -1.644  -0.438  -2.654  0.00  0.00    +0.000 C 
ATOM      5  C   UNL     1      -0.380   0.373  -2.994  0.00  0.00    +0.000 C 
ATOM      6  C   UNL     1       0.732   0.065  -1.969  0.00  0.00    +0.000 C 
ENDROOT
BRANCH   6   7
ATOM      7  N   UNL     1       1.893   0.936  -2.189  0.00  0.00    +0.000 N 
ATOM      8  C   UNL     1       2.806   0.737  -3.277  0.00  0.00    +0.000 C 
ATOM      9  C   UNL     1       3.942   1.686  -3.479  0.00  0.00    +0.000 C 
ATOM     10  O   UNL     1       2.644  -0.221  -4.081  0.00  0.00    +0.000 OA
ATOM     11  H   UNL     1       2.082   1.720  -1.524  0.00  0.00    +0.000 HD
ENDBRANCH   6   7
BRANCH   4  12
ATOM     12  O   UNL     1      -2.713  -0.026  -3.467  0.00  0.00    +0.000 OA
ATOM     13  H   UNL     1      -2.548  -0.405  -4.369  0.00  0.00    +0.000 HD
ENDBRANCH   4  12
BRANCH   5  14
ATOM     14  O   UNL     1      -0.687   1.747  -2.988  0.00  0.00    +0.000 OA
ATOM     15  H   UNL     1      -0.034   2.193  -3.587  0.00  0.00    +0.000 HD
ENDBRANCH   5  14
BRANCH   1  16
ATOM     16  O   UNL     1       1.217  -0.147   0.369  0.00  0.00    +0.000 OA
BRANCH  16  17
ATOM     17  C   UNL     1       1.121   0.543   1.605  0.00  0.00    +0.000 C 
BRANCH  17  18
ATOM     18  C   UNL     1       0.054  -0.061   2.530  0.00  0.00    +0.000 C 
BRANCH  18  19
ATOM     19  C   UNL     1       0.283  -1.564   2.761  0.00  0.00    +0.000 C 
BRANCH  19  21
ATOM     20  C   UNL     1      -2.116  -2.227   3.321  0.00  0.00    +0.000 C 
ATOM     21  C   UNL     1      -0.670  -2.152   3.812  0.00  0.00    +0.000 C 
ENDBRANCH  19  21
ENDBRANCH  18  19
ENDBRANCH  17  18
ENDBRANCH  16  17
ENDBRANCH   1  16
BRANCH   3  22
ATOM     22  C   UNL     1      -3.223  -1.105  -0.786  0.00  0.00    +0.000 C 
BRANCH  22  23
ATOM     23  O   UNL     1      -3.554  -0.885   0.557  0.00  0.00    +0.000 OA
ATOM     24  H   UNL     1      -4.323  -1.481   0.753  0.00  0.00    +0.000 HD
ENDBRANCH  22  23
ENDBRANCH   3  22
TORSDOF 10
