REMARK  Name = 45266822
REMARK  15 active torsions:
REMARK  status: ('A' for Active; 'I' for Inactive)
REMARK    1  A    between atoms: C_1  and  C_2
REMARK    2  A    between atoms: N_4  and  C_5
REMARK    3  A    between atoms: C_6  and  O_7
REMARK    4  A    between atoms: C_9  and  C_10
REMARK    5  A    between atoms: C_10  and  O_11
REMARK    6  A    between atoms: O_11  and  P_12
REMARK    7  A    between atoms: P_12  and  O_15
REMARK    8  A    between atoms: O_15  and  C_16
REMARK    9  A    between atoms: C_16  and  C_17
REMARK   10  A    between atoms: C_17  and  N_18
REMARK   11  A    between atoms: N_18  and  C_19
REMARK   12  A    between atoms: N_18  and  C_20
REMARK   13  A    between atoms: N_18  and  C_21
REMARK   14  A    between atoms: C_22  and  O_23
REMARK   15  A    between atoms: C_24  and  O_25
REMARK                            x       y       z     vdW  Elec       q    Type
REMARK                         _______ _______ _______ _____ _____    ______ ____
ROOT
ATOM      1  C   UNL     1      -0.472  -0.270   3.438  0.00  0.00    +0.000 C 
ATOM      2  C   UNL     1       0.588   0.807   3.769  0.00  0.00    +0.000 C 
ATOM      3  O   UNL     1       0.838   1.621   2.636  0.00  0.00    +0.000 OA
ATOM      4  C   UNL     1       1.438   0.863   1.598  0.00  0.00    +0.000 C 
ATOM      5  C   UNL     1       0.452  -0.212   1.071  0.00  0.00    +0.000 C 
ATOM      6  C   UNL     1      -0.013  -1.113   2.234  0.00  0.00    +0.000 C 
ENDROOT
BRANCH   1  10
ATOM      7  C   UNL     1      -2.111  -2.599   6.105  0.00  0.00    +0.000 C 
ATOM      8  C   UNL     1      -1.980  -1.633   4.973  0.00  0.00    +0.000 C 
ATOM      9  O   UNL     1      -3.009  -1.288   4.330  0.00  0.00    +0.000 OA
ATOM     10  N   UNL     1      -0.685  -1.142   4.597  0.00  0.00    +0.000 N 
ATOM     11  H   UNL     1       0.152  -1.526   5.093  0.00  0.00    +0.000 HD
ENDBRANCH   1  10
BRANCH   2  12
ATOM     12  O   UNL     1       0.108   1.632   4.798  0.00  0.00    +0.000 OA
ATOM     13  H   UNL     1       0.260   1.151   5.654  0.00  0.00    +0.000 HD
ENDBRANCH   2  12
BRANCH   5  14
ATOM     14  O   UNL     1      -0.648   0.361   0.402  0.00  0.00    +0.000 OA
ATOM     15  H   UNL     1      -1.066   1.028   1.004  0.00  0.00    +0.000 HD
ENDBRANCH   5  14
BRANCH   6  16
ATOM     16  O   UNL     1      -1.062  -1.948   1.815  0.00  0.00    +0.000 OA
ATOM     17  H   UNL     1      -0.657  -2.649   1.240  0.00  0.00    +0.000 HD
ENDBRANCH   6  16
BRANCH   4  18
ATOM     18  C   UNL     1       1.886   1.817   0.484  0.00  0.00    +0.000 C 
BRANCH  18  19
ATOM     19  O   UNL     1       2.563   1.092  -0.515  0.00  0.00    +0.000 OA
BRANCH  19  20
ATOM     20  P   UNL     1       2.973   2.149  -1.794  0.00  0.00    +0.000 P 
ATOM     21  O   UNL     1       4.456   2.023  -2.060  0.00  0.00    +0.000 OA
ATOM     22  O   UNL     1       2.630   3.768  -1.426  0.00  0.00    +0.000 OA
BRANCH  20  23
ATOM     23  O   UNL     1       2.131   1.698  -3.207  0.00  0.00    +0.000 OA
BRANCH  23  24
ATOM     24  C   UNL     1       0.752   1.701  -2.925  0.00  0.00    +0.000 C 
BRANCH  24  25
ATOM     25  C   UNL     1      -0.013   1.373  -4.223  0.00  0.00    +0.000 C 
BRANCH  25  26
ATOM     26  N   UNL     1      -1.503   1.326  -4.097  0.00  0.00    +0.000 N 
ATOM     27  C   UNL     1      -2.062   1.006  -5.433  0.00  0.00    +0.000 C 
ATOM     28  C   UNL     1      -1.933   0.271  -3.148  0.00  0.00    +0.000 C 
ATOM     29  C   UNL     1      -2.050   2.635  -3.666  0.00  0.00    +0.000 C 
ENDBRANCH  25  26
ENDBRANCH  24  25
ENDBRANCH  23  24
ENDBRANCH  20  23
ENDBRANCH  19  20
ENDBRANCH  18  19
ENDBRANCH   4  18
TORSDOF 11
