REMARK  Name = 129878031
REMARK  10 active torsions:
REMARK  status: ('A' for Active; 'I' for Inactive)
REMARK    1  A    between atoms: O_2  and  C_3
REMARK    2  A    between atoms: C_3  and  N_13
REMARK    3  A    between atoms: C_4  and  C_6
REMARK    4  A    between atoms: C_6  and  C_9
REMARK    5  A    between atoms: N_13  and  C_15
REMARK    6  A    between atoms: C_17  and  O_19
REMARK    7  A    between atoms: C_22  and  C_24
REMARK    8  A    between atoms: C_24  and  O_27
REMARK    9  A    between atoms: C_29  and  O_31
REMARK   10  A    between atoms: C_33  and  O_35
REMARK                            x       y       z     vdW  Elec       q    Type
REMARK                         _______ _______ _______ _____ _____    ______ ____
ROOT
ATOM      1  C   UNL     1      -0.191   0.765  -1.190  0.00  0.00    +0.000 C 
ATOM      2  C   UNL     1      -0.663  -0.042   0.063  0.00  0.00    +0.000 C 
ATOM      3  O   UNL     1      -1.999   0.264   0.448  0.00  0.00    +0.000 OA
ATOM      4  C   UNL     1      -2.230   1.661   0.421  0.00  0.00    +0.000 C 
ATOM      5  C   UNL     1      -2.300   2.158  -1.049  0.00  0.00    +0.000 C 
ATOM      6  C   UNL     1      -1.411   1.286  -1.974  0.00  0.00    +0.000 C 
ENDROOT
BRANCH   1   7
ATOM      7  N   UNL     1       0.695  -0.028  -2.055  0.00  0.00    +0.000 N 
ATOM      8  H   UNL     1       0.348  -0.306  -3.002  0.00  0.00    +0.000 HD
BRANCH   7   9
ATOM      9  C   UNL     1       2.018  -0.448  -1.669  0.00  0.00    +0.000 C 
ATOM     10  C   UNL     1       2.688  -1.312  -2.444  0.00  0.00    +0.000 C 
BRANCH   9  12
ATOM     11  H   UNL     1       2.186   0.720   0.099  0.00  0.00    +0.000 HD
ATOM     12  O   UNL     1       2.620   0.035  -0.504  0.00  0.00    +0.000 OA
ENDBRANCH   9  12
BRANCH  10  13
ATOM     13  C   UNL     1       4.071  -1.799  -2.113  0.00  0.00    +0.000 C 
BRANCH  13  14
ATOM     14  C   UNL     1       4.042  -2.829  -0.987  0.00  0.00    +0.000 C 
ATOM     15  H   UNL     1       5.071  -3.199  -0.797  0.00  0.00    +0.000 HD
ENDBRANCH  13  14
ENDBRANCH  10  13
ENDBRANCH   7   9
ENDBRANCH   1   7
BRANCH   2  16
ATOM     16  O   UNL     1      -0.586  -1.419  -0.199  0.00  0.00    +0.000 OA
ATOM     17  H   UNL     1      -0.741  -1.880   0.666  0.00  0.00    +0.000 HD
ENDBRANCH   2  16
BRANCH   5  18
ATOM     18  O   UNL     1      -1.874   3.496  -1.099  0.00  0.00    +0.000 OA
ATOM     19  H   UNL     1      -2.209   3.874  -1.953  0.00  0.00    +0.000 HD
ENDBRANCH   5  18
BRANCH   6  20
ATOM     20  O   UNL     1      -2.153   0.196  -2.464  0.00  0.00    +0.000 OA
ATOM     21  H   UNL     1      -2.725   0.545  -3.197  0.00  0.00    +0.000 HD
ENDBRANCH   6  20
BRANCH   4  22
ATOM     22  C   UNL     1      -3.529   1.959   1.179  0.00  0.00    +0.000 C 
BRANCH  22  23
ATOM     23  O   UNL     1      -3.751   3.341   1.230  0.00  0.00    +0.000 OA
ATOM     24  H   UNL     1      -4.604   3.464   1.723  0.00  0.00    +0.000 HD
ENDBRANCH  22  23
ENDBRANCH   4  22
TORSDOF 10
