REMARK  Name = 25243937
REMARK  9 active torsions:
REMARK  status: ('A' for Active; 'I' for Inactive)
REMARK    1  A    between atoms: O_2  and  C_3
REMARK    2  A    between atoms: C_3  and  C_30
REMARK    3  A    between atoms: N_4  and  C_5
REMARK    4  A    between atoms: C_7  and  O_9
REMARK    5  A    between atoms: O_9  and  P_10
REMARK    6  A    between atoms: C_15  and  C_17
REMARK    7  A    between atoms: C_17  and  O_20
REMARK    8  A    between atoms: C_22  and  O_24
REMARK    9  A    between atoms: C_26  and  O_28
REMARK                            x       y       z     vdW  Elec       q    Type
REMARK                         _______ _______ _______ _____ _____    ______ ____
ROOT
ATOM      1  C   UNL     1      -0.262   0.962  -0.346  0.00  0.00    +0.000 C 
ATOM      2  C   UNL     1       1.085   0.465   0.213  0.00  0.00    +0.000 C 
ATOM      3  O   UNL     1       2.043   0.343  -0.828  0.00  0.00    +0.000 OA
ATOM      4  C   UNL     1       1.660  -0.630  -1.788  0.00  0.00    +0.000 C 
ATOM      5  C   UNL     1       0.350  -0.204  -2.496  0.00  0.00    +0.000 C 
ATOM      6  C   UNL     1      -0.759   0.014  -1.453  0.00  0.00    +0.000 C 
ENDROOT
BRANCH   1   8
ATOM      7  C   UNL     1      -2.272   1.824   0.760  0.00  0.00    +0.000 C 
ATOM      8  N   UNL     1      -1.237   1.038   0.745  0.00  0.00    +0.000 NA
ATOM      9  C   UNL     1      -3.192   1.805   1.938  0.00  0.00    +0.000 C 
BRANCH   7  11
ATOM     10  H   UNL     1      -3.303   3.340  -0.276  0.00  0.00    +0.000 HD
ATOM     11  O   UNL     1      -2.508   2.712  -0.290  0.00  0.00    +0.000 OA
ENDBRANCH   7  11
ENDBRANCH   1   8
BRANCH   5  12
ATOM     12  O   UNL     1      -0.065  -1.204  -3.394  0.00  0.00    +0.000 OA
ATOM     13  H   UNL     1       0.201  -0.911  -4.304  0.00  0.00    +0.000 HD
ENDBRANCH   5  12
BRANCH   6  14
ATOM     14  O   UNL     1      -1.890   0.567  -2.074  0.00  0.00    +0.000 OA
ATOM     15  H   UNL     1      -2.378  -0.182  -2.507  0.00  0.00    +0.000 HD
ENDBRANCH   6  14
BRANCH   2  16
ATOM     16  O   UNL     1       0.906  -0.758   0.906  0.00  0.00    +0.000 OA
BRANCH  16  17
ATOM     17  P   UNL     1       2.246  -1.034   1.929  0.00  0.00    +0.000 P 
ATOM     18  O   UNL     1       2.266  -0.010   3.041  0.00  0.00    +0.000 OA
ATOM     19  O   UNL     1       3.693  -0.949   1.056  0.00  0.00    +0.000 OA
ATOM     20  O   UNL     1       2.106  -2.577   2.605  0.00  0.00    +0.000 OA
ENDBRANCH  16  17
ENDBRANCH   2  16
BRANCH   4  21
ATOM     21  C   UNL     1       2.818  -0.780  -2.789  0.00  0.00    +0.000 C 
BRANCH  21  22
ATOM     22  O   UNL     1       2.625  -1.886  -3.630  0.00  0.00    +0.000 OA
ATOM     23  H   UNL     1       2.825  -2.694  -3.088  0.00  0.00    +0.000 HD
ENDBRANCH  21  22
ENDBRANCH   4  21
TORSDOF 8
