REMARK  Name = 44119773
REMARK  7 active torsions:
REMARK  status: ('A' for Active; 'I' for Inactive)
REMARK    1  A    between atoms: C_1  and  C_2
REMARK    2  A    between atoms: N_4  and  C_5
REMARK    3  A    between atoms: C_6  and  O_7
REMARK    4  A    between atoms: C_9  and  C_10
REMARK    5  A    between atoms: C_10  and  O_11
REMARK    6  A    between atoms: C_12  and  O_13
REMARK    7  A    between atoms: C_14  and  O_15
REMARK                            x       y       z     vdW  Elec       q    Type
REMARK                         _______ _______ _______ _____ _____    ______ ____
ROOT
ATOM      1  C   UNL     1       0.374  -1.159  -0.508  0.00  0.00    +0.000 C 
ATOM      2  C   UNL     1      -0.885  -0.899  -1.387  0.00  0.00    +0.000 C 
ATOM      3  O   UNL     1      -1.547   0.312  -1.052  0.00  0.00    +0.000 OA
ATOM      4  C   UNL     1      -1.998   0.311   0.292  0.00  0.00    +0.000 C 
ATOM      5  C   UNL     1      -0.809   0.248   1.284  0.00  0.00    +0.000 C 
ATOM      6  C   UNL     1       0.053  -1.000   1.000  0.00  0.00    +0.000 C 
ENDROOT
BRANCH   1  10
ATOM      7  C   UNL     1       3.912   0.358  -1.170  0.00  0.00    +0.000 C 
ATOM      8  C   UNL     1       2.852  -0.601  -0.737  0.00  0.00    +0.000 C 
ATOM      9  O   UNL     1       3.184  -1.714  -0.246  0.00  0.00    +0.000 OA
ATOM     10  N   UNL     1       1.468  -0.268  -0.920  0.00  0.00    +0.000 N 
ATOM     11  H   UNL     1       1.246   0.606  -1.449  0.00  0.00    +0.000 HD
ENDBRANCH   1  10
BRANCH   2  12
ATOM     12  O   UNL     1      -1.787  -1.983  -1.418  0.00  0.00    +0.000 OA
ATOM     13  H   UNL     1      -1.792  -2.426  -0.533  0.00  0.00    +0.000 HD
ENDBRANCH   2  12
BRANCH   5  14
ATOM     14  O   UNL     1      -0.031   1.421   1.277  0.00  0.00    +0.000 OA
ATOM     15  H   UNL     1       0.196   1.639   0.338  0.00  0.00    +0.000 HD
ENDBRANCH   5  14
BRANCH   6  16
ATOM     16  O   UNL     1       1.236  -0.962   1.757  0.00  0.00    +0.000 OA
ATOM     17  H   UNL     1       0.979  -1.120   2.703  0.00  0.00    +0.000 HD
ENDBRANCH   6  16
BRANCH   4  18
ATOM     18  C   UNL     1      -2.884   1.542   0.532  0.00  0.00    +0.000 C 
BRANCH  18  19
ATOM     19  O   UNL     1      -2.224   2.715   0.140  0.00  0.00    +0.000 OA
ATOM     20  H   UNL     1      -2.849   3.461   0.333  0.00  0.00    +0.000 HD
ENDBRANCH  18  19
ENDBRANCH   4  18
TORSDOF 6
