REMARK  Name = 12917651
REMARK  10 active torsions:
REMARK  status: ('A' for Active; 'I' for Inactive)
REMARK    1  A    between atoms: C_1  and  C_2
REMARK    2  A    between atoms: N_4  and  C_5
REMARK    3  A    between atoms: C_6  and  O_7
REMARK    4  A    between atoms: C_9  and  C_10
REMARK    5  A    between atoms: C_10  and  O_11
REMARK    6  A    between atoms: C_12  and  O_13
REMARK    7  A    between atoms: C_14  and  O_15
REMARK    8  A    between atoms: O_15  and  C_16
REMARK    9  A    between atoms: C_16  and  C_17
REMARK   10  A    between atoms: C_16  and  C_18
REMARK                            x       y       z     vdW  Elec       q    Type
REMARK                         _______ _______ _______ _____ _____    ______ ____
ROOT
ATOM      1  C   UNL     1       0.680   1.271   0.119  0.00  0.00    +0.000 C 
ATOM      2  C   UNL     1       1.336   2.034  -1.047  0.00  0.00    +0.000 C 
ATOM      3  O   UNL     1       0.585   3.196  -1.356  0.00  0.00    +0.000 OA
ATOM      4  C   UNL     1      -0.696   2.842  -1.852  0.00  0.00    +0.000 C 
ATOM      5  C   UNL     1      -1.520   2.133  -0.753  0.00  0.00    +0.000 C 
ATOM      6  C   UNL     1      -0.765   0.886  -0.254  0.00  0.00    +0.000 C 
ENDROOT
BRANCH   1  10
ATOM      7  C   UNL     1       2.418  -1.663   2.010  0.00  0.00    +0.000 C 
ATOM      8  C   UNL     1       1.728  -0.360   1.772  0.00  0.00    +0.000 C 
ATOM      9  O   UNL     1       1.377   0.347   2.755  0.00  0.00    +0.000 OA
ATOM     10  N   UNL     1       1.460   0.069   0.430  0.00  0.00    +0.000 N 
ATOM     11  H   UNL     1       1.718  -0.573  -0.355  0.00  0.00    +0.000 HD
ENDBRANCH   1  10
BRANCH   2  12
ATOM     12  O   UNL     1       2.629   2.421  -0.666  0.00  0.00    +0.000 OA
ATOM     13  H   UNL     1       3.054   2.812  -1.473  0.00  0.00    +0.000 HD
ENDBRANCH   2  12
BRANCH   5  14
ATOM     14  O   UNL     1      -2.769   1.753  -1.271  0.00  0.00    +0.000 OA
ATOM     15  H   UNL     1      -3.381   1.643  -0.497  0.00  0.00    +0.000 HD
ENDBRANCH   5  14
BRANCH   4  16
ATOM     16  C   UNL     1      -1.404   4.121  -2.322  0.00  0.00    +0.000 C 
BRANCH  16  17
ATOM     17  O   UNL     1      -0.642   4.770  -3.305  0.00  0.00    +0.000 OA
ATOM     18  H   UNL     1      -0.758   4.251  -4.143  0.00  0.00    +0.000 HD
ENDBRANCH  16  17
ENDBRANCH   4  16
BRANCH   6  19
ATOM     19  O   UNL     1      -1.433   0.383   0.895  0.00  0.00    +0.000 OA
BRANCH  19  20
ATOM     20  C   UNL     1      -1.584  -1.027   0.858  0.00  0.00    +0.000 C 
ATOM     21  C   UNL     1      -2.878  -1.401   0.130  0.00  0.00    +0.000 C 
BRANCH  20  22
ATOM     22  C   UNL     1      -1.644  -1.535   2.267  0.00  0.00    +0.000 C 
ATOM     23  O   UNL     1      -1.064  -2.609   2.579  0.00  0.00    +0.000 OA
ATOM     24  O   UNL     1      -2.377  -0.848   3.227  0.00  0.00    +0.000 OA
ENDBRANCH  20  22
ENDBRANCH  19  20
ENDBRANCH   6  19
TORSDOF 8
