REMARK  Name = 22833605
REMARK  9 active torsions:
REMARK  status: ('A' for Active; 'I' for Inactive)
REMARK    1  A    between atoms: C_1  and  C_2
REMARK    2  A    between atoms: C_2  and  O_3
REMARK    3  A    between atoms: C_2  and  C_15
REMARK    4  A    between atoms: O_3  and  C_4
REMARK    5  A    between atoms: C_5  and  O_6
REMARK    6  A    between atoms: C_7  and  C_8
REMARK    7  A    between atoms: C_8  and  O_9
REMARK    8  A    between atoms: C_11  and  O_12
REMARK    9  A    between atoms: C_13  and  N_14
REMARK                            x       y       z     vdW  Elec       q    Type
REMARK                         _______ _______ _______ _____ _____    ______ ____
ROOT
ATOM      1  C   UNL     1      -0.499  -1.180  -0.251  0.00  0.00    +0.000 C 
ATOM      2  C   UNL     1      -2.027  -1.024  -0.387  0.00  0.00    +0.000 C 
ATOM      3  C   UNL     1      -2.377   0.442  -0.750  0.00  0.00    +0.000 C 
ATOM      4  O   UNL     1      -1.885   1.329   0.240  0.00  0.00    +0.000 OA
ATOM      5  C   UNL     1      -0.468   1.296   0.288  0.00  0.00    +0.000 C 
ATOM      6  C   UNL     1       0.032  -0.105   0.725  0.00  0.00    +0.000 C 
ENDROOT
BRANCH   6   7
ATOM      7  N   UNL     1       1.498  -0.144   0.810  0.00  0.00    +0.000 N 
ATOM      8  H   UNL     1       1.829   0.515   1.551  0.00  0.00    +0.000 HD
ATOM      9  H   UNL     1       1.813  -1.105   1.073  0.00  0.00    +0.000 HD
ATOM     10  H   UNL     1       1.933   0.126  -0.103  0.00  0.00    +0.000 HD
ENDBRANCH   6   7
BRANCH   2  11
ATOM     11  O   UNL     1      -2.505  -1.902  -1.376  0.00  0.00    +0.000 OA
ATOM     12  H   UNL     1      -3.405  -2.206  -1.090  0.00  0.00    +0.000 HD
ENDBRANCH   2  11
BRANCH   5  13
ATOM     13  O   UNL     1      -0.017   2.275   1.187  0.00  0.00    +0.000 OA
ATOM     14  H   UNL     1      -0.482   2.117   2.050  0.00  0.00    +0.000 HD
ENDBRANCH   5  13
BRANCH   1  15
ATOM     15  O   UNL     1       0.122  -1.011  -1.520  0.00  0.00    +0.000 OA
BRANCH  15  17
ATOM     16  C   UNL     1       1.873  -2.666  -1.734  0.00  0.00    +0.000 C 
ATOM     17  C   UNL     1       0.455  -2.248  -2.129  0.00  0.00    +0.000 C 
BRANCH  17  18
ATOM     18  C   UNL     1       0.379  -2.084  -3.617  0.00  0.00    +0.000 C 
ATOM     19  O   UNL     1       0.866  -1.063  -4.172  0.00  0.00    +0.000 OA
ATOM     20  O   UNL     1      -0.198  -3.078  -4.398  0.00  0.00    +0.000 OA
ENDBRANCH  17  18
ENDBRANCH  15  17
ENDBRANCH   1  15
BRANCH   3  21
ATOM     21  C   UNL     1      -3.895   0.650  -0.880  0.00  0.00    +0.000 C 
BRANCH  21  22
ATOM     22  O   UNL     1      -4.560   0.306   0.306  0.00  0.00    +0.000 OA
ATOM     23  H   UNL     1      -4.438   1.065   0.933  0.00  0.00    +0.000 HD
ENDBRANCH  21  22
ENDBRANCH   3  21
TORSDOF 8
