REMARK  Name = 24779679
REMARK  12 active torsions:
REMARK  status: ('A' for Active; 'I' for Inactive)
REMARK    1  A    between atoms: O_2  and  C_3
REMARK    2  A    between atoms: C_3  and  C_40
REMARK    3  A    between atoms: N_4  and  C_5
REMARK    4  A    between atoms: C_7  and  O_9
REMARK    5  A    between atoms: O_9  and  C_10
REMARK    6  A    between atoms: N_12  and  C_14
REMARK    7  A    between atoms: C_14  and  C_17
REMARK    8  A    between atoms: C_17  and  C_20
REMARK    9  A    between atoms: C_25  and  C_27
REMARK   10  A    between atoms: C_27  and  O_30
REMARK   11  A    between atoms: C_32  and  O_34
REMARK   12  A    between atoms: C_36  and  O_38
REMARK                            x       y       z     vdW  Elec       q    Type
REMARK                         _______ _______ _______ _____ _____    ______ ____
ROOT
ATOM      1  C   UNL     1       1.263  -0.993  -0.987  0.00  0.00    +0.000 C 
ATOM      2  C   UNL     1       1.338  -1.063   0.549  0.00  0.00    +0.000 C 
ATOM      3  O   UNL     1       1.092  -2.379   1.020  0.00  0.00    +0.000 OA
ATOM      4  C   UNL     1      -0.220  -2.813   0.693  0.00  0.00    +0.000 C 
ATOM      5  C   UNL     1      -0.405  -2.877  -0.843  0.00  0.00    +0.000 C 
ATOM      6  C   UNL     1      -0.107  -1.502  -1.473  0.00  0.00    +0.000 C 
ENDROOT
BRANCH   1   8
ATOM      7  C   UNL     1       1.937   0.754  -2.570  0.00  0.00    +0.000 C 
ATOM      8  N   UNL     1       1.476   0.393  -1.411  0.00  0.00    +0.000 NA
ATOM      9  C   UNL     1       2.071   2.210  -2.884  0.00  0.00    +0.000 C 
BRANCH   7  11
ATOM     10  H   UNL     1       2.627   0.077  -4.441  0.00  0.00    +0.000 HD
ATOM     11  O   UNL     1       2.283  -0.198  -3.529  0.00  0.00    +0.000 OA
ENDBRANCH   7  11
ENDBRANCH   1   8
BRANCH   5  12
ATOM     12  O   UNL     1      -1.701  -3.305  -1.183  0.00  0.00    +0.000 OA
ATOM     13  H   UNL     1      -2.344  -2.654  -0.796  0.00  0.00    +0.000 HD
ENDBRANCH   5  12
BRANCH   6  14
ATOM     14  O   UNL     1      -0.101  -1.613  -2.873  0.00  0.00    +0.000 OA
ATOM     15  H   UNL     1      -1.049  -1.601  -3.167  0.00  0.00    +0.000 HD
ENDBRANCH   6  14
BRANCH   2  16
ATOM     16  O   UNL     1       0.439  -0.122   1.139  0.00  0.00    +0.000 OA
BRANCH  16  17
ATOM     17  C   UNL     1       0.438   0.190   2.502  0.00  0.00    +0.000 C 
ATOM     18  O   UNL     1       1.254  -0.367   3.286  0.00  0.00    +0.000 OA
ATOM     19  N   UNL     1      -0.485   1.155   3.015  0.00  0.00    +0.000 N 
ATOM     20  H   UNL     1      -0.420   1.433   4.020  0.00  0.00    +0.000 HD
BRANCH  19  21
ATOM     21  C   UNL     1      -1.480   1.817   2.171  0.00  0.00    +0.000 C 
BRANCH  21  22
ATOM     22  C   UNL     1      -0.977   3.184   1.695  0.00  0.00    +0.000 C 
ATOM     23  C   UNL     1       0.144   3.068   0.664  0.00  0.00    +0.000 C 
ENDBRANCH  21  22
ENDBRANCH  19  21
ENDBRANCH  16  17
ENDBRANCH   2  16
BRANCH   4  24
ATOM     24  C   UNL     1      -0.443  -4.195   1.324  0.00  0.00    +0.000 C 
BRANCH  24  25
ATOM     25  O   UNL     1      -0.255  -4.135   2.712  0.00  0.00    +0.000 OA
ATOM     26  H   UNL     1      -1.059  -3.689   3.089  0.00  0.00    +0.000 HD
ENDBRANCH  24  25
ENDBRANCH   4  24
TORSDOF 10
