REMARK  Name = 9816401
REMARK  9 active torsions:
REMARK  status: ('A' for Active; 'I' for Inactive)
REMARK    1  A    between atoms: C_1  and  C_2
REMARK    2  A    between atoms: C_2  and  O_3
REMARK    3  A    between atoms: C_2  and  C_15
REMARK    4  A    between atoms: O_3  and  C_4
REMARK    5  A    between atoms: C_5  and  O_6
REMARK    6  A    between atoms: C_7  and  C_8
REMARK    7  A    between atoms: C_8  and  O_9
REMARK    8  A    between atoms: C_11  and  O_12
REMARK    9  A    between atoms: C_13  and  N_14
REMARK                            x       y       z     vdW  Elec       q    Type
REMARK                         _______ _______ _______ _____ _____    ______ ____
ROOT
ATOM      1  C   UNL     1       0.402  -0.303   0.205  0.00  0.00    +0.000 C 
ATOM      2  C   UNL     1      -0.802   0.636   0.404  0.00  0.00    +0.000 C 
ATOM      3  C   UNL     1      -0.432   2.068  -0.054  0.00  0.00    +0.000 C 
ATOM      4  O   UNL     1       0.694   2.553   0.662  0.00  0.00    +0.000 OA
ATOM      5  C   UNL     1       1.849   1.764   0.419  0.00  0.00    +0.000 C 
ATOM      6  C   UNL     1       1.642   0.307   0.887  0.00  0.00    +0.000 C 
ENDROOT
BRANCH   6   7
ATOM      7  N   UNL     1       2.833  -0.493   0.589  0.00  0.00    +0.000 NA
ATOM      8  H   UNL     1       2.723  -1.428   1.044  0.00  0.00    +0.000 HD
ATOM      9  H   UNL     1       3.656  -0.049   1.058  0.00  0.00    +0.000 HD
ENDBRANCH   6   7
BRANCH   2  10
ATOM     10  O   UNL     1      -1.890   0.159  -0.348  0.00  0.00    +0.000 OA
ATOM     11  H   UNL     1      -2.712   0.328   0.183  0.00  0.00    +0.000 HD
ENDBRANCH   2  10
BRANCH   5  12
ATOM     12  O   UNL     1       2.222   1.810  -0.936  0.00  0.00    +0.000 OA
ATOM     13  H   UNL     1       2.445   2.757  -1.132  0.00  0.00    +0.000 HD
ENDBRANCH   5  12
BRANCH   1  14
ATOM     14  O   UNL     1       0.122  -1.561   0.804  0.00  0.00    +0.000 OA
BRANCH  14  16
ATOM     15  C   UNL     1      -1.157  -3.565   0.529  0.00  0.00    +0.000 C 
ATOM     16  C   UNL     1      -0.261  -2.534  -0.153  0.00  0.00    +0.000 C 
BRANCH  16  17
ATOM     17  C   UNL     1       0.959  -3.209  -0.714  0.00  0.00    +0.000 C 
ATOM     18  O   UNL     1       1.196  -3.164  -1.949  0.00  0.00    +0.000 OA
ATOM     19  O   UNL     1       1.837  -3.881   0.129  0.00  0.00    +0.000 OA
ENDBRANCH  16  17
ENDBRANCH  14  16
ENDBRANCH   1  14
BRANCH   3  20
ATOM     20  C   UNL     1      -1.594   3.047   0.156  0.00  0.00    +0.000 C 
BRANCH  20  21
ATOM     21  O   UNL     1      -1.925   3.130   1.516  0.00  0.00    +0.000 OA
ATOM     22  H   UNL     1      -2.680   3.772   1.577  0.00  0.00    +0.000 HD
ENDBRANCH  20  21
ENDBRANCH   3  20
TORSDOF 8
