REMARK  Name = 12302999
REMARK  6 active torsions:
REMARK  status: ('A' for Active; 'I' for Inactive)
REMARK    1  A    between atoms: N_1  and  C_2
REMARK    2  A    between atoms: C_3  and  O_4
REMARK    3  A    between atoms: C_6  and  C_7
REMARK    4  A    between atoms: C_7  and  O_8
REMARK    5  A    between atoms: C_9  and  O_10
REMARK    6  A    between atoms: C_11  and  O_12
REMARK                            x       y       z     vdW  Elec       q    Type
REMARK                         _______ _______ _______ _____ _____    ______ ____
ROOT
ATOM      1  C   UNL     1       0.343   0.324  -0.678  0.00  0.00    +0.000 C 
ATOM      2  C   UNL     1      -1.040   0.593  -0.037  0.00  0.00    +0.000 C 
ATOM      3  O   UNL     1      -0.923   0.841   1.357  0.00  0.00    +0.000 OA
ATOM      4  C   UNL     1      -0.399  -0.282   2.051  0.00  0.00    +0.000 C 
ATOM      5  C   UNL     1       1.032  -0.625   1.558  0.00  0.00    +0.000 C 
ATOM      6  C   UNL     1       1.018  -0.864   0.036  0.00  0.00    +0.000 C 
ENDROOT
BRANCH   1   7
ATOM      7  N   UNL     1       1.176   1.529  -0.587  0.00  0.00    +0.000 NA
ATOM      8  H   UNL     1       2.056   1.369  -1.129  0.00  0.00    +0.000 HD
ATOM      9  H   UNL     1       0.686   2.310  -1.081  0.00  0.00    +0.000 HD
ENDBRANCH   1   7
BRANCH   2  10
ATOM     10  O   UNL     1      -1.932  -0.469  -0.280  0.00  0.00    +0.000 OA
ATOM     11  H   UNL     1      -2.166  -0.434  -1.244  0.00  0.00    +0.000 HD
ENDBRANCH   2  10
BRANCH   5  12
ATOM     12  O   UNL     1       1.546  -1.747   2.233  0.00  0.00    +0.000 OA
ATOM     13  H   UNL     1       0.941  -2.512   2.051  0.00  0.00    +0.000 HD
ENDBRANCH   5  12
BRANCH   6  14
ATOM     14  O   UNL     1       2.327  -1.036  -0.446  0.00  0.00    +0.000 OA
ATOM     15  H   UNL     1       2.599  -1.963  -0.217  0.00  0.00    +0.000 HD
ENDBRANCH   6  14
BRANCH   4  16
ATOM     16  C   UNL     1      -0.419   0.022   3.557  0.00  0.00    +0.000 C 
BRANCH  16  17
ATOM     17  O   UNL     1       0.311   1.186   3.844  0.00  0.00    +0.000 OA
ATOM     18  H   UNL     1       1.234   0.900   4.070  0.00  0.00    +0.000 HD
ENDBRANCH  16  17
ENDBRANCH   4  16
TORSDOF 6
