REMARK  Name = 6713972
REMARK  9 active torsions:
REMARK  status: ('A' for Active; 'I' for Inactive)
REMARK    1  A    between atoms: O_2  and  C_3
REMARK    2  A    between atoms: N_4  and  C_6
REMARK    3  A    between atoms: C_8  and  O_10
REMARK    4  A    between atoms: C_13  and  C_15
REMARK    5  A    between atoms: C_15  and  O_18
REMARK    6  A    between atoms: C_20  and  O_22
REMARK    7  A    between atoms: C_24  and  O_26
REMARK    8  A    between atoms: N_28  and  N_29
REMARK    9  A    between atoms: N_28  and  C_31
REMARK                            x       y       z     vdW  Elec       q    Type
REMARK                         _______ _______ _______ _____ _____    ______ ____
ROOT
ATOM      1  C   UNL     1       0.281  -0.881   0.277  0.00  0.00    +0.000 C 
ATOM      2  C   UNL     1      -0.965  -1.640  -0.247  0.00  0.00    +0.000 C 
ATOM      3  O   UNL     1      -1.900  -1.820   0.803  0.00  0.00    +0.000 OA
ATOM      4  C   UNL     1      -2.519  -0.594   1.186  0.00  0.00    +0.000 C 
ATOM      5  C   UNL     1      -1.581   0.647   1.089  0.00  0.00    +0.000 C 
ATOM      6  C   UNL     1      -0.117   0.215   1.303  0.00  0.00    +0.000 C 
ENDROOT
BRANCH   1   8
ATOM      7  C   UNL     1       2.400   0.142  -0.681  0.00  0.00    +0.000 C 
ATOM      8  N   UNL     1       1.034  -0.294  -0.841  0.00  0.00    +0.000 N 
ATOM      9  H   UNL     1       0.578  -0.240  -1.778  0.00  0.00    +0.000 HD
ATOM     10  N   UNL     1       3.047   0.701  -1.679  0.00  0.00    +0.000 N 
ATOM     11  C   UNL     1       4.443   1.141  -1.528  0.00  0.00    +0.000 C 
BRANCH   7  13
ATOM     12  H   UNL     1       3.952   0.233   0.794  0.00  0.00    +0.000 HD
ATOM     13  O   UNL     1       3.007  -0.048   0.568  0.00  0.00    +0.000 OA
ENDBRANCH   7  13
BRANCH  10  14
ATOM     14  N   UNL     1       2.384   0.892  -2.909  0.00  0.00    +0.000 NA
ATOM     15  O   UNL     1       2.941   1.429  -3.890  0.00  0.00    +0.000 OA
ENDBRANCH  10  14
ENDBRANCH   1   8
BRANCH   2  16
ATOM     16  O   UNL     1      -0.568  -2.895  -0.730  0.00  0.00    +0.000 OA
ATOM     17  H   UNL     1      -1.375  -3.308  -1.135  0.00  0.00    +0.000 HD
ENDBRANCH   2  16
BRANCH   5  18
ATOM     18  O   UNL     1      -1.957   1.605   2.045  0.00  0.00    +0.000 OA
ATOM     19  H   UNL     1      -1.506   2.453   1.794  0.00  0.00    +0.000 HD
ENDBRANCH   5  18
BRANCH   6  20
ATOM     20  O   UNL     1       0.047  -0.291   2.605  0.00  0.00    +0.000 OA
ATOM     21  H   UNL     1       0.143   0.489   3.212  0.00  0.00    +0.000 HD
ENDBRANCH   6  20
BRANCH   4  22
ATOM     22  C   UNL     1      -3.826  -0.397   0.405  0.00  0.00    +0.000 C 
BRANCH  22  23
ATOM     23  O   UNL     1      -4.546   0.682   0.936  0.00  0.00    +0.000 OA
ATOM     24  H   UNL     1      -5.373   0.756   0.392  0.00  0.00    +0.000 HD
ENDBRANCH  22  23
ENDBRANCH   4  22
TORSDOF 8
