REMARK  Name = 91820057
REMARK  8 active torsions:
REMARK  status: ('A' for Active; 'I' for Inactive)
REMARK    1  A    between atoms: C_1  and  C_2
REMARK    2  A    between atoms: N_4  and  C_5
REMARK    3  A    between atoms: C_6  and  O_7
REMARK    4  A    between atoms: C_9  and  C_10
REMARK    5  A    between atoms: C_10  and  O_11
REMARK    6  A    between atoms: O_11  and  S_12
REMARK    7  A    between atoms: C_16  and  O_17
REMARK    8  A    between atoms: C_18  and  O_19
REMARK                            x       y       z     vdW  Elec       q    Type
REMARK                         _______ _______ _______ _____ _____    ______ ____
ROOT
ATOM      1  C   UNL     1       1.097  -0.458   0.611  0.00  0.00    +0.000 C 
ATOM      2  C   UNL     1      -0.060   0.170   1.419  0.00  0.00    +0.000 C 
ATOM      3  O   UNL     1      -0.597   1.312   0.765  0.00  0.00    +0.000 OA
ATOM      4  C   UNL     1      -1.160   0.998  -0.504  0.00  0.00    +0.000 C 
ATOM      5  C   UNL     1      -0.137   0.311  -1.453  0.00  0.00    +0.000 C 
ATOM      6  C   UNL     1       0.590  -0.869  -0.784  0.00  0.00    +0.000 C 
ENDROOT
BRANCH   1  10
ATOM      7  C   UNL     1       4.650   1.040   0.026  0.00  0.00    +0.000 C 
ATOM      8  C   UNL     1       3.559   0.037   0.215  0.00  0.00    +0.000 C 
ATOM      9  O   UNL     1       3.820  -1.192   0.120  0.00  0.00    +0.000 OA
ATOM     10  N   UNL     1       2.221   0.479   0.482  0.00  0.00    +0.000 N 
ATOM     11  H   UNL     1       2.042   1.509   0.520  0.00  0.00    +0.000 HD
ENDBRANCH   1  10
BRANCH   2  12
ATOM     12  O   UNL     1       0.386   0.524   2.703  0.00  0.00    +0.000 OA
ATOM     13  H   UNL     1       0.884   1.378   2.625  0.00  0.00    +0.000 HD
ENDBRANCH   2  12
BRANCH   5  14
ATOM     14  O   UNL     1      -0.754  -0.123  -2.639  0.00  0.00    +0.000 OA
ATOM     15  H   UNL     1      -0.977   0.693  -3.160  0.00  0.00    +0.000 HD
ENDBRANCH   5  14
BRANCH   6  16
ATOM     16  O   UNL     1      -0.269  -1.977  -0.685  0.00  0.00    +0.000 OA
ATOM     17  H   UNL     1       0.302  -2.770  -0.511  0.00  0.00    +0.000 HD
ENDBRANCH   6  16
BRANCH   4  18
ATOM     18  C   UNL     1      -2.515   0.270  -0.382  0.00  0.00    +0.000 C 
BRANCH  18  19
ATOM     19  O   UNL     1      -3.325   0.952   0.545  0.00  0.00    +0.000 OA
BRANCH  19  20
ATOM     20  S   UNL     1      -4.767   0.085   0.738  0.00  0.00    +0.000 S 
ATOM     21  O   UNL     1      -5.706   0.889   1.591  0.00  0.00    +0.000 OA
ATOM     22  O   UNL     1      -4.492  -1.228   1.417  0.00  0.00    +0.000 OA
ATOM     23  O   UNL     1      -5.492  -0.192  -0.753  0.00  0.00    +0.000 OA
ENDBRANCH  19  20
ENDBRANCH  18  19
ENDBRANCH   4  18
TORSDOF 7
