REMARK  Name = 5317448
REMARK  6 active torsions:
REMARK  status: ('A' for Active; 'I' for Inactive)
REMARK    1  A    between atoms: N_1  and  C_2
REMARK    2  A    between atoms: C_3  and  O_4
REMARK    3  A    between atoms: C_6  and  C_7
REMARK    4  A    between atoms: C_7  and  O_8
REMARK    5  A    between atoms: C_9  and  O_10
REMARK    6  A    between atoms: C_11  and  O_12
REMARK                            x       y       z     vdW  Elec       q    Type
REMARK                         _______ _______ _______ _____ _____    ______ ____
ROOT
ATOM      1  C   UNL     1      -1.629   0.941   0.013  0.00  0.00    +0.000 C 
ATOM      2  C   UNL     1      -1.303  -0.031  -1.155  0.00  0.00    +0.000 C 
ATOM      3  O   UNL     1      -0.774  -1.270  -0.704  0.00  0.00    +0.000 OA
ATOM      4  C   UNL     1       0.400  -1.097   0.074  0.00  0.00    +0.000 C 
ATOM      5  C   UNL     1       0.101  -0.301   1.364  0.00  0.00    +0.000 C 
ATOM      6  C   UNL     1      -0.435   1.091   0.981  0.00  0.00    +0.000 C 
ENDROOT
BRANCH   1   7
ATOM      7  N   UNL     1      -2.072   2.238  -0.508  0.00  0.00    +0.000 NA
ATOM      8  H   UNL     1      -2.465   2.800   0.282  0.00  0.00    +0.000 HD
ATOM      9  H   UNL     1      -1.252   2.768  -0.884  0.00  0.00    +0.000 HD
ENDBRANCH   1   7
BRANCH   2  10
ATOM     10  O   UNL     1      -0.495   0.533  -2.163  0.00  0.00    +0.000 OA
ATOM     11  H   UNL     1       0.235   1.050  -1.738  0.00  0.00    +0.000 HD
ENDBRANCH   2  10
BRANCH   5  12
ATOM     12  O   UNL     1      -0.848  -0.985   2.144  0.00  0.00    +0.000 OA
ATOM     13  H   UNL     1      -0.721  -0.687   3.083  0.00  0.00    +0.000 HD
ENDBRANCH   5  12
BRANCH   6  14
ATOM     14  O   UNL     1      -0.844   1.789   2.129  0.00  0.00    +0.000 OA
ATOM     15  H   UNL     1      -0.018   2.064   2.607  0.00  0.00    +0.000 HD
ENDBRANCH   6  14
BRANCH   4  16
ATOM     16  C   UNL     1       1.010  -2.474   0.380  0.00  0.00    +0.000 C 
BRANCH  16  17
ATOM     17  O   UNL     1       0.057  -3.334   0.950  0.00  0.00    +0.000 OA
ATOM     18  H   UNL     1       0.264  -3.400   1.919  0.00  0.00    +0.000 HD
ENDBRANCH  16  17
ENDBRANCH   4  16
TORSDOF 6
