@<TRIPOS>MOLECULE
Molecule Ligandos_final.mol2
     2     0
SMALL
NO_CHARGES
@<TRIPOS>ATOM
      5 ACC        33.1760    3.5180  -58.7810 HB    4     HB      0.0000
      8 AR         32.6817   -3.6287  -65.2760 AR    7     AR      0.0000
@<TRIPOS>BOND
@<TRIPOS>MOLECULE
Ligandos_final.mol2
    33    35
SMALL
NO_CHARGES
@<TRIPOS>ATOM
      1 C1         34.4600    0.4030  -61.4630 C.3   1     604     0.0000
      2 C1A        31.4480   -4.1500  -65.6180 C.ar  1     604     0.0000
      3 O1         35.5110   -0.4990  -61.1620 O.3   1     604     0.0000
      4 C2         34.2620    0.5920  -62.9480 C.3   1     604     0.0000
      5 C2A        31.5420   -3.0050  -64.8510 C.ar  1     604     0.0000
      6 N2         34.0600   -0.6570  -63.6450 N.am  1     604     0.0000
      7 C3         35.4470    1.3580  -63.4970 C.3   1     604     0.0000
      8 C3A        32.5930   -4.7780  -66.0400 C.ar  1     604     0.0000
      9 O3         35.3190    1.5200  -64.9050 O.3   1     604     0.0000
     10 C4         35.4990    2.6980  -62.7960 C.3   1     604     0.0000
     11 C4A        33.9180   -3.1030  -64.9360 C.ar  1     604     0.0000
     12 O4         36.6120    3.4100  -63.2990 O.3   1     604     0.0000
     13 C5         35.7180    2.4380  -61.3250 C.3   1     604     0.0000
     14 C5A        33.6680    5.9620  -57.1000 C.ar  1     604     0.0000
     15 O5         34.6550    1.6550  -60.8130 O.3   1     604     0.0000
     16 C6         35.7770    3.7080  -60.4950 C.3   1     604     0.0000
     17 C6A        32.7650   -2.4820  -64.5170 C.ar  1     604     0.0000
     18 C7         34.2580    7.1740  -56.6870 C.ar  1     604     0.0000
     19 C8         33.8240   -4.2540  -65.6940 C.ar  1     604     0.0000
     20 C9         34.7710    7.8040  -57.7890 C.ar  1     604     0.0000
     21 C10        33.8570    5.9180  -58.4620 C.ar  1     604     0.0000
     22 C11        32.8240   -1.2630  -63.7010 C.2   1     604     0.0000
     23 C12        34.2960    7.6700  -55.2570 C.2   1     604     0.0000
     24 C18        35.4850    9.0730  -57.9450 C.3   1     604     0.0000
     25 N21        34.6110    4.5690  -60.7660 N.pl3 1     604     0.0000
     26 O22        34.7110    8.8530  -55.0920 O.co2 1     604     0.0000
     27 O23        31.8220   -0.8920  -63.1150 O.2   1     604     0.0000
     28 O24        33.8950    6.8060  -54.4280 O.co2 1     604     0.0000
     29 O25        33.1760    3.5180  -58.7810 O.2   1     604     0.0000
     30 O26        32.1930    5.3290  -60.1640 O.2   1     604     0.0000
     31 O27        34.5270    7.0310  -58.8860 O.2   1     604     0.0000
     32 S32        33.3610    4.7070  -59.5870 S.o2  1     604     0.0000
     33 BR         35.4060   -5.1490  -66.2810 Br    1     604     0.0000
@<TRIPOS>BOND
     1     1     3    1 
     2     1    15    1 
     3     1     4    1 
     4     2     5    ar
     5     2     8    ar
     6     4     6    1 
     7     4     7    1 
     8     5    17    ar
     9     6    22    am
    10     7     9    1 
    11     7    10    1 
    12     8    19    ar
    13    10    12    1 
    14    10    13    1 
    15    11    17    ar
    16    11    19    ar
    17    13    15    1 
    18    13    16    1 
    19    14    18    ar
    20    14    21    ar
    21    16    25    1 
    22    17    22    1 
    23    18    20    ar
    24    18    23    1 
    25    19    33    1 
    26    20    24    1 
    27    20    31    ar
    28    21    31    ar
    29    21    32    1 
    30    22    27    2 
    31    23    26    2 
    32    23    28    2 
    33    25    32    1 
    34    29    32    2 
    35    30    32    2 
@<TRIPOS>MOLECULE
Molecule Ligandos_final.mol2
     9     0
SMALL
NO_CHARGES
@<TRIPOS>ATOM
      1 ACC        34.6550    1.6550  -60.8130 HB    0     HB      0.0000
      2 ACC        34.7110    8.8530  -55.0920 HB    1     HB      0.0000
      3 ACC        33.8950    6.8060  -54.4280 HB    2     HB      0.0000
      4 ACC        31.8220   -0.8920  -63.1150 HB    3     HB      0.0000
      5 ACC        33.1760    3.5180  -58.7810 HB    4     HB      0.0000
      6 ACC        32.1930    5.3290  -60.1640 HB    5     HB      0.0000
      7 ANI        34.2960    7.6700  -55.2570 CHG   6     CHG     0.0000
      8 AR         32.6817   -3.6287  -65.2760 AR    7     AR      0.0000
      9 AR         34.2162    6.7778  -57.7848 AR    8     AR      0.0000
@<TRIPOS>BOND
@<TRIPOS>MOLECULE
2_var_277.mol2
    57    60
SMALL
NO_CHARGES
@<TRIPOS>ATOM
      1 H1         35.3374    5.2664  -59.9840 H     1     UNK     0.0000
      2 O1         35.3655    4.3018  -60.2896 O.3   1     UNK     0.0000
      3 C1         36.5485    3.5558  -60.3140 C.2   1     UNK     0.0000
      4 N1         36.5025    2.2797  -60.5599 N.2   1     UNK     0.0000
      5 C2         35.2712    1.5296  -60.8147 C.3   1     UNK     0.0000
      6 H2         34.5946    2.1353  -61.4613 H     1     UNK     0.0000
      7 C3         35.4086    0.6686  -62.0933 C.3   1     UNK     0.0000
      8 H3         36.1223   -0.1559  -61.8633 H     1     UNK     0.0000
      9 O2         35.8303    1.4890  -63.1704 O.3   1     UNK     0.0000
     10 S1         34.9513    2.9448  -63.2118 S.o2  1     UNK     0.0000
     11 O3         35.6512    3.8927  -64.1438 O.2   1     UNK     0.0000
     12 O4         34.8854    3.5770  -61.8476 O.2   1     UNK     0.0000
     13 C4         33.3005    2.6740  -63.8192 C.3   1     UNK     0.0000
     14 H4         33.3497    2.1851  -64.8122 H     1     UNK     0.0000
     15 H5         32.7791    3.6471  -63.9183 H     1     UNK     0.0000
     16 H6         32.7343    2.0327  -63.1153 H     1     UNK     0.0000
     17 C5         34.0368    0.0441  -62.4106 C.3   1     UNK     0.0000
     18 H7         33.8051   -0.6832  -61.5965 H     1     UNK     0.0000
     19 O5         34.0744   -0.6486  -63.6436 O.3   1     UNK     0.0000
     20 C6         32.7757   -1.0428  -64.0914 C.3   1     UNK     0.0000
     21 H8         33.7968   -1.2704  -63.0764 H     1     UNK     0.0000
     22 C7         32.7571   -2.4944  -64.4773 C.ar  1     UNK     0.0000
     23 C8         33.9290   -3.1270  -64.9355 C.ar  1     UNK     0.0000
     24 H9         34.9040   -2.7281  -64.6836 H     1     UNK     0.0000
     25 C9         33.8477   -4.2804  -65.7213 C.ar  1     UNK     0.0000
     26 H10        34.7524   -4.7657  -66.0650 H     1     UNK     0.0000
     27 C10        32.5979   -4.8094  -66.0610 C.ar  1     UNK     0.0000
     28 H11        32.5377   -5.7061  -66.6638 H     1     UNK     0.0000
     29 C11        31.4284   -4.1730  -65.6346 C.ar  1     UNK     0.0000
     30 H12        30.4618   -4.5767  -65.9095 H     1     UNK     0.0000
     31 C12        31.5051   -3.0137  -64.8565 C.ar  1     UNK     0.0000
     32 H13        30.5873   -2.5285  -64.5475 H     1     UNK     0.0000
     33 O6         31.7644   -0.8988  -63.1019 O.3   1     UNK     0.0000
     34 C13        31.6066    0.4686  -62.7679 C.3   1     UNK     0.0000
     35 H14        31.0967    1.0059  -63.5982 H     1     UNK     0.0000
     36 H15        30.9320    0.5271  -61.8874 H     1     UNK     0.0000
     37 C14        32.9544    1.1379  -62.4399 C.3   1     UNK     0.0000
     38 H16        33.1754    1.8648  -63.2571 H     1     UNK     0.0000
     39 O7         32.8857    1.7974  -61.1889 O.3   1     UNK     0.0000
     40 C15        34.0888    2.5144  -60.9473 C.3   1     UNK     0.0000
     41 H17        34.3108    3.2213  -61.7863 H     1     UNK     0.0000
     42 O8         33.9695    3.2308  -59.7327 O.3   1     UNK     0.0000
     43 C16        33.0772    4.3121  -59.8914 C.3   1     UNK     0.0000
     44 H18        32.9545    4.8152  -58.9101 H     1     UNK     0.0000
     45 H19        32.0694    3.9716  -60.2212 H     1     UNK     0.0000
     46 H20        33.4851    5.0631  -60.6050 H     1     UNK     0.0000
     47 C17        37.8604    4.2000  -60.0594 C.ar  1     UNK     0.0000
     48 C18        38.0557    5.5687  -60.3262 C.ar  1     UNK     0.0000
     49 H21        37.2609    6.1765  -60.7378 H     1     UNK     0.0000
     50 C19        39.2988    6.1662  -60.0939 C.ar  1     UNK     0.0000
     51 H22        39.4417    7.2182  -60.3067 H     1     UNK     0.0000
     52 C20        40.3602    5.4067  -59.5985 C.ar  1     UNK     0.0000
     53 H23        41.3223    5.8704  -59.4223 H     1     UNK     0.0000
     54 C21        40.1833    4.0450  -59.3393 C.ar  1     UNK     0.0000
     55 H24        41.0082    3.4543  -58.9609 H     1     UNK     0.0000
     56 C22        38.9428    3.4426  -59.5712 C.ar  1     UNK     0.0000
     57 H25        38.8264    2.3872  -59.3576 H     1     UNK     0.0000
@<TRIPOS>BOND
     1     1     2    1 
     2     2     3    1 
     3     3     4    2 
     4     4     5    1 
     5     5     6    1 
     6     5     7    1 
     7     7     8    1 
     8     7     9    1 
     9     9    10    1 
    10    10    11    2 
    11    10    12    2 
    12    10    13    1 
    13    13    14    1 
    14    13    15    1 
    15    13    16    1 
    16     7    17    1 
    17    17    18    1 
    18    17    19    1 
    19    19    20    1 
    20    20    21    1 
    21    20    22    1 
    22    22    23    ar
    23    23    24    1 
    24    23    25    ar
    25    25    26    1 
    26    25    27    ar
    27    27    28    1 
    28    27    29    ar
    29    29    30    1 
    30    29    31    ar
    31    31    32    1 
    32    20    33    1 
    33    33    34    1 
    34    34    35    1 
    35    34    36    1 
    36    34    37    1 
    37    37    38    1 
    38    37    39    1 
    39    39    40    1 
    40    40    41    1 
    41    40    42    1 
    42    42    43    1 
    43    43    44    1 
    44    43    45    1 
    45    43    46    1 
    46     3    47    1 
    47    47    48    ar
    48    48    49    1 
    49    48    50    ar
    50    50    51    1 
    51    50    52    ar
    52    52    53    1 
    53    52    54    ar
    54    54    55    1 
    55    54    56    ar
    56    56    57    1 
    57    40     5    1 
    58    56    47    ar
    59    37    17    1 
    60    31    22    ar
@<TRIPOS>MOLECULE
Molecule 2_var_277.mol2
    14     0
SMALL
NO_CHARGES
@<TRIPOS>ATOM
      1 DON        35.3655    4.3018  -60.2896 HB    0     HB      0.0000
      2 ACC        35.3655    4.3018  -60.2896 HB    1     HB      0.0000
      3 ACC        36.5025    2.2797  -60.5599 HB    2     HB      0.0000
      4 ACC        35.8303    1.4890  -63.1704 HB    3     HB      0.0000
      5 ACC        35.6512    3.8927  -64.1438 HB    4     HB      0.0000
      6 ACC        34.8854    3.5770  -61.8476 HB    5     HB      0.0000
      7 ACC        34.0744   -0.6486  -63.6436 HB    6     HB      0.0000
      8 ACC        31.7644   -0.8988  -63.1019 HB    7     HB      0.0000
      9 ACC        32.8857    1.7974  -61.1889 HB    8     HB      0.0000
     10 ACC        33.9695    3.2308  -59.7327 HB    9     HB      0.0000
     11 AR         32.6775   -3.6496  -65.2810 AR    10    AR      0.0000
     12 AR         39.1169    4.8049  -59.8314 AR    11    AR      0.0000
     13 HYD        33.3005    2.6740  -63.8192 HYD   12    HYD     0.0000
     14 HYD        33.0772    4.3121  -59.8914 HYD   13    HYD     0.0000
@<TRIPOS>BOND
