@<TRIPOS>MOLECULE
Molecule Ligandos_final.mol2
     2     0
SMALL
NO_CHARGES
@<TRIPOS>ATOM
      5 ACC        33.1760    3.5180  -58.7810 HB    4     HB      0.0000
      8 AR         32.6817   -3.6287  -65.2760 AR    7     AR      0.0000
@<TRIPOS>BOND
@<TRIPOS>MOLECULE
Ligandos_final.mol2
    33    35
SMALL
NO_CHARGES
@<TRIPOS>ATOM
      1 C1         34.4600    0.4030  -61.4630 C.3   1     604     0.0000
      2 C1A        31.4480   -4.1500  -65.6180 C.ar  1     604     0.0000
      3 O1         35.5110   -0.4990  -61.1620 O.3   1     604     0.0000
      4 C2         34.2620    0.5920  -62.9480 C.3   1     604     0.0000
      5 C2A        31.5420   -3.0050  -64.8510 C.ar  1     604     0.0000
      6 N2         34.0600   -0.6570  -63.6450 N.am  1     604     0.0000
      7 C3         35.4470    1.3580  -63.4970 C.3   1     604     0.0000
      8 C3A        32.5930   -4.7780  -66.0400 C.ar  1     604     0.0000
      9 O3         35.3190    1.5200  -64.9050 O.3   1     604     0.0000
     10 C4         35.4990    2.6980  -62.7960 C.3   1     604     0.0000
     11 C4A        33.9180   -3.1030  -64.9360 C.ar  1     604     0.0000
     12 O4         36.6120    3.4100  -63.2990 O.3   1     604     0.0000
     13 C5         35.7180    2.4380  -61.3250 C.3   1     604     0.0000
     14 C5A        33.6680    5.9620  -57.1000 C.ar  1     604     0.0000
     15 O5         34.6550    1.6550  -60.8130 O.3   1     604     0.0000
     16 C6         35.7770    3.7080  -60.4950 C.3   1     604     0.0000
     17 C6A        32.7650   -2.4820  -64.5170 C.ar  1     604     0.0000
     18 C7         34.2580    7.1740  -56.6870 C.ar  1     604     0.0000
     19 C8         33.8240   -4.2540  -65.6940 C.ar  1     604     0.0000
     20 C9         34.7710    7.8040  -57.7890 C.ar  1     604     0.0000
     21 C10        33.8570    5.9180  -58.4620 C.ar  1     604     0.0000
     22 C11        32.8240   -1.2630  -63.7010 C.2   1     604     0.0000
     23 C12        34.2960    7.6700  -55.2570 C.2   1     604     0.0000
     24 C18        35.4850    9.0730  -57.9450 C.3   1     604     0.0000
     25 N21        34.6110    4.5690  -60.7660 N.pl3 1     604     0.0000
     26 O22        34.7110    8.8530  -55.0920 O.co2 1     604     0.0000
     27 O23        31.8220   -0.8920  -63.1150 O.2   1     604     0.0000
     28 O24        33.8950    6.8060  -54.4280 O.co2 1     604     0.0000
     29 O25        33.1760    3.5180  -58.7810 O.2   1     604     0.0000
     30 O26        32.1930    5.3290  -60.1640 O.2   1     604     0.0000
     31 O27        34.5270    7.0310  -58.8860 O.2   1     604     0.0000
     32 S32        33.3610    4.7070  -59.5870 S.o2  1     604     0.0000
     33 BR         35.4060   -5.1490  -66.2810 Br    1     604     0.0000
@<TRIPOS>BOND
     1     1     3    1 
     2     1    15    1 
     3     1     4    1 
     4     2     5    ar
     5     2     8    ar
     6     4     6    1 
     7     4     7    1 
     8     5    17    ar
     9     6    22    am
    10     7     9    1 
    11     7    10    1 
    12     8    19    ar
    13    10    12    1 
    14    10    13    1 
    15    11    17    ar
    16    11    19    ar
    17    13    15    1 
    18    13    16    1 
    19    14    18    ar
    20    14    21    ar
    21    16    25    1 
    22    17    22    1 
    23    18    20    ar
    24    18    23    1 
    25    19    33    1 
    26    20    24    1 
    27    20    31    ar
    28    21    31    ar
    29    21    32    1 
    30    22    27    2 
    31    23    26    2 
    32    23    28    2 
    33    25    32    1 
    34    29    32    2 
    35    30    32    2 
@<TRIPOS>MOLECULE
Molecule Ligandos_final.mol2
     9     0
SMALL
NO_CHARGES
@<TRIPOS>ATOM
      1 ACC        34.6550    1.6550  -60.8130 HB    0     HB      0.0000
      2 ACC        34.7110    8.8530  -55.0920 HB    1     HB      0.0000
      3 ACC        33.8950    6.8060  -54.4280 HB    2     HB      0.0000
      4 ACC        31.8220   -0.8920  -63.1150 HB    3     HB      0.0000
      5 ACC        33.1760    3.5180  -58.7810 HB    4     HB      0.0000
      6 ACC        32.1930    5.3290  -60.1640 HB    5     HB      0.0000
      7 ANI        34.2960    7.6700  -55.2570 CHG   6     CHG     0.0000
      8 AR         32.6817   -3.6287  -65.2760 AR    7     AR      0.0000
      9 AR         34.2162    6.7778  -57.7848 AR    8     AR      0.0000
@<TRIPOS>BOND
@<TRIPOS>MOLECULE
2_var_271.mol2
    41    43
SMALL
NO_CHARGES
@<TRIPOS>ATOM
      1 H1         38.5693    3.9510  -60.4186 H     1     UNK     0.0000
      2 O1         37.6779    4.4087  -60.2684 O.3   1     UNK     0.0000
      3 C1         36.4817    3.7165  -60.4216 C.2   1     UNK     0.0000
      4 H2         35.5462    4.2362  -60.2537 H     1     UNK     0.0000
      5 N1         36.4924    2.4652  -60.7628 N.2   1     UNK     0.0000
      6 C2         35.2718    1.6766  -60.9379 C.3   1     UNK     0.0000
      7 H3         35.1159    1.0397  -60.0364 H     1     UNK     0.0000
      8 C3         35.3840    0.7656  -62.1803 C.3   1     UNK     0.0000
      9 H4         36.1414   -0.0265  -61.9719 H     1     UNK     0.0000
     10 O2         35.7809    1.5259  -63.2956 O.3   1     UNK     0.0000
     11 H5         36.1878    0.8956  -63.9457 H     1     UNK     0.0000
     12 C4         34.0259    0.0958  -62.4427 C.3   1     UNK     0.0000
     13 H6         33.8250   -0.6000  -61.5943 H     1     UNK     0.0000
     14 O3         34.0670   -0.6529  -63.6443 O.3   1     UNK     0.0000
     15 C5         32.7684   -1.0360  -64.0971 C.3   1     UNK     0.0000
     16 H7         31.8269   -0.8327  -63.4917 H     1     UNK     0.0000
     17 C6         32.7577   -2.4714  -64.5125 C.ar  1     UNK     0.0000
     18 C7         33.9276   -3.1176  -64.9487 C.ar  1     UNK     0.0000
     19 H8         34.9013   -2.7198  -64.6902 H     1     UNK     0.0000
     20 C8         33.8458   -4.2805  -65.7207 C.ar  1     UNK     0.0000
     21 H9         34.7501   -4.7724  -66.0546 H     1     UNK     0.0000
     22 C9         32.5978   -4.8091  -66.0607 C.ar  1     UNK     0.0000
     23 H10        32.5360   -5.7095  -66.6580 H     1     UNK     0.0000
     24 C10        31.4294   -4.1761  -65.6282 C.ar  1     UNK     0.0000
     25 H11        30.4634   -4.5879  -65.8908 H     1     UNK     0.0000
     26 C11        31.5061   -3.0127  -64.8559 C.ar  1     UNK     0.0000
     27 H12        30.5902   -2.5372  -64.5277 H     1     UNK     0.0000
     28 O4         31.7610   -0.9013  -63.1026 O.3   1     UNK     0.0000
     29 C12        31.5835    0.4642  -62.7713 C.3   1     UNK     0.0000
     30 H13        31.0328    0.9838  -63.5871 H     1     UNK     0.0000
     31 H14        30.9379    0.5125  -61.8682 H     1     UNK     0.0000
     32 C13        32.9238    1.1686  -62.4926 C.3   1     UNK     0.0000
     33 H15        33.1163    1.8689  -63.3401 H     1     UNK     0.0000
     34 O5         32.8667    1.8724  -61.2642 O.3   1     UNK     0.0000
     35 C14        34.0583    2.6233  -61.0701 C.3   1     UNK     0.0000
     36 H16        34.2440    3.3074  -61.9368 H     1     UNK     0.0000
     37 O6         33.9447    3.3671  -59.8715 O.3   1     UNK     0.0000
     38 C15        33.0965    4.4777  -60.0674 C.3   1     UNK     0.0000
     39 H17        32.9693    5.0002  -59.0971 H     1     UNK     0.0000
     40 H18        33.5471    5.2016  -60.7816 H     1     UNK     0.0000
     41 H19        32.0865    4.1660  -60.4153 H     1     UNK     0.0000
@<TRIPOS>BOND
     1     1     2    1 
     2     2     3    1 
     3     3     4    1 
     4     3     5    2 
     5     5     6    1 
     6     6     7    1 
     7     6     8    1 
     8     8     9    1 
     9     8    10    1 
    10    10    11    1 
    11     8    12    1 
    12    12    13    1 
    13    12    14    1 
    14    14    15    1 
    15    15    16    1 
    16    15    17    1 
    17    17    18    ar
    18    18    19    1 
    19    18    20    ar
    20    20    21    1 
    21    20    22    ar
    22    22    23    1 
    23    22    24    ar
    24    24    25    1 
    25    24    26    ar
    26    26    27    1 
    27    15    28    1 
    28    28    29    1 
    29    29    30    1 
    30    29    31    1 
    31    29    32    1 
    32    32    33    1 
    33    32    34    1 
    34    34    35    1 
    35    35    36    1 
    36    35    37    1 
    37    37    38    1 
    38    38    39    1 
    39    38    40    1 
    40    38    41    1 
    41    35     6    1 
    42    32    12    1 
    43    26    17    ar
@<TRIPOS>MOLECULE
Molecule 2_var_271.mol2
    11     0
SMALL
NO_CHARGES
@<TRIPOS>ATOM
      1 DON        37.6779    4.4087  -60.2684 HB    0     HB      0.0000
      2 DON        35.7809    1.5259  -63.2956 HB    1     HB      0.0000
      3 ACC        37.6779    4.4087  -60.2684 HB    2     HB      0.0000
      4 ACC        36.4924    2.4652  -60.7628 HB    3     HB      0.0000
      5 ACC        35.7809    1.5259  -63.2956 HB    4     HB      0.0000
      6 ACC        34.0670   -0.6529  -63.6443 HB    5     HB      0.0000
      7 ACC        31.7610   -0.9013  -63.1026 HB    6     HB      0.0000
      8 ACC        32.8667    1.8724  -61.2642 HB    7     HB      0.0000
      9 ACC        33.9447    3.3671  -59.8715 HB    8     HB      0.0000
     10 AR         32.6774   -3.6446  -65.2878 AR    9     AR      0.0000
     11 HYD        33.0965    4.4777  -60.0674 HYD   10    HYD     0.0000
@<TRIPOS>BOND
