@<TRIPOS>MOLECULE
Molecule Ligandos_final.mol2
     3     0
SMALL
NO_CHARGES
@<TRIPOS>ATOM
      5 ACC        33.1760    3.5180  -58.7810 HB    4     HB      0.0000
      6 ACC        32.1930    5.3290  -60.1640 HB    5     HB      0.0000
      8 AR         32.6817   -3.6287  -65.2760 AR    7     AR      0.0000
@<TRIPOS>BOND
@<TRIPOS>MOLECULE
Ligandos_final.mol2
    33    35
SMALL
NO_CHARGES
@<TRIPOS>ATOM
      1 C1         34.4600    0.4030  -61.4630 C.3   1     604     0.0000
      2 C1A        31.4480   -4.1500  -65.6180 C.ar  1     604     0.0000
      3 O1         35.5110   -0.4990  -61.1620 O.3   1     604     0.0000
      4 C2         34.2620    0.5920  -62.9480 C.3   1     604     0.0000
      5 C2A        31.5420   -3.0050  -64.8510 C.ar  1     604     0.0000
      6 N2         34.0600   -0.6570  -63.6450 N.am  1     604     0.0000
      7 C3         35.4470    1.3580  -63.4970 C.3   1     604     0.0000
      8 C3A        32.5930   -4.7780  -66.0400 C.ar  1     604     0.0000
      9 O3         35.3190    1.5200  -64.9050 O.3   1     604     0.0000
     10 C4         35.4990    2.6980  -62.7960 C.3   1     604     0.0000
     11 C4A        33.9180   -3.1030  -64.9360 C.ar  1     604     0.0000
     12 O4         36.6120    3.4100  -63.2990 O.3   1     604     0.0000
     13 C5         35.7180    2.4380  -61.3250 C.3   1     604     0.0000
     14 C5A        33.6680    5.9620  -57.1000 C.ar  1     604     0.0000
     15 O5         34.6550    1.6550  -60.8130 O.3   1     604     0.0000
     16 C6         35.7770    3.7080  -60.4950 C.3   1     604     0.0000
     17 C6A        32.7650   -2.4820  -64.5170 C.ar  1     604     0.0000
     18 C7         34.2580    7.1740  -56.6870 C.ar  1     604     0.0000
     19 C8         33.8240   -4.2540  -65.6940 C.ar  1     604     0.0000
     20 C9         34.7710    7.8040  -57.7890 C.ar  1     604     0.0000
     21 C10        33.8570    5.9180  -58.4620 C.ar  1     604     0.0000
     22 C11        32.8240   -1.2630  -63.7010 C.2   1     604     0.0000
     23 C12        34.2960    7.6700  -55.2570 C.2   1     604     0.0000
     24 C18        35.4850    9.0730  -57.9450 C.3   1     604     0.0000
     25 N21        34.6110    4.5690  -60.7660 N.pl3 1     604     0.0000
     26 O22        34.7110    8.8530  -55.0920 O.co2 1     604     0.0000
     27 O23        31.8220   -0.8920  -63.1150 O.2   1     604     0.0000
     28 O24        33.8950    6.8060  -54.4280 O.co2 1     604     0.0000
     29 O25        33.1760    3.5180  -58.7810 O.2   1     604     0.0000
     30 O26        32.1930    5.3290  -60.1640 O.2   1     604     0.0000
     31 O27        34.5270    7.0310  -58.8860 O.2   1     604     0.0000
     32 S32        33.3610    4.7070  -59.5870 S.o2  1     604     0.0000
     33 BR         35.4060   -5.1490  -66.2810 Br    1     604     0.0000
@<TRIPOS>BOND
     1     1     3    1 
     2     1    15    1 
     3     1     4    1 
     4     2     5    ar
     5     2     8    ar
     6     4     6    1 
     7     4     7    1 
     8     5    17    ar
     9     6    22    am
    10     7     9    1 
    11     7    10    1 
    12     8    19    ar
    13    10    12    1 
    14    10    13    1 
    15    11    17    ar
    16    11    19    ar
    17    13    15    1 
    18    13    16    1 
    19    14    18    ar
    20    14    21    ar
    21    16    25    1 
    22    17    22    1 
    23    18    20    ar
    24    18    23    1 
    25    19    33    1 
    26    20    24    1 
    27    20    31    ar
    28    21    31    ar
    29    21    32    1 
    30    22    27    2 
    31    23    26    2 
    32    23    28    2 
    33    25    32    1 
    34    29    32    2 
    35    30    32    2 
@<TRIPOS>MOLECULE
Molecule Ligandos_final.mol2
     9     0
SMALL
NO_CHARGES
@<TRIPOS>ATOM
      1 ACC        34.6550    1.6550  -60.8130 HB    0     HB      0.0000
      2 ACC        34.7110    8.8530  -55.0920 HB    1     HB      0.0000
      3 ACC        33.8950    6.8060  -54.4280 HB    2     HB      0.0000
      4 ACC        31.8220   -0.8920  -63.1150 HB    3     HB      0.0000
      5 ACC        33.1760    3.5180  -58.7810 HB    4     HB      0.0000
      6 ACC        32.1930    5.3290  -60.1640 HB    5     HB      0.0000
      7 ANI        34.2960    7.6700  -55.2570 CHG   6     CHG     0.0000
      8 AR         32.6817   -3.6287  -65.2760 AR    7     AR      0.0000
      9 AR         34.2162    6.7778  -57.7848 AR    8     AR      0.0000
@<TRIPOS>BOND
@<TRIPOS>MOLECULE
2_var_104.mol2
    48    50
SMALL
NO_CHARGES
@<TRIPOS>ATOM
      1 H1         34.6585    1.5681  -65.4400 H     1     UNK     0.0000
      2 O1         35.3933    1.7368  -64.7627 O.3   1     UNK     0.0000
      3 C1         35.0935    2.0716  -63.4453 C.2   1     UNK     0.0000
      4 N1         33.8443    2.1675  -63.0864 N.2   1     UNK     0.0000
      5 C2         33.3282    2.5119  -61.7579 C.3   1     UNK     0.0000
      6 H2         32.5424    1.7953  -61.4330 H     1     UNK     0.0000
      7 C3         34.4718    2.4432  -60.7199 C.3   1     UNK     0.0000
      8 H3         34.4559    2.8006  -61.4307 H     1     UNK     0.0000
      9 O2         34.5975    0.8374  -60.7404 O.3   1     UNK     0.0000
     10 C4         34.6473   -0.0897  -61.8369 C.ar  1     UNK     0.0000
     11 C5         35.8761   -0.7335  -62.0144 C.ar  1     UNK     0.0000
     12 H4         36.7406   -0.4044  -61.4518 H     1     UNK     0.0000
     13 C6         36.0028   -1.8068  -62.8998 C.ar  1     UNK     0.0000
     14 H5         36.9721   -2.2772  -62.9978 H     1     UNK     0.0000
     15 C7         34.8903   -2.2561  -63.6354 C.ar  1     UNK     0.0000
     16 C8         34.9576   -3.3408  -64.5391 C.2   1     UNK     0.0000
     17 C9         36.2356   -4.1015  -64.7812 C.3   1     UNK     0.0000
     18 H6         37.0135   -3.4139  -65.1747 H     1     UNK     0.0000
     19 H7         36.5879   -4.5564  -63.8314 H     1     UNK     0.0000
     20 H8         36.0939   -4.9183  -65.5206 H     1     UNK     0.0000
     21 C10        33.7954   -3.7150  -65.2273 C.2   1     UNK     0.0000
     22 H9         33.8073   -4.5416  -65.9282 H     1     UNK     0.0000
     23 C11        32.6094   -3.0122  -65.0053 C.2   1     UNK     0.0000
     24 O3         31.5604   -3.3407  -65.6188 O.2   1     UNK     0.0000
     25 O4         32.5782   -1.9974  -64.1498 O.3   1     UNK     0.0000
     26 C12        33.6483   -1.5987  -63.4690 C.ar  1     UNK     0.0000
     27 C13        33.5340   -0.5219  -62.5835 C.ar  1     UNK     0.0000
     28 H10        32.5715   -0.0423  -62.4862 H     1     UNK     0.0000
     29 O5         33.9809    2.8152  -59.4445 O.3   1     UNK     0.0000
     30 C14        33.5938    4.1790  -59.4293 C.3   1     UNK     0.0000
     31 H11        33.4508    5.0872  -60.0622 H     1     UNK     0.0000
     32 C15        33.2434    4.5706  -57.9860 C.3   1     UNK     0.0000
     33 H12        32.1823    4.8938  -57.9313 H     1     UNK     0.0000
     34 H13        33.3669    3.6968  -57.3047 H     1     UNK     0.0000
     35 O6         34.0449    5.6408  -57.5622 O.3   1     UNK     0.0000
     36 H14        34.9125    5.2532  -57.2749 H     1     UNK     0.0000
     37 C16        32.3837    4.3969  -60.3639 C.3   1     UNK     0.0000
     38 H15        31.5278    3.7881  -59.9840 H     1     UNK     0.0000
     39 O7         32.0387    5.7590  -60.3819 O.3   1     UNK     0.0000
     40 H16        31.0963    5.8137  -60.6892 H     1     UNK     0.0000
     41 C17        32.7389    3.9355  -61.7873 C.3   1     UNK     0.0000
     42 H17        33.5036    4.6384  -62.1996 H     1     UNK     0.0000
     43 O8         31.5817    3.9645  -62.5826 O.3   1     UNK     0.0000
     44 H18        31.8793    4.0686  -63.5240 H     1     UNK     0.0000
     45 C18        36.2280    2.3351  -62.5004 C.3   1     UNK     0.0000
     46 H19        37.1949    2.1095  -62.9972 H     1     UNK     0.0000
     47 H20        36.2287    3.4046  -62.2022 H     1     UNK     0.0000
     48 H21        36.1420    1.6924  -61.6006 H     1     UNK     0.0000
@<TRIPOS>BOND
     1     1     2    1 
     2     2     3    1 
     3     3     4    2 
     4     4     5    1 
     5     5     6    1 
     6     5     7    1 
     7     7     8    1 
     8     7     9    1 
     9     9    10    1 
    10    10    11    ar
    11    11    12    1 
    12    11    13    ar
    13    13    14    1 
    14    13    15    ar
    15    15    16    1 
    16    16    17    1 
    17    17    18    1 
    18    17    19    1 
    19    17    20    1 
    20    16    21    2 
    21    21    22    1 
    22    21    23    2 
    23    23    24    2 
    24    23    25    1 
    25    25    26    1 
    26    26    27    ar
    27    27    28    1 
    28     7    29    1 
    29    29    30    1 
    30    30    31    1 
    31    30    32    1 
    32    32    33    1 
    33    32    34    1 
    34    32    35    1 
    35    35    36    1 
    36    30    37    1 
    37    37    38    1 
    38    37    39    1 
    39    39    40    1 
    40    37    41    1 
    41    41    42    1 
    42    41    43    1 
    43    43    44    1 
    44     3    45    1 
    45    45    46    1 
    46    45    47    1 
    47    45    48    1 
    48    41     5    1 
    49    27    10    ar
    50    26    15    ar
@<TRIPOS>MOLECULE
Molecule 2_var_104.mol2
    18     0
SMALL
NO_CHARGES
@<TRIPOS>ATOM
      1 DON        35.3933    1.7368  -64.7627 HB    0     HB      0.0000
      2 DON        34.0449    5.6408  -57.5622 HB    1     HB      0.0000
      3 DON        32.0387    5.7590  -60.3819 HB    2     HB      0.0000
      4 DON        31.5817    3.9645  -62.5826 HB    3     HB      0.0000
      5 ACC        35.3933    1.7368  -64.7627 HB    4     HB      0.0000
      6 ACC        33.8443    2.1675  -63.0864 HB    5     HB      0.0000
      7 ACC        34.5911    0.9723  -60.9170 HB    6     HB      0.0000
      8 ACC        31.5604   -3.3407  -65.6188 HB    7     HB      0.0000
      9 ACC        32.5782   -1.9974  -64.1498 HB    8     HB      0.0000
     10 ACC        33.9809    2.8152  -59.4445 HB    9     HB      0.0000
     11 ACC        34.0449    5.6408  -57.5622 HB    10    HB      0.0000
     12 ACC        32.0387    5.7590  -60.3819 HB    11    HB      0.0000
     13 ACC        31.5817    3.9645  -62.5826 HB    12    HB      0.0000
     14 AR         34.7665   -1.1678  -62.7398 AR    13    AR      0.0000
     15 AR         33.7465   -2.6534  -64.3376 AR    14    AR      0.0000
     16 HYD        35.5966   -3.7211  -64.6601 HYD   15    HYD     0.0000
     17 HYD        36.2356   -4.1015  -64.7812 HYD   16    HYD     0.0000
     18 HYD        36.2280    2.3351  -62.5004 HYD   17    HYD     0.0000
@<TRIPOS>BOND
