@<TRIPOS>MOLECULE
Molecule Ligandos_final.mol2
     2     0
SMALL
NO_CHARGES
@<TRIPOS>ATOM
      6 ACC        32.1930    5.3290  -60.1640 HB    5     HB      0.0000
      8 AR         32.6817   -3.6287  -65.2760 AR    7     AR      0.0000
@<TRIPOS>BOND
@<TRIPOS>MOLECULE
Ligandos_final.mol2
    33    35
SMALL
NO_CHARGES
@<TRIPOS>ATOM
      1 C1         34.4600    0.4030  -61.4630 C.3   1     604     0.0000
      2 C1A        31.4480   -4.1500  -65.6180 C.ar  1     604     0.0000
      3 O1         35.5110   -0.4990  -61.1620 O.3   1     604     0.0000
      4 C2         34.2620    0.5920  -62.9480 C.3   1     604     0.0000
      5 C2A        31.5420   -3.0050  -64.8510 C.ar  1     604     0.0000
      6 N2         34.0600   -0.6570  -63.6450 N.am  1     604     0.0000
      7 C3         35.4470    1.3580  -63.4970 C.3   1     604     0.0000
      8 C3A        32.5930   -4.7780  -66.0400 C.ar  1     604     0.0000
      9 O3         35.3190    1.5200  -64.9050 O.3   1     604     0.0000
     10 C4         35.4990    2.6980  -62.7960 C.3   1     604     0.0000
     11 C4A        33.9180   -3.1030  -64.9360 C.ar  1     604     0.0000
     12 O4         36.6120    3.4100  -63.2990 O.3   1     604     0.0000
     13 C5         35.7180    2.4380  -61.3250 C.3   1     604     0.0000
     14 C5A        33.6680    5.9620  -57.1000 C.ar  1     604     0.0000
     15 O5         34.6550    1.6550  -60.8130 O.3   1     604     0.0000
     16 C6         35.7770    3.7080  -60.4950 C.3   1     604     0.0000
     17 C6A        32.7650   -2.4820  -64.5170 C.ar  1     604     0.0000
     18 C7         34.2580    7.1740  -56.6870 C.ar  1     604     0.0000
     19 C8         33.8240   -4.2540  -65.6940 C.ar  1     604     0.0000
     20 C9         34.7710    7.8040  -57.7890 C.ar  1     604     0.0000
     21 C10        33.8570    5.9180  -58.4620 C.ar  1     604     0.0000
     22 C11        32.8240   -1.2630  -63.7010 C.2   1     604     0.0000
     23 C12        34.2960    7.6700  -55.2570 C.2   1     604     0.0000
     24 C18        35.4850    9.0730  -57.9450 C.3   1     604     0.0000
     25 N21        34.6110    4.5690  -60.7660 N.pl3 1     604     0.0000
     26 O22        34.7110    8.8530  -55.0920 O.co2 1     604     0.0000
     27 O23        31.8220   -0.8920  -63.1150 O.2   1     604     0.0000
     28 O24        33.8950    6.8060  -54.4280 O.co2 1     604     0.0000
     29 O25        33.1760    3.5180  -58.7810 O.2   1     604     0.0000
     30 O26        32.1930    5.3290  -60.1640 O.2   1     604     0.0000
     31 O27        34.5270    7.0310  -58.8860 O.2   1     604     0.0000
     32 S32        33.3610    4.7070  -59.5870 S.o2  1     604     0.0000
     33 BR         35.4060   -5.1490  -66.2810 Br    1     604     0.0000
@<TRIPOS>BOND
     1     1     3    1 
     2     1    15    1 
     3     1     4    1 
     4     2     5    ar
     5     2     8    ar
     6     4     6    1 
     7     4     7    1 
     8     5    17    ar
     9     6    22    am
    10     7     9    1 
    11     7    10    1 
    12     8    19    ar
    13    10    12    1 
    14    10    13    1 
    15    11    17    ar
    16    11    19    ar
    17    13    15    1 
    18    13    16    1 
    19    14    18    ar
    20    14    21    ar
    21    16    25    1 
    22    17    22    1 
    23    18    20    ar
    24    18    23    1 
    25    19    33    1 
    26    20    24    1 
    27    20    31    ar
    28    21    31    ar
    29    21    32    1 
    30    22    27    2 
    31    23    26    2 
    32    23    28    2 
    33    25    32    1 
    34    29    32    2 
    35    30    32    2 
@<TRIPOS>MOLECULE
Molecule Ligandos_final.mol2
     9     0
SMALL
NO_CHARGES
@<TRIPOS>ATOM
      1 ACC        34.6550    1.6550  -60.8130 HB    0     HB      0.0000
      2 ACC        34.7110    8.8530  -55.0920 HB    1     HB      0.0000
      3 ACC        33.8950    6.8060  -54.4280 HB    2     HB      0.0000
      4 ACC        31.8220   -0.8920  -63.1150 HB    3     HB      0.0000
      5 ACC        33.1760    3.5180  -58.7810 HB    4     HB      0.0000
      6 ACC        32.1930    5.3290  -60.1640 HB    5     HB      0.0000
      7 ANI        34.2960    7.6700  -55.2570 CHG   6     CHG     0.0000
      8 AR         32.6817   -3.6287  -65.2760 AR    7     AR      0.0000
      9 AR         34.2162    6.7778  -57.7848 AR    8     AR      0.0000
@<TRIPOS>BOND
@<TRIPOS>MOLECULE
2_var_231.mol2
    40    41
SMALL
NO_CHARGES
@<TRIPOS>ATOM
      1 C1         34.8805   -5.8672  -66.0946 C.3   1     UNK     0.0000
      2 O1         33.8169   -4.9207  -66.0788 O.3   1     UNK     0.0000
      3 C2         33.8492   -3.7049  -65.3799 C.ar  1     UNK     0.0000
      4 C3         32.6882   -3.0995  -64.8633 C.ar  1     UNK     0.0000
      5 C4         32.7726   -1.8863  -64.1734 C.ar  1     UNK     0.0000
      6 C5         34.0131   -1.2579  -63.9875 C.ar  1     UNK     0.0000
      7 C6         34.1551   -0.0113  -63.2604 C.2   1     UNK     0.0000
      8 N1         33.5789    0.1901  -62.1149 N.2   1     UNK     0.0000
      9 C7         33.7490    1.4012  -61.3422 C.3   1     UNK     0.0000
     10 C8         35.1174    2.0054  -61.7705 C.3   1     UNK     0.0000
     11 O2         35.2464    2.2188  -63.1576 O.3   1     UNK     0.0000
     12 O3         35.4595    3.1688  -61.0336 O.3   1     UNK     0.0000
     13 C9         34.4745    4.1840  -61.1382 C.3   1     UNK     0.0000
     14 C10        34.9965    5.4315  -60.4081 C.3   1     UNK     0.0000
     15 O4         36.2401    5.8191  -60.9273 O.3   1     UNK     0.0000
     16 C11        33.1382    3.7068  -60.5233 C.3   1     UNK     0.0000
     17 O5         32.1645    4.7184  -60.6078 O.3   1     UNK     0.0000
     18 C12        32.6334    2.4638  -61.2675 C.3   1     UNK     0.0000
     19 O6         32.1855    2.8259  -62.5512 O.3   1     UNK     0.0000
     20 C13        35.1717   -1.8645  -64.5041 C.ar  1     UNK     0.0000
     21 C14        35.0858   -3.0774  -65.1935 C.ar  1     UNK     0.0000
     22 H1         35.0849   -6.2291  -65.0647 H     1     UNK     0.0000
     23 H2         34.5866   -6.7325  -66.7234 H     1     UNK     0.0000
     24 H3         35.7943   -5.4075  -66.5268 H     1     UNK     0.0000
     25 H4         31.7165   -3.5573  -64.9891 H     1     UNK     0.0000
     26 H5         31.8668   -1.4376  -63.7836 H     1     UNK     0.0000
     27 H6         34.8909    0.6961  -63.6269 H     1     UNK     0.0000
     28 H7         33.8696    0.9882  -60.3140 H     1     UNK     0.0000
     29 H8         35.8822    1.2437  -61.5094 H     1     UNK     0.0000
     30 H9         34.4155    2.6321  -63.4978 H     1     UNK     0.0000
     31 H10        34.3180    4.4759  -62.2009 H     1     UNK     0.0000
     32 H11        34.2724    6.2728  -60.4994 H     1     UNK     0.0000
     33 H12        35.1221    5.2058  -59.3274 H     1     UNK     0.0000
     34 H13        36.0609    6.2481  -61.8046 H     1     UNK     0.0000
     35 H14        33.3120    3.4209  -59.4568 H     1     UNK     0.0000
     36 H15        32.1746    5.2096  -59.7451 H     1     UNK     0.0000
     37 H16        31.7807    2.0427  -60.6824 H     1     UNK     0.0000
     38 H17        31.5132    2.1496  -62.8280 H     1     UNK     0.0000
     39 H18        36.1435   -1.4041  -64.3760 H     1     UNK     0.0000
     40 H19        35.9862   -3.5331  -65.5859 H     1     UNK     0.0000
@<TRIPOS>BOND
     1     1     2    1 
     2     2     3    1 
     3     3     4    ar
     4     4     5    ar
     5     5     6    ar
     6     6     7    1 
     7     7     8    2 
     8     8     9    1 
     9     9    10    1 
    10    10    11    1 
    11    10    12    1 
    12    12    13    1 
    13    13    14    1 
    14    14    15    1 
    15    13    16    1 
    16    16    17    1 
    17    16    18    1 
    18    18    19    1 
    19     6    20    ar
    20    20    21    ar
    21    21     3    ar
    22    18     9    1 
    23     1    22    1 
    24     1    23    1 
    25     1    24    1 
    26     4    25    1 
    27     5    26    1 
    28     7    27    1 
    29     9    28    1 
    30    10    29    1 
    31    11    30    1 
    32    13    31    1 
    33    14    32    1 
    34    14    33    1 
    35    15    34    1 
    36    16    35    1 
    37    17    36    1 
    38    18    37    1 
    39    19    38    1 
    40    20    39    1 
    41    21    40    1 
@<TRIPOS>MOLECULE
Molecule 2_var_231.mol2
    13     0
SMALL
NO_CHARGES
@<TRIPOS>ATOM
      1 DON        35.2464    2.2188  -63.1576 HB    0     HB      0.0000
      2 DON        36.2401    5.8191  -60.9273 HB    1     HB      0.0000
      3 DON        32.1645    4.7184  -60.6078 HB    2     HB      0.0000
      4 DON        32.1855    2.8259  -62.5512 HB    3     HB      0.0000
      5 ACC        33.8169   -4.9207  -66.0788 HB    4     HB      0.0000
      6 ACC        33.3500    0.3152  -62.2381 HB    5     HB      0.0000
      7 ACC        35.2464    2.2188  -63.1576 HB    6     HB      0.0000
      8 ACC        35.4595    3.1688  -61.0336 HB    7     HB      0.0000
      9 ACC        36.2401    5.8191  -60.9273 HB    8     HB      0.0000
     10 ACC        32.1645    4.7184  -60.6078 HB    9     HB      0.0000
     11 ACC        32.1855    2.8259  -62.5512 HB    10    HB      0.0000
     12 AR         33.9301   -2.4817  -64.6836 AR    11    AR      0.0000
     13 HYD        34.8805   -5.8672  -66.0946 HYD   12    HYD     0.0000
@<TRIPOS>BOND
