@<TRIPOS>MOLECULE
Molecule Ligandos_final.mol2
     2     0
SMALL
NO_CHARGES
@<TRIPOS>ATOM
      6 ACC        32.1930    5.3290  -60.1640 HB    5     HB      0.0000
      8 AR         32.6817   -3.6287  -65.2760 AR    7     AR      0.0000
@<TRIPOS>BOND
@<TRIPOS>MOLECULE
Ligandos_final.mol2
    33    35
SMALL
NO_CHARGES
@<TRIPOS>ATOM
      1 C1         34.4600    0.4030  -61.4630 C.3   1     604     0.0000
      2 C1A        31.4480   -4.1500  -65.6180 C.ar  1     604     0.0000
      3 O1         35.5110   -0.4990  -61.1620 O.3   1     604     0.0000
      4 C2         34.2620    0.5920  -62.9480 C.3   1     604     0.0000
      5 C2A        31.5420   -3.0050  -64.8510 C.ar  1     604     0.0000
      6 N2         34.0600   -0.6570  -63.6450 N.am  1     604     0.0000
      7 C3         35.4470    1.3580  -63.4970 C.3   1     604     0.0000
      8 C3A        32.5930   -4.7780  -66.0400 C.ar  1     604     0.0000
      9 O3         35.3190    1.5200  -64.9050 O.3   1     604     0.0000
     10 C4         35.4990    2.6980  -62.7960 C.3   1     604     0.0000
     11 C4A        33.9180   -3.1030  -64.9360 C.ar  1     604     0.0000
     12 O4         36.6120    3.4100  -63.2990 O.3   1     604     0.0000
     13 C5         35.7180    2.4380  -61.3250 C.3   1     604     0.0000
     14 C5A        33.6680    5.9620  -57.1000 C.ar  1     604     0.0000
     15 O5         34.6550    1.6550  -60.8130 O.3   1     604     0.0000
     16 C6         35.7770    3.7080  -60.4950 C.3   1     604     0.0000
     17 C6A        32.7650   -2.4820  -64.5170 C.ar  1     604     0.0000
     18 C7         34.2580    7.1740  -56.6870 C.ar  1     604     0.0000
     19 C8         33.8240   -4.2540  -65.6940 C.ar  1     604     0.0000
     20 C9         34.7710    7.8040  -57.7890 C.ar  1     604     0.0000
     21 C10        33.8570    5.9180  -58.4620 C.ar  1     604     0.0000
     22 C11        32.8240   -1.2630  -63.7010 C.2   1     604     0.0000
     23 C12        34.2960    7.6700  -55.2570 C.2   1     604     0.0000
     24 C18        35.4850    9.0730  -57.9450 C.3   1     604     0.0000
     25 N21        34.6110    4.5690  -60.7660 N.pl3 1     604     0.0000
     26 O22        34.7110    8.8530  -55.0920 O.co2 1     604     0.0000
     27 O23        31.8220   -0.8920  -63.1150 O.2   1     604     0.0000
     28 O24        33.8950    6.8060  -54.4280 O.co2 1     604     0.0000
     29 O25        33.1760    3.5180  -58.7810 O.2   1     604     0.0000
     30 O26        32.1930    5.3290  -60.1640 O.2   1     604     0.0000
     31 O27        34.5270    7.0310  -58.8860 O.2   1     604     0.0000
     32 S32        33.3610    4.7070  -59.5870 S.o2  1     604     0.0000
     33 BR         35.4060   -5.1490  -66.2810 Br    1     604     0.0000
@<TRIPOS>BOND
     1     1     3    1 
     2     1    15    1 
     3     1     4    1 
     4     2     5    ar
     5     2     8    ar
     6     4     6    1 
     7     4     7    1 
     8     5    17    ar
     9     6    22    am
    10     7     9    1 
    11     7    10    1 
    12     8    19    ar
    13    10    12    1 
    14    10    13    1 
    15    11    17    ar
    16    11    19    ar
    17    13    15    1 
    18    13    16    1 
    19    14    18    ar
    20    14    21    ar
    21    16    25    1 
    22    17    22    1 
    23    18    20    ar
    24    18    23    1 
    25    19    33    1 
    26    20    24    1 
    27    20    31    ar
    28    21    31    ar
    29    21    32    1 
    30    22    27    2 
    31    23    26    2 
    32    23    28    2 
    33    25    32    1 
    34    29    32    2 
    35    30    32    2 
@<TRIPOS>MOLECULE
Molecule Ligandos_final.mol2
     9     0
SMALL
NO_CHARGES
@<TRIPOS>ATOM
      1 ACC        34.6550    1.6550  -60.8130 HB    0     HB      0.0000
      2 ACC        34.7110    8.8530  -55.0920 HB    1     HB      0.0000
      3 ACC        33.8950    6.8060  -54.4280 HB    2     HB      0.0000
      4 ACC        31.8220   -0.8920  -63.1150 HB    3     HB      0.0000
      5 ACC        33.1760    3.5180  -58.7810 HB    4     HB      0.0000
      6 ACC        32.1930    5.3290  -60.1640 HB    5     HB      0.0000
      7 ANI        34.2960    7.6700  -55.2570 CHG   6     CHG     0.0000
      8 AR         32.6817   -3.6287  -65.2760 AR    7     AR      0.0000
      9 AR         34.2162    6.7778  -57.7848 AR    8     AR      0.0000
@<TRIPOS>BOND
@<TRIPOS>MOLECULE
2_var_220.mol2
    39    41
SMALL
NO_CHARGES
@<TRIPOS>ATOM
      1 H1         34.9873    2.2694  -64.0082 H     1     UNK     0.0000
      2 O1         35.5491    2.0949  -63.2085 O.3   1     UNK     0.0000
      3 C1         34.7094    2.1026  -62.0769 C.3   1     UNK     0.0000
      4 H2         35.3086    1.6941  -61.2331 H     1     UNK     0.0000
      5 C2         33.4882    1.1658  -62.2478 C.3   1     UNK     0.0000
      6 H3         33.2462    0.7413  -61.2436 H     1     UNK     0.0000
      7 O2         33.7842    0.1108  -63.1440 O.3   1     UNK     0.0000
      8 C3         32.6535   -0.7370  -63.2788 C.3   1     UNK     0.0000
      9 H4         32.3575   -1.1530  -62.2841 H     1     UNK     0.0000
     10 C4         32.7844   -1.9140  -64.1321 C.ar  1     UNK     0.0000
     11 C5         33.9645   -2.5452  -64.5637 C.ar  1     UNK     0.0000
     12 H5         34.9320   -2.1353  -64.3003 H     1     UNK     0.0000
     13 C6         33.9012   -3.7084  -65.3369 C.ar  1     UNK     0.0000
     14 H6         34.8135   -4.1896  -65.6652 H     1     UNK     0.0000
     15 C7         32.6618   -4.2503  -65.6867 C.ar  1     UNK     0.0000
     16 H7         32.6146   -5.1507  -66.2855 H     1     UNK     0.0000
     17 C8         31.4833   -3.6296  -65.2643 C.ar  1     UNK     0.0000
     18 H8         30.5240   -4.0503  -65.5367 H     1     UNK     0.0000
     19 C9         31.5413   -2.4660  -64.4906 C.ar  1     UNK     0.0000
     20 H9         30.6173   -1.9988  -64.1734 H     1     UNK     0.0000
     21 O3         31.5660   -0.0402  -63.8671 O.3   1     UNK     0.0000
     22 C10        31.1386    0.9985  -63.0089 C.3   1     UNK     0.0000
     23 H10        30.7482    0.5839  -62.0512 H     1     UNK     0.0000
     24 H11        30.3013    1.5391  -63.4992 H     1     UNK     0.0000
     25 C11        32.2799    1.9800  -62.7516 C.3   1     UNK     0.0000
     26 H12        32.5365    2.4518  -63.7262 H     1     UNK     0.0000
     27 O4         31.8471    2.9970  -61.8517 O.3   1     UNK     0.0000
     28 C12        32.8725    3.5189  -61.0090 C.3   1     UNK     0.0000
     29 H13        32.9343    2.8357  -60.1254 H     1     UNK     0.0000
     30 O5         32.4995    4.8333  -60.6255 O.3   1     UNK     0.0000
     31 C13        32.8210    5.0793  -59.2733 C.3   1     UNK     0.0000
     32 H14        33.9008    4.9062  -59.0710 H     1     UNK     0.0000
     33 H15        32.1949    4.4531  -58.6005 H     1     UNK     0.0000
     34 H16        32.6019    6.1425  -59.0453 H     1     UNK     0.0000
     35 C14        34.2774    3.5472  -61.6908 C.3   1     UNK     0.0000
     36 H17        35.0118    3.9280  -60.9485 H     1     UNK     0.0000
     37 N1         34.3401    4.4469  -62.8537 N.pl3 1     UNK     0.0000
     38 N2         33.3696    5.0710  -63.2865 N.1   1     UNK     0.0000
     39 N3         32.4022    5.6945  -63.7210 N.1   1     UNK     0.0000
@<TRIPOS>BOND
     1     1     2    1 
     2     2     3    1 
     3     3     4    1 
     4     3     5    1 
     5     5     6    1 
     6     5     7    1 
     7     7     8    1 
     8     8     9    1 
     9     8    10    1 
    10    10    11    ar
    11    11    12    1 
    12    11    13    ar
    13    13    14    1 
    14    13    15    ar
    15    15    16    1 
    16    15    17    ar
    17    17    18    1 
    18    17    19    ar
    19    19    20    1 
    20     8    21    1 
    21    21    22    1 
    22    22    23    1 
    23    22    24    1 
    24    22    25    1 
    25    25    26    1 
    26    25    27    1 
    27    27    28    1 
    28    28    29    1 
    29    28    30    1 
    30    30    31    1 
    31    31    32    1 
    32    31    33    1 
    33    31    34    1 
    34    28    35    1 
    35    35    36    1 
    36    35    37    1 
    37    37    38    2 
    38    38    39    3 
    39    35     3    1 
    40    25     5    1 
    41    19    10    ar
@<TRIPOS>MOLECULE
Molecule 2_var_220.mol2
     9     0
SMALL
NO_CHARGES
@<TRIPOS>ATOM
      1 DON        35.5491    2.0949  -63.2085 HB    0     HB      0.0000
      2 ACC        35.5491    2.0949  -63.2085 HB    1     HB      0.0000
      3 ACC        33.7842    0.1108  -63.1440 HB    2     HB      0.0000
      4 ACC        31.5660   -0.0402  -63.8671 HB    3     HB      0.0000
      5 ACC        31.8471    2.9970  -61.8517 HB    4     HB      0.0000
      6 ACC        32.4995    4.8333  -60.6255 HB    5     HB      0.0000
      7 ACC        32.4022    5.6945  -63.7210 HB    6     HB      0.0000
      8 AR         32.7227   -3.0856  -64.9124 AR    7     AR      0.0000
      9 HYD        32.8210    5.0793  -59.2733 HYD   8     HYD     0.0000
@<TRIPOS>BOND
