@<TRIPOS>MOLECULE
Molecule Ligandos_final.mol2
     2     0
SMALL
NO_CHARGES
@<TRIPOS>ATOM
      5 ACC        33.1760    3.5180  -58.7810 HB    4     HB      0.0000
      8 AR         32.6817   -3.6287  -65.2760 AR    7     AR      0.0000
@<TRIPOS>BOND
@<TRIPOS>MOLECULE
Ligandos_final.mol2
    33    35
SMALL
NO_CHARGES
@<TRIPOS>ATOM
      1 C1         34.4600    0.4030  -61.4630 C.3   1     604     0.0000
      2 C1A        31.4480   -4.1500  -65.6180 C.ar  1     604     0.0000
      3 O1         35.5110   -0.4990  -61.1620 O.3   1     604     0.0000
      4 C2         34.2620    0.5920  -62.9480 C.3   1     604     0.0000
      5 C2A        31.5420   -3.0050  -64.8510 C.ar  1     604     0.0000
      6 N2         34.0600   -0.6570  -63.6450 N.am  1     604     0.0000
      7 C3         35.4470    1.3580  -63.4970 C.3   1     604     0.0000
      8 C3A        32.5930   -4.7780  -66.0400 C.ar  1     604     0.0000
      9 O3         35.3190    1.5200  -64.9050 O.3   1     604     0.0000
     10 C4         35.4990    2.6980  -62.7960 C.3   1     604     0.0000
     11 C4A        33.9180   -3.1030  -64.9360 C.ar  1     604     0.0000
     12 O4         36.6120    3.4100  -63.2990 O.3   1     604     0.0000
     13 C5         35.7180    2.4380  -61.3250 C.3   1     604     0.0000
     14 C5A        33.6680    5.9620  -57.1000 C.ar  1     604     0.0000
     15 O5         34.6550    1.6550  -60.8130 O.3   1     604     0.0000
     16 C6         35.7770    3.7080  -60.4950 C.3   1     604     0.0000
     17 C6A        32.7650   -2.4820  -64.5170 C.ar  1     604     0.0000
     18 C7         34.2580    7.1740  -56.6870 C.ar  1     604     0.0000
     19 C8         33.8240   -4.2540  -65.6940 C.ar  1     604     0.0000
     20 C9         34.7710    7.8040  -57.7890 C.ar  1     604     0.0000
     21 C10        33.8570    5.9180  -58.4620 C.ar  1     604     0.0000
     22 C11        32.8240   -1.2630  -63.7010 C.2   1     604     0.0000
     23 C12        34.2960    7.6700  -55.2570 C.2   1     604     0.0000
     24 C18        35.4850    9.0730  -57.9450 C.3   1     604     0.0000
     25 N21        34.6110    4.5690  -60.7660 N.pl3 1     604     0.0000
     26 O22        34.7110    8.8530  -55.0920 O.co2 1     604     0.0000
     27 O23        31.8220   -0.8920  -63.1150 O.2   1     604     0.0000
     28 O24        33.8950    6.8060  -54.4280 O.co2 1     604     0.0000
     29 O25        33.1760    3.5180  -58.7810 O.2   1     604     0.0000
     30 O26        32.1930    5.3290  -60.1640 O.2   1     604     0.0000
     31 O27        34.5270    7.0310  -58.8860 O.2   1     604     0.0000
     32 S32        33.3610    4.7070  -59.5870 S.o2  1     604     0.0000
     33 BR         35.4060   -5.1490  -66.2810 Br    1     604     0.0000
@<TRIPOS>BOND
     1     1     3    1 
     2     1    15    1 
     3     1     4    1 
     4     2     5    ar
     5     2     8    ar
     6     4     6    1 
     7     4     7    1 
     8     5    17    ar
     9     6    22    am
    10     7     9    1 
    11     7    10    1 
    12     8    19    ar
    13    10    12    1 
    14    10    13    1 
    15    11    17    ar
    16    11    19    ar
    17    13    15    1 
    18    13    16    1 
    19    14    18    ar
    20    14    21    ar
    21    16    25    1 
    22    17    22    1 
    23    18    20    ar
    24    18    23    1 
    25    19    33    1 
    26    20    24    1 
    27    20    31    ar
    28    21    31    ar
    29    21    32    1 
    30    22    27    2 
    31    23    26    2 
    32    23    28    2 
    33    25    32    1 
    34    29    32    2 
    35    30    32    2 
@<TRIPOS>MOLECULE
Molecule Ligandos_final.mol2
     9     0
SMALL
NO_CHARGES
@<TRIPOS>ATOM
      1 ACC        34.6550    1.6550  -60.8130 HB    0     HB      0.0000
      2 ACC        34.7110    8.8530  -55.0920 HB    1     HB      0.0000
      3 ACC        33.8950    6.8060  -54.4280 HB    2     HB      0.0000
      4 ACC        31.8220   -0.8920  -63.1150 HB    3     HB      0.0000
      5 ACC        33.1760    3.5180  -58.7810 HB    4     HB      0.0000
      6 ACC        32.1930    5.3290  -60.1640 HB    5     HB      0.0000
      7 ANI        34.2960    7.6700  -55.2570 CHG   6     CHG     0.0000
      8 AR         32.6817   -3.6287  -65.2760 AR    7     AR      0.0000
      9 AR         34.2162    6.7778  -57.7848 AR    8     AR      0.0000
@<TRIPOS>BOND
@<TRIPOS>MOLECULE
2_var_158.mol2
    43    44
SMALL
NO_CHARGES
@<TRIPOS>ATOM
      1 H1         32.0315   -1.1545  -63.5341 H     1     UNK     0.0000
      2 O1         32.3319   -0.3848  -62.9480 O.3   1     UNK     0.0000
      3 C1         32.5146    0.8939  -63.4737 C.2   1     UNK     0.0000
      4 N1         32.8817    1.8782  -62.7091 N.2   1     UNK     0.0000
      5 C2         33.1366    1.7582  -61.2706 C.3   1     UNK     0.0000
      6 H2         32.2992    1.1987  -60.7974 H     1     UNK     0.0000
      7 C3         34.4443    0.9707  -61.0463 C.3   1     UNK     0.0000
      8 H3         33.5619    1.7048  -61.8718 H     1     UNK     0.0000
      9 O2         34.5453   -0.1474  -61.9226 O.3   1     UNK     0.0000
     10 C4         34.1646   -0.0759  -63.2468 C.3   1     UNK     0.0000
     11 H4         33.1668    0.5084  -63.2317 H     1     UNK     0.0000
     12 H5         34.8581    0.6679  -63.8323 H     1     UNK     0.0000
     13 C5         34.0450   -1.2963  -64.0093 C.ar  1     UNK     0.0000
     14 C6         35.1920   -1.8955  -64.5556 C.ar  1     UNK     0.0000
     15 H6         36.1566   -1.4096  -64.4714 H     1     UNK     0.0000
     16 C7         35.0985   -3.1271  -65.2114 C.ar  1     UNK     0.0000
     17 H7         35.9843   -3.5826  -65.6349 H     1     UNK     0.0000
     18 C8         33.8634   -3.7730  -65.3158 C.ar  1     UNK     0.0000
     19 H8         33.7929   -4.7268  -65.8224 H     1     UNK     0.0000
     20 C9         32.7206   -3.1907  -64.7602 C.ar  1     UNK     0.0000
     21 H9         31.7661   -3.6954  -64.8350 H     1     UNK     0.0000
     22 C10        32.8098   -1.9591  -64.1031 C.ar  1     UNK     0.0000
     23 H10        31.9181   -1.5246  -63.6684 H     1     UNK     0.0000
     24 O3         35.5467    1.6674  -61.6063 O.3   1     UNK     0.0000
     25 C11        35.7778    2.9269  -60.9872 C.3   1     UNK     0.0000
     26 H11        36.5642    3.4194  -61.6009 H     1     UNK     0.0000
     27 C12        36.3897    2.7731  -59.5730 C.3   1     UNK     0.0000
     28 H12        37.1221    1.9336  -59.5742 H     1     UNK     0.0000
     29 H13        35.6150    2.5260  -58.8221 H     1     UNK     0.0000
     30 O4         37.0262    3.9568  -59.1709 O.3   1     UNK     0.0000
     31 H14        37.8962    3.9905  -59.6480 H     1     UNK     0.0000
     32 C13        34.5362    3.8547  -61.0755 C.3   1     UNK     0.0000
     33 H15        34.4129    4.1230  -62.1519 H     1     UNK     0.0000
     34 O5         34.7456    5.0324  -60.3387 O.3   1     UNK     0.0000
     35 H16        34.0634    5.6869  -60.6425 H     1     UNK     0.0000
     36 C14        33.2434    3.1515  -60.6201 C.3   1     UNK     0.0000
     37 H17        32.3813    3.7798  -60.9441 H     1     UNK     0.0000
     38 O6         33.2189    3.0396  -59.2198 O.3   1     UNK     0.0000
     39 H18        32.2808    2.8400  -58.9632 H     1     UNK     0.0000
     40 C15        32.2611    1.1447  -64.9250 C.3   1     UNK     0.0000
     41 H19        32.7596    2.0812  -65.2549 H     1     UNK     0.0000
     42 H20        31.1687    1.2336  -65.0977 H     1     UNK     0.0000
     43 H21        32.6584    0.3010  -65.5270 H     1     UNK     0.0000
@<TRIPOS>BOND
     1     1     2    1 
     2     2     3    1 
     3     3     4    2 
     4     4     5    1 
     5     5     6    1 
     6     5     7    1 
     7     7     8    1 
     8     7     9    1 
     9     9    10    1 
    10    10    11    1 
    11    10    12    1 
    12    10    13    1 
    13    13    14    ar
    14    14    15    1 
    15    14    16    ar
    16    16    17    1 
    17    16    18    ar
    18    18    19    1 
    19    18    20    ar
    20    20    21    1 
    21    20    22    ar
    22    22    23    1 
    23     7    24    1 
    24    24    25    1 
    25    25    26    1 
    26    25    27    1 
    27    27    28    1 
    28    27    29    1 
    29    27    30    1 
    30    30    31    1 
    31    25    32    1 
    32    32    33    1 
    33    32    34    1 
    34    34    35    1 
    35    32    36    1 
    36    36    37    1 
    37    36    38    1 
    38    38    39    1 
    39     3    40    1 
    40    40    41    1 
    41    40    42    1 
    42    40    43    1 
    43    36     5    1 
    44    22    13    ar
@<TRIPOS>MOLECULE
Molecule 2_var_158.mol2
    13     0
SMALL
NO_CHARGES
@<TRIPOS>ATOM
      1 DON        32.3319   -0.3848  -62.9480 HB    0     HB      0.0000
      2 DON        37.0262    3.9568  -59.1709 HB    1     HB      0.0000
      3 DON        34.7456    5.0324  -60.3387 HB    2     HB      0.0000
      4 DON        33.2189    3.0396  -59.2198 HB    3     HB      0.0000
      5 ACC        32.3319   -0.3848  -62.9480 HB    4     HB      0.0000
      6 ACC        32.8817    1.8782  -62.7091 HB    5     HB      0.0000
      7 ACC        34.3553   -0.1955  -61.8516 HB    6     HB      0.0000
      8 ACC        35.5467    1.6674  -61.6063 HB    7     HB      0.0000
      9 ACC        37.0262    3.9568  -59.1709 HB    8     HB      0.0000
     10 ACC        34.7456    5.0324  -60.3387 HB    9     HB      0.0000
     11 ACC        33.2189    3.0396  -59.2198 HB    10    HB      0.0000
     12 AR         33.9549   -2.5403  -64.6592 AR    11    AR      0.0000
     13 HYD        32.2611    1.1447  -64.9250 HYD   12    HYD     0.0000
@<TRIPOS>BOND
