@<TRIPOS>MOLECULE
Molecule Ligandos_final.mol2
     2     0
SMALL
NO_CHARGES
@<TRIPOS>ATOM
      6 ACC        32.1930    5.3290  -60.1640 HB    5     HB      0.0000
      8 AR         32.6817   -3.6287  -65.2760 AR    7     AR      0.0000
@<TRIPOS>BOND
@<TRIPOS>MOLECULE
Ligandos_final.mol2
    33    35
SMALL
NO_CHARGES
@<TRIPOS>ATOM
      1 C1         34.4600    0.4030  -61.4630 C.3   1     604     0.0000
      2 C1A        31.4480   -4.1500  -65.6180 C.ar  1     604     0.0000
      3 O1         35.5110   -0.4990  -61.1620 O.3   1     604     0.0000
      4 C2         34.2620    0.5920  -62.9480 C.3   1     604     0.0000
      5 C2A        31.5420   -3.0050  -64.8510 C.ar  1     604     0.0000
      6 N2         34.0600   -0.6570  -63.6450 N.am  1     604     0.0000
      7 C3         35.4470    1.3580  -63.4970 C.3   1     604     0.0000
      8 C3A        32.5930   -4.7780  -66.0400 C.ar  1     604     0.0000
      9 O3         35.3190    1.5200  -64.9050 O.3   1     604     0.0000
     10 C4         35.4990    2.6980  -62.7960 C.3   1     604     0.0000
     11 C4A        33.9180   -3.1030  -64.9360 C.ar  1     604     0.0000
     12 O4         36.6120    3.4100  -63.2990 O.3   1     604     0.0000
     13 C5         35.7180    2.4380  -61.3250 C.3   1     604     0.0000
     14 C5A        33.6680    5.9620  -57.1000 C.ar  1     604     0.0000
     15 O5         34.6550    1.6550  -60.8130 O.3   1     604     0.0000
     16 C6         35.7770    3.7080  -60.4950 C.3   1     604     0.0000
     17 C6A        32.7650   -2.4820  -64.5170 C.ar  1     604     0.0000
     18 C7         34.2580    7.1740  -56.6870 C.ar  1     604     0.0000
     19 C8         33.8240   -4.2540  -65.6940 C.ar  1     604     0.0000
     20 C9         34.7710    7.8040  -57.7890 C.ar  1     604     0.0000
     21 C10        33.8570    5.9180  -58.4620 C.ar  1     604     0.0000
     22 C11        32.8240   -1.2630  -63.7010 C.2   1     604     0.0000
     23 C12        34.2960    7.6700  -55.2570 C.2   1     604     0.0000
     24 C18        35.4850    9.0730  -57.9450 C.3   1     604     0.0000
     25 N21        34.6110    4.5690  -60.7660 N.pl3 1     604     0.0000
     26 O22        34.7110    8.8530  -55.0920 O.co2 1     604     0.0000
     27 O23        31.8220   -0.8920  -63.1150 O.2   1     604     0.0000
     28 O24        33.8950    6.8060  -54.4280 O.co2 1     604     0.0000
     29 O25        33.1760    3.5180  -58.7810 O.2   1     604     0.0000
     30 O26        32.1930    5.3290  -60.1640 O.2   1     604     0.0000
     31 O27        34.5270    7.0310  -58.8860 O.2   1     604     0.0000
     32 S32        33.3610    4.7070  -59.5870 S.o2  1     604     0.0000
     33 BR         35.4060   -5.1490  -66.2810 Br    1     604     0.0000
@<TRIPOS>BOND
     1     1     3    1 
     2     1    15    1 
     3     1     4    1 
     4     2     5    ar
     5     2     8    ar
     6     4     6    1 
     7     4     7    1 
     8     5    17    ar
     9     6    22    am
    10     7     9    1 
    11     7    10    1 
    12     8    19    ar
    13    10    12    1 
    14    10    13    1 
    15    11    17    ar
    16    11    19    ar
    17    13    15    1 
    18    13    16    1 
    19    14    18    ar
    20    14    21    ar
    21    16    25    1 
    22    17    22    1 
    23    18    20    ar
    24    18    23    1 
    25    19    33    1 
    26    20    24    1 
    27    20    31    ar
    28    21    31    ar
    29    21    32    1 
    30    22    27    2 
    31    23    26    2 
    32    23    28    2 
    33    25    32    1 
    34    29    32    2 
    35    30    32    2 
@<TRIPOS>MOLECULE
Molecule Ligandos_final.mol2
     9     0
SMALL
NO_CHARGES
@<TRIPOS>ATOM
      1 ACC        34.6550    1.6550  -60.8130 HB    0     HB      0.0000
      2 ACC        34.7110    8.8530  -55.0920 HB    1     HB      0.0000
      3 ACC        33.8950    6.8060  -54.4280 HB    2     HB      0.0000
      4 ACC        31.8220   -0.8920  -63.1150 HB    3     HB      0.0000
      5 ACC        33.1760    3.5180  -58.7810 HB    4     HB      0.0000
      6 ACC        32.1930    5.3290  -60.1640 HB    5     HB      0.0000
      7 ANI        34.2960    7.6700  -55.2570 CHG   6     CHG     0.0000
      8 AR         32.6817   -3.6287  -65.2760 AR    7     AR      0.0000
      9 AR         34.2162    6.7778  -57.7848 AR    8     AR      0.0000
@<TRIPOS>BOND
@<TRIPOS>MOLECULE
2_var_49.mol2
    50    52
SMALL
NO_CHARGES
@<TRIPOS>ATOM
      1 H1         36.3986    6.0400  -64.6834 H     1     UNK     0.0000
      2 O1         36.9847    5.4193  -64.1374 O.3   1     UNK     0.0000
      3 C1         36.4304    4.4155  -63.3483 C.2   1     UNK     0.0000
      4 N1         35.1339    4.2866  -63.3075 N.2   1     UNK     0.0000
      5 C2         34.3652    3.2872  -62.5543 C.3   1     UNK     0.0000
      6 H2         34.0534    2.4475  -63.2124 H     1     UNK     0.0000
      7 C3         35.2614    2.7025  -61.4472 C.3   1     UNK     0.0000
      8 H3         34.5572    2.4023  -62.6162 H     1     UNK     0.0000
      9 O2         34.6116    1.1215  -60.9937 O.3   1     UNK     0.0000
     10 C4         34.6746   -0.1499  -61.7102 C.ar  1     UNK     0.0000
     11 C5         35.6270   -1.1341  -61.3839 C.ar  1     UNK     0.0000
     12 H4         36.3890   -0.9503  -60.6397 H     1     UNK     0.0000
     13 C6         35.6068   -2.3772  -62.0219 C.ar  1     UNK     0.0000
     14 H5         36.3494   -3.1196  -61.7537 H     1     UNK     0.0000
     15 C7         34.6376   -2.6568  -62.9958 C.ar  1     UNK     0.0000
     16 C8         34.6099   -3.9033  -63.6410 C.ar  1     UNK     0.0000
     17 H6         35.3463   -4.6524  -63.3798 H     1     UNK     0.0000
     18 C9         33.6331   -4.1764  -64.6186 C.ar  1     UNK     0.0000
     19 O3         33.5646   -5.4063  -65.2903 O.3   1     UNK     0.0000
     20 C10        34.4535   -6.4961  -65.0674 C.3   1     UNK     0.0000
     21 H7         35.4955   -6.1935  -65.3034 H     1     UNK     0.0000
     22 H8         34.3833   -6.8366  -64.0126 H     1     UNK     0.0000
     23 H9         34.1691   -7.3376  -65.7316 H     1     UNK     0.0000
     24 C11        32.6907   -3.1930  -64.9404 C.ar  1     UNK     0.0000
     25 H10        31.9365   -3.3948  -65.6906 H     1     UNK     0.0000
     26 C12        32.7106   -1.9496  -64.3037 C.ar  1     UNK     0.0000
     27 H11        31.9690   -1.2067  -64.5723 H     1     UNK     0.0000
     28 C13        33.6800   -1.6716  -63.3300 C.ar  1     UNK     0.0000
     29 C14        33.7083   -0.4265  -62.6842 C.ar  1     UNK     0.0000
     30 H12        32.9772    0.3343  -62.9324 H     1     UNK     0.0000
     31 O4         35.6216    3.6937  -60.4946 O.3   1     UNK     0.0000
     32 C15        34.4851    4.2100  -59.8180 C.3   1     UNK     0.0000
     33 H13        34.9547    3.2245  -59.5942 H     1     UNK     0.0000
     34 C16        34.9665    5.1766  -58.7289 C.3   1     UNK     0.0000
     35 H14        36.0793    5.2062  -58.7416 H     1     UNK     0.0000
     36 H15        34.6421    4.8150  -57.7275 H     1     UNK     0.0000
     37 O5         34.4627    6.4640  -58.9596 O.3   1     UNK     0.0000
     38 H16        34.8105    7.0315  -58.2236 H     1     UNK     0.0000
     39 C17        33.5229    4.9112  -60.8111 C.3   1     UNK     0.0000
     40 H17        34.0532    5.7703  -61.2782 H     1     UNK     0.0000
     41 O6         32.3848    5.4131  -60.1536 O.3   1     UNK     0.0000
     42 H18        31.9271    4.6485  -59.7154 H     1     UNK     0.0000
     43 C18        33.1132    3.9313  -61.9251 C.3   1     UNK     0.0000
     44 H19        32.4892    3.1238  -61.4709 H     1     UNK     0.0000
     45 O7         32.3649    4.6148  -62.8972 O.3   1     UNK     0.0000
     46 H20        31.8092    3.9354  -63.3610 H     1     UNK     0.0000
     47 C19        37.3563    3.5387  -62.5578 C.3   1     UNK     0.0000
     48 H21        37.1880    2.4715  -62.8041 H     1     UNK     0.0000
     49 H22        37.1987    3.7050  -61.4716 H     1     UNK     0.0000
     50 H23        38.4110    3.7875  -62.7993 H     1     UNK     0.0000
@<TRIPOS>BOND
     1     1     2    1 
     2     2     3    1 
     3     3     4    2 
     4     4     5    1 
     5     5     6    1 
     6     5     7    1 
     7     7     8    1 
     8     7     9    1 
     9     9    10    1 
    10    10    11    ar
    11    11    12    1 
    12    11    13    ar
    13    13    14    1 
    14    13    15    ar
    15    15    16    ar
    16    16    17    1 
    17    16    18    ar
    18    18    19    1 
    19    19    20    1 
    20    20    21    1 
    21    20    22    1 
    22    20    23    1 
    23    18    24    ar
    24    24    25    1 
    25    24    26    ar
    26    26    27    1 
    27    26    28    ar
    28    28    29    ar
    29    29    30    1 
    30     7    31    1 
    31    31    32    1 
    32    32    33    1 
    33    32    34    1 
    34    34    35    1 
    35    34    36    1 
    36    34    37    1 
    37    37    38    1 
    38    32    39    1 
    39    39    40    1 
    40    39    41    1 
    41    41    42    1 
    42    39    43    1 
    43    43    44    1 
    44    43    45    1 
    45    45    46    1 
    46     3    47    1 
    47    47    48    1 
    48    47    49    1 
    49    47    50    1 
    50    43     5    1 
    51    29    10    ar
    52    28    15    ar
@<TRIPOS>MOLECULE
Molecule 2_var_49.mol2
    16     0
SMALL
NO_CHARGES
@<TRIPOS>ATOM
      1 DON        36.9847    5.4193  -64.1374 HB    0     HB      0.0000
      2 DON        34.4627    6.4640  -58.9596 HB    1     HB      0.0000
      3 DON        32.3848    5.4131  -60.1536 HB    2     HB      0.0000
      4 DON        32.3649    4.6148  -62.8972 HB    3     HB      0.0000
      5 ACC        36.9847    5.4193  -64.1374 HB    4     HB      0.0000
      6 ACC        35.1339    4.2866  -63.3075 HB    5     HB      0.0000
      7 ACC        34.6500    1.1105  -61.0932 HB    6     HB      0.0000
      8 ACC        33.5646   -5.4063  -65.2903 HB    7     HB      0.0000
      9 ACC        35.6216    3.6937  -60.4946 HB    8     HB      0.0000
     10 ACC        34.4627    6.4640  -58.9596 HB    9     HB      0.0000
     11 ACC        32.3848    5.4131  -60.1536 HB    10    HB      0.0000
     12 ACC        32.3649    4.6148  -62.8972 HB    11    HB      0.0000
     13 AR         34.6557   -1.4027  -62.3543 AR    12    AR      0.0000
     14 AR         33.6603   -2.9251  -63.9716 AR    13    AR      0.0000
     15 HYD        34.4535   -6.4961  -65.0674 HYD   14    HYD     0.0000
     16 HYD        37.3563    3.5387  -62.5578 HYD   15    HYD     0.0000
@<TRIPOS>BOND
