@<TRIPOS>MOLECULE
Molecule Ligandos_final.mol2
     2     0
SMALL
NO_CHARGES
@<TRIPOS>ATOM
      5 ACC        33.1760    3.5180  -58.7810 HB    4     HB      0.0000
      8 AR         32.6817   -3.6287  -65.2760 AR    7     AR      0.0000
@<TRIPOS>BOND
@<TRIPOS>MOLECULE
Ligandos_final.mol2
    33    35
SMALL
NO_CHARGES
@<TRIPOS>ATOM
      1 C1         34.4600    0.4030  -61.4630 C.3   1     604     0.0000
      2 C1A        31.4480   -4.1500  -65.6180 C.ar  1     604     0.0000
      3 O1         35.5110   -0.4990  -61.1620 O.3   1     604     0.0000
      4 C2         34.2620    0.5920  -62.9480 C.3   1     604     0.0000
      5 C2A        31.5420   -3.0050  -64.8510 C.ar  1     604     0.0000
      6 N2         34.0600   -0.6570  -63.6450 N.am  1     604     0.0000
      7 C3         35.4470    1.3580  -63.4970 C.3   1     604     0.0000
      8 C3A        32.5930   -4.7780  -66.0400 C.ar  1     604     0.0000
      9 O3         35.3190    1.5200  -64.9050 O.3   1     604     0.0000
     10 C4         35.4990    2.6980  -62.7960 C.3   1     604     0.0000
     11 C4A        33.9180   -3.1030  -64.9360 C.ar  1     604     0.0000
     12 O4         36.6120    3.4100  -63.2990 O.3   1     604     0.0000
     13 C5         35.7180    2.4380  -61.3250 C.3   1     604     0.0000
     14 C5A        33.6680    5.9620  -57.1000 C.ar  1     604     0.0000
     15 O5         34.6550    1.6550  -60.8130 O.3   1     604     0.0000
     16 C6         35.7770    3.7080  -60.4950 C.3   1     604     0.0000
     17 C6A        32.7650   -2.4820  -64.5170 C.ar  1     604     0.0000
     18 C7         34.2580    7.1740  -56.6870 C.ar  1     604     0.0000
     19 C8         33.8240   -4.2540  -65.6940 C.ar  1     604     0.0000
     20 C9         34.7710    7.8040  -57.7890 C.ar  1     604     0.0000
     21 C10        33.8570    5.9180  -58.4620 C.ar  1     604     0.0000
     22 C11        32.8240   -1.2630  -63.7010 C.2   1     604     0.0000
     23 C12        34.2960    7.6700  -55.2570 C.2   1     604     0.0000
     24 C18        35.4850    9.0730  -57.9450 C.3   1     604     0.0000
     25 N21        34.6110    4.5690  -60.7660 N.pl3 1     604     0.0000
     26 O22        34.7110    8.8530  -55.0920 O.co2 1     604     0.0000
     27 O23        31.8220   -0.8920  -63.1150 O.2   1     604     0.0000
     28 O24        33.8950    6.8060  -54.4280 O.co2 1     604     0.0000
     29 O25        33.1760    3.5180  -58.7810 O.2   1     604     0.0000
     30 O26        32.1930    5.3290  -60.1640 O.2   1     604     0.0000
     31 O27        34.5270    7.0310  -58.8860 O.2   1     604     0.0000
     32 S32        33.3610    4.7070  -59.5870 S.o2  1     604     0.0000
     33 BR         35.4060   -5.1490  -66.2810 Br    1     604     0.0000
@<TRIPOS>BOND
     1     1     3    1 
     2     1    15    1 
     3     1     4    1 
     4     2     5    ar
     5     2     8    ar
     6     4     6    1 
     7     4     7    1 
     8     5    17    ar
     9     6    22    am
    10     7     9    1 
    11     7    10    1 
    12     8    19    ar
    13    10    12    1 
    14    10    13    1 
    15    11    17    ar
    16    11    19    ar
    17    13    15    1 
    18    13    16    1 
    19    14    18    ar
    20    14    21    ar
    21    16    25    1 
    22    17    22    1 
    23    18    20    ar
    24    18    23    1 
    25    19    33    1 
    26    20    24    1 
    27    20    31    ar
    28    21    31    ar
    29    21    32    1 
    30    22    27    2 
    31    23    26    2 
    32    23    28    2 
    33    25    32    1 
    34    29    32    2 
    35    30    32    2 
@<TRIPOS>MOLECULE
Molecule Ligandos_final.mol2
     9     0
SMALL
NO_CHARGES
@<TRIPOS>ATOM
      1 ACC        34.6550    1.6550  -60.8130 HB    0     HB      0.0000
      2 ACC        34.7110    8.8530  -55.0920 HB    1     HB      0.0000
      3 ACC        33.8950    6.8060  -54.4280 HB    2     HB      0.0000
      4 ACC        31.8220   -0.8920  -63.1150 HB    3     HB      0.0000
      5 ACC        33.1760    3.5180  -58.7810 HB    4     HB      0.0000
      6 ACC        32.1930    5.3290  -60.1640 HB    5     HB      0.0000
      7 ANI        34.2960    7.6700  -55.2570 CHG   6     CHG     0.0000
      8 AR         32.6817   -3.6287  -65.2760 AR    7     AR      0.0000
      9 AR         34.2162    6.7778  -57.7848 AR    8     AR      0.0000
@<TRIPOS>BOND
@<TRIPOS>MOLECULE
2_var_12.mol2
    58    62
SMALL
NO_CHARGES
@<TRIPOS>ATOM
      1 C1         35.2132   -1.6911  -65.0091 C.3   1     UNK     0.0000
      2 N1         33.9651   -1.5969  -64.2472 N.ar  1     UNK     0.0000
      3 C2         33.6153   -0.6248  -63.3696 C.ar  1     UNK     0.0000
      4 C3         34.4006    0.4348  -63.2122 C.ar  1     UNK     0.0000
      5 C4         34.5366    1.0183  -61.9709 C.ar  1     UNK     0.0000
      6 N2         35.5196    1.9305  -62.0917 N.ar  1     UNK     0.0000
      7 C5         35.8556    2.8363  -60.8534 C.3   1     UNK     0.0000
      8 C6         35.8313    4.2486  -61.4969 C.3   1     UNK     0.0000
      9 O1         36.4503    4.2207  -62.7556 O.3   1     UNK     0.0000
     10 O2         34.4970    4.7051  -61.6389 O.3   1     UNK     0.0000
     11 C7         33.8904    4.9950  -60.3813 C.3   1     UNK     0.0000
     12 C8         34.1143    6.4729  -60.0117 C.3   1     UNK     0.0000
     13 O3         34.6277    6.5911  -58.7116 O.3   1     UNK     0.0000
     14 C9         34.3202    4.0278  -59.2319 C.3   1     UNK     0.0000
     15 O4         33.2988    3.8949  -58.2726 O.3   1     UNK     0.0000
     16 C10        34.7159    2.6602  -59.8184 C.3   1     UNK     0.0000
     17 O5         35.1452    1.7976  -58.7957 O.3   1     UNK     0.0000
     18 N3         35.9582    1.9077  -63.3404 N.ar  1     UNK     0.0000
     19 N4         35.2933    1.0049  -64.0466 N.ar  1     UNK     0.0000
     20 N5         32.4456   -0.8824  -62.7470 N.ar  1     UNK     0.0000
     21 C11        32.0355   -2.0595  -63.2590 C.ar  1     UNK     0.0000
     22 C12        30.7766   -2.7187  -62.8504 C.ar  1     UNK     0.0000
     23 C13        29.9663   -3.3848  -63.7884 C.ar  1     UNK     0.0000
     24 C14        28.7765   -3.9973  -63.3838 C.ar  1     UNK     0.0000
     25 C15        28.3840   -3.9487  -62.0421 C.ar  1     UNK     0.0000
     26 F1         27.2300   -4.5439  -61.6513 F     1     UNK     0.0000
     27 C16        29.1748   -3.2759  -61.1066 C.ar  1     UNK     0.0000
     28 C17        30.3619   -2.6557  -61.5097 C.ar  1     UNK     0.0000
     29 C18        32.9656   -2.5046  -64.1870 C.ar  1     UNK     0.0000
     30 C19        32.6784   -3.6510  -65.2795 C.ar  1     UNK     0.0000
     31 C20        33.8596   -4.2735  -65.7070 C.ar  1     UNK     0.0000
     32 C21        33.7824   -5.4308  -66.4839 C.ar  1     UNK     0.0000
     33 N6         32.5694   -5.9440  -66.8237 N.ar  1     UNK     0.0000
     34 C22        31.4085   -5.3578  -66.4256 C.ar  1     UNK     0.0000
     35 C23        31.4413   -4.1976  -65.6495 C.ar  1     UNK     0.0000
     36 H1         36.0803   -1.6283  -64.3178 H     1     UNK     0.0000
     37 H2         35.2627   -0.8650  -65.7496 H     1     UNK     0.0000
     38 H3         35.2910   -2.6559  -65.5482 H     1     UNK     0.0000
     39 H4         33.9714    0.8099  -61.0711 H     1     UNK     0.0000
     40 H5         36.8143    3.4843  -61.5189 H     1     UNK     0.0000
     41 H6         36.4143    4.9456  -60.8478 H     1     UNK     0.0000
     42 H7         36.4801    5.1602  -63.0741 H     1     UNK     0.0000
     43 H8         32.7974    4.8661  -60.5409 H     1     UNK     0.0000
     44 H9         33.8450    7.1227  -60.8753 H     1     UNK     0.0000
     45 H10        35.1839    6.6536  -59.7827 H     1     UNK     0.0000
     46 H11        33.8754    6.3950  -58.0934 H     1     UNK     0.0000
     47 H12        35.2137    4.4432  -58.7145 H     1     UNK     0.0000
     48 H13        32.5156    3.4773  -58.7164 H     1     UNK     0.0000
     49 H14        33.8200    2.2279  -60.3234 H     1     UNK     0.0000
     50 H15        34.3293    1.4230  -58.3706 H     1     UNK     0.0000
     51 H16        30.2405   -3.4172  -64.8348 H     1     UNK     0.0000
     52 H17        28.1556   -4.5047  -64.1108 H     1     UNK     0.0000
     53 H18        28.8692   -3.2351  -60.0686 H     1     UNK     0.0000
     54 H19        30.9671   -2.1444  -60.7714 H     1     UNK     0.0000
     55 H20        34.8275   -3.8617  -65.4478 H     1     UNK     0.0000
     56 H21        34.6873   -5.9187  -66.8219 H     1     UNK     0.0000
     57 H22        30.4592   -5.7901  -66.7143 H     1     UNK     0.0000
     58 H23        30.5139   -3.7334  -65.3356 H     1     UNK     0.0000
@<TRIPOS>BOND
     1     1     2    1 
     2     2     3    ar
     3     3     4    1 
     4     4     5    ar
     5     5     6    ar
     6     6     7    1 
     7     7     8    1 
     8     8     9    1 
     9     8    10    1 
    10    10    11    1 
    11    11    12    1 
    12    12    13    1 
    13    11    14    1 
    14    14    15    1 
    15    14    16    1 
    16    16    17    1 
    17     6    18    ar
    18    18    19    ar
    19     3    20    ar
    20    20    21    ar
    21    21    22    1 
    22    22    23    ar
    23    23    24    ar
    24    24    25    ar
    25    25    26    1 
    26    25    27    ar
    27    27    28    ar
    28    21    29    ar
    29    29    30    1 
    30    30    31    ar
    31    31    32    ar
    32    32    33    ar
    33    33    34    ar
    34    34    35    ar
    35    29     2    ar
    36    35    30    ar
    37    19     4    ar
    38    28    22    ar
    39    16     7    1 
    40     1    36    1 
    41     1    37    1 
    42     1    38    1 
    43     5    39    1 
    44     7    40    1 
    45     8    41    1 
    46     9    42    1 
    47    11    43    1 
    48    12    44    1 
    49    12    45    1 
    50    13    46    1 
    51    14    47    1 
    52    15    48    1 
    53    16    49    1 
    54    17    50    1 
    55    23    51    1 
    56    24    52    1 
    57    27    53    1 
    58    28    54    1 
    59    31    55    1 
    60    32    56    1 
    61    34    57    1 
    62    35    58    1 
@<TRIPOS>MOLECULE
Molecule 2_var_12.mol2
    20     0
SMALL
NO_CHARGES
@<TRIPOS>ATOM
      1 DON        36.4503    4.2207  -62.7556 HB    0     HB      0.0000
      2 DON        34.6277    6.5911  -58.7116 HB    1     HB      0.0000
      3 DON        33.2988    3.8949  -58.2726 HB    2     HB      0.0000
      4 DON        35.1452    1.7976  -58.7957 HB    3     HB      0.0000
      5 ACC        36.4503    4.2207  -62.7556 HB    4     HB      0.0000
      6 ACC        34.4970    4.7051  -61.6389 HB    5     HB      0.0000
      7 ACC        34.6277    6.5911  -58.7116 HB    6     HB      0.0000
      8 ACC        33.2988    3.8949  -58.2726 HB    7     HB      0.0000
      9 ACC        35.1452    1.7976  -58.7957 HB    8     HB      0.0000
     10 ACC        35.9582    1.9077  -63.3404 HB    9     HB      0.0000
     11 ACC        35.2933    1.0049  -64.0466 HB    10    HB      0.0000
     12 ACC        32.4456   -0.8824  -62.7470 HB    11    HB      0.0000
     13 ACC        32.5694   -5.9440  -66.8237 HB    12    HB      0.0000
     14 CAT        33.9651   -1.5969  -64.2472 CHG   13    CHG     0.0000
     15 CAT        35.5196    1.9305  -62.0917 CHG   14    CHG     0.0000
     16 AR         33.0054   -1.5337  -63.5620 AR    15    AR      0.0000
     17 AR         35.1417    1.2592  -62.9324 AR    16    AR      0.0000
     18 AR         29.5733   -3.3302  -62.4468 AR    17    AR      0.0000
     19 AR         32.6233   -4.8091  -66.0616 AR    18    AR      0.0000
     20 HYD        35.2132   -1.6911  -65.0091 HYD   19    HYD     0.0000
@<TRIPOS>BOND
