@<TRIPOS>MOLECULE
Molecule Ligandos_final.mol2
     3     0
SMALL
NO_CHARGES
@<TRIPOS>ATOM
      5 ACC        33.1760    3.5180  -58.7810 HB    4     HB      0.0000
      6 ACC        32.1930    5.3290  -60.1640 HB    5     HB      0.0000
      8 AR         32.6817   -3.6287  -65.2760 AR    7     AR      0.0000
@<TRIPOS>BOND
@<TRIPOS>MOLECULE
Ligandos_final.mol2
    33    35
SMALL
NO_CHARGES
@<TRIPOS>ATOM
      1 C1         34.4600    0.4030  -61.4630 C.3   1     604     0.0000
      2 C1A        31.4480   -4.1500  -65.6180 C.ar  1     604     0.0000
      3 O1         35.5110   -0.4990  -61.1620 O.3   1     604     0.0000
      4 C2         34.2620    0.5920  -62.9480 C.3   1     604     0.0000
      5 C2A        31.5420   -3.0050  -64.8510 C.ar  1     604     0.0000
      6 N2         34.0600   -0.6570  -63.6450 N.am  1     604     0.0000
      7 C3         35.4470    1.3580  -63.4970 C.3   1     604     0.0000
      8 C3A        32.5930   -4.7780  -66.0400 C.ar  1     604     0.0000
      9 O3         35.3190    1.5200  -64.9050 O.3   1     604     0.0000
     10 C4         35.4990    2.6980  -62.7960 C.3   1     604     0.0000
     11 C4A        33.9180   -3.1030  -64.9360 C.ar  1     604     0.0000
     12 O4         36.6120    3.4100  -63.2990 O.3   1     604     0.0000
     13 C5         35.7180    2.4380  -61.3250 C.3   1     604     0.0000
     14 C5A        33.6680    5.9620  -57.1000 C.ar  1     604     0.0000
     15 O5         34.6550    1.6550  -60.8130 O.3   1     604     0.0000
     16 C6         35.7770    3.7080  -60.4950 C.3   1     604     0.0000
     17 C6A        32.7650   -2.4820  -64.5170 C.ar  1     604     0.0000
     18 C7         34.2580    7.1740  -56.6870 C.ar  1     604     0.0000
     19 C8         33.8240   -4.2540  -65.6940 C.ar  1     604     0.0000
     20 C9         34.7710    7.8040  -57.7890 C.ar  1     604     0.0000
     21 C10        33.8570    5.9180  -58.4620 C.ar  1     604     0.0000
     22 C11        32.8240   -1.2630  -63.7010 C.2   1     604     0.0000
     23 C12        34.2960    7.6700  -55.2570 C.2   1     604     0.0000
     24 C18        35.4850    9.0730  -57.9450 C.3   1     604     0.0000
     25 N21        34.6110    4.5690  -60.7660 N.pl3 1     604     0.0000
     26 O22        34.7110    8.8530  -55.0920 O.co2 1     604     0.0000
     27 O23        31.8220   -0.8920  -63.1150 O.2   1     604     0.0000
     28 O24        33.8950    6.8060  -54.4280 O.co2 1     604     0.0000
     29 O25        33.1760    3.5180  -58.7810 O.2   1     604     0.0000
     30 O26        32.1930    5.3290  -60.1640 O.2   1     604     0.0000
     31 O27        34.5270    7.0310  -58.8860 O.2   1     604     0.0000
     32 S32        33.3610    4.7070  -59.5870 S.o2  1     604     0.0000
     33 BR         35.4060   -5.1490  -66.2810 Br    1     604     0.0000
@<TRIPOS>BOND
     1     1     3    1 
     2     1    15    1 
     3     1     4    1 
     4     2     5    ar
     5     2     8    ar
     6     4     6    1 
     7     4     7    1 
     8     5    17    ar
     9     6    22    am
    10     7     9    1 
    11     7    10    1 
    12     8    19    ar
    13    10    12    1 
    14    10    13    1 
    15    11    17    ar
    16    11    19    ar
    17    13    15    1 
    18    13    16    1 
    19    14    18    ar
    20    14    21    ar
    21    16    25    1 
    22    17    22    1 
    23    18    20    ar
    24    18    23    1 
    25    19    33    1 
    26    20    24    1 
    27    20    31    ar
    28    21    31    ar
    29    21    32    1 
    30    22    27    2 
    31    23    26    2 
    32    23    28    2 
    33    25    32    1 
    34    29    32    2 
    35    30    32    2 
@<TRIPOS>MOLECULE
Molecule Ligandos_final.mol2
     9     0
SMALL
NO_CHARGES
@<TRIPOS>ATOM
      1 ACC        34.6550    1.6550  -60.8130 HB    0     HB      0.0000
      2 ACC        34.7110    8.8530  -55.0920 HB    1     HB      0.0000
      3 ACC        33.8950    6.8060  -54.4280 HB    2     HB      0.0000
      4 ACC        31.8220   -0.8920  -63.1150 HB    3     HB      0.0000
      5 ACC        33.1760    3.5180  -58.7810 HB    4     HB      0.0000
      6 ACC        32.1930    5.3290  -60.1640 HB    5     HB      0.0000
      7 ANI        34.2960    7.6700  -55.2570 CHG   6     CHG     0.0000
      8 AR         32.6817   -3.6287  -65.2760 AR    7     AR      0.0000
      9 AR         34.2162    6.7778  -57.7848 AR    8     AR      0.0000
@<TRIPOS>BOND
@<TRIPOS>MOLECULE
2_var_11.mol2
    58    62
SMALL
NO_CHARGES
@<TRIPOS>ATOM
      1 C1         31.7046    0.6595  -61.9317 C.3   1     UNK     0.0000
      2 N1         32.3566   -0.2685  -62.8588 N.ar  1     UNK     0.0000
      3 C2         33.6507   -0.2508  -63.2621 C.ar  1     UNK     0.0000
      4 C3         34.6015    0.8942  -62.8931 C.ar  1     UNK     0.0000
      5 C4         34.0541    2.0179  -62.3120 C.ar  1     UNK     0.0000
      6 N2         35.0892    2.7939  -61.9488 N.ar  1     UNK     0.0000
      7 C5         34.7479    3.9413  -61.0021 C.3   1     UNK     0.0000
      8 C6         33.4049    3.8123  -60.2589 C.3   1     UNK     0.0000
      9 O1         33.4339    2.7528  -59.3346 O.3   1     UNK     0.0000
     10 O2         33.0556    5.0356  -59.6272 O.3   1     UNK     0.0000
     11 C7         34.0033    5.4101  -58.6362 C.3   1     UNK     0.0000
     12 C8         33.4715    6.6668  -57.9323 C.3   1     UNK     0.0000
     13 O3         34.2389    6.9568  -56.7965 O.3   1     UNK     0.0000
     14 C9         35.3924    5.6666  -59.2732 C.3   1     UNK     0.0000
     15 O4         36.3288    5.9749  -58.2721 O.3   1     UNK     0.0000
     16 C10        35.8513    4.4069  -60.0335 C.3   1     UNK     0.0000
     17 O5         37.0546    4.6435  -60.7222 O.3   1     UNK     0.0000
     18 N3         36.2124    2.1714  -62.2737 N.ar  1     UNK     0.0000
     19 N4         35.9445    1.0108  -62.8545 N.ar  1     UNK     0.0000
     20 N5         33.9603   -1.2927  -64.0628 N.ar  1     UNK     0.0000
     21 C11        32.8122   -1.9887  -64.1823 C.ar  1     UNK     0.0000
     22 C12        32.7299   -3.0244  -64.8852 C.ar  1     UNK     0.0000
     23 C13        31.4680   -3.5494  -65.2112 C.ar  1     UNK     0.0000
     24 C14        31.3630   -4.7096  -65.9845 C.ar  1     UNK     0.0000
     25 C15        32.5159   -5.3630  -66.4280 C.ar  1     UNK     0.0000
     26 F1         32.4123   -6.4883  -67.1768 F     1     UNK     0.0000
     27 C16        33.7756   -4.8605  -66.0917 C.ar  1     UNK     0.0000
     28 C17        33.8848   -3.7007  -65.3187 C.ar  1     UNK     0.0000
     29 C18        31.8176   -1.3604  -63.4456 C.ar  1     UNK     0.0000
     30 C19        30.4324   -1.8368  -63.2467 C.ar  1     UNK     0.0000
     31 C20        30.1902   -3.1358  -62.7785 C.ar  1     UNK     0.0000
     32 C21        28.8738   -3.5740  -62.6177 C.ar  1     UNK     0.0000
     33 N6         27.8381   -2.7458  -62.9173 N.ar  1     UNK     0.0000
     34 C22        28.0452   -1.4829  -63.3760 C.ar  1     UNK     0.0000
     35 C23        29.3460   -1.0051  -63.5514 C.ar  1     UNK     0.0000
     36 H1         30.7182    0.2767  -61.6011 H     1     UNK     0.0000
     37 H2         32.3254    0.7821  -61.0201 H     1     UNK     0.0000
     38 H3         31.5633    1.6433  -62.4255 H     1     UNK     0.0000
     39 H4         33.0071    2.2452  -62.1558 H     1     UNK     0.0000
     40 H5         33.9664    4.4583  -61.3016 H     1     UNK     0.0000
     41 H6         32.6261    3.5921  -61.0239 H     1     UNK     0.0000
     42 H7         32.5083    2.6575  -58.9898 H     1     UNK     0.0000
     43 H8         34.0883    4.6131  -57.8616 H     1     UNK     0.0000
     44 H9         33.4853    7.5307  -58.6349 H     1     UNK     0.0000
     45 H10        32.4180    6.4865  -57.6213 H     1     UNK     0.0000
     46 H11        33.8525    7.7837  -56.4066 H     1     UNK     0.0000
     47 H12        35.2999    6.5190  -59.9883 H     1     UNK     0.0000
     48 H13        37.0784    6.4499  -58.7157 H     1     UNK     0.0000
     49 H14        36.0398    3.6030  -59.2877 H     1     UNK     0.0000
     50 H15        36.8887    5.3668  -61.3817 H     1     UNK     0.0000
     51 H16        30.5641   -3.0542  -64.8784 H     1     UNK     0.0000
     52 H17        30.3866   -5.1016  -66.2390 H     1     UNK     0.0000
     53 H18        34.6691   -5.3738  -66.4231 H     1     UNK     0.0000
     54 H19        34.8701   -3.3491  -65.0431 H     1     UNK     0.0000
     55 H20        31.0114   -3.8001  -62.5382 H     1     UNK     0.0000
     56 H21        28.6754   -4.5738  -62.2557 H     1     UNK     0.0000
     57 H22        27.1991   -0.8499  -63.6088 H     1     UNK     0.0000
     58 H23        29.5049   -0.0025  -63.9289 H     1     UNK     0.0000
@<TRIPOS>BOND
     1     1     2    1 
     2     2     3    ar
     3     3     4    1 
     4     4     5    ar
     5     5     6    ar
     6     6     7    1 
     7     7     8    1 
     8     8     9    1 
     9     8    10    1 
    10    10    11    1 
    11    11    12    1 
    12    12    13    1 
    13    11    14    1 
    14    14    15    1 
    15    14    16    1 
    16    16    17    1 
    17     6    18    ar
    18    18    19    ar
    19     3    20    ar
    20    20    21    ar
    21    21    22    1 
    22    22    23    ar
    23    23    24    ar
    24    24    25    ar
    25    25    26    1 
    26    25    27    ar
    27    27    28    ar
    28    21    29    ar
    29    29    30    1 
    30    30    31    ar
    31    31    32    ar
    32    32    33    ar
    33    33    34    ar
    34    34    35    ar
    35    29     2    ar
    36    35    30    ar
    37    19     4    ar
    38    28    22    ar
    39    16     7    1 
    40     1    36    1 
    41     1    37    1 
    42     1    38    1 
    43     5    39    1 
    44     7    40    1 
    45     8    41    1 
    46     9    42    1 
    47    11    43    1 
    48    12    44    1 
    49    12    45    1 
    50    13    46    1 
    51    14    47    1 
    52    15    48    1 
    53    16    49    1 
    54    17    50    1 
    55    23    51    1 
    56    24    52    1 
    57    27    53    1 
    58    28    54    1 
    59    31    55    1 
    60    32    56    1 
    61    34    57    1 
    62    35    58    1 
@<TRIPOS>MOLECULE
Molecule 2_var_11.mol2
    20     0
SMALL
NO_CHARGES
@<TRIPOS>ATOM
      1 DON        33.4339    2.7528  -59.3346 HB    0     HB      0.0000
      2 DON        34.2389    6.9568  -56.7965 HB    1     HB      0.0000
      3 DON        36.3288    5.9749  -58.2721 HB    2     HB      0.0000
      4 DON        37.0546    4.6435  -60.7222 HB    3     HB      0.0000
      5 ACC        33.4339    2.7528  -59.3346 HB    4     HB      0.0000
      6 ACC        33.0556    5.0356  -59.6272 HB    5     HB      0.0000
      7 ACC        34.2389    6.9568  -56.7965 HB    6     HB      0.0000
      8 ACC        36.3288    5.9749  -58.2721 HB    7     HB      0.0000
      9 ACC        37.0546    4.6435  -60.7222 HB    8     HB      0.0000
     10 ACC        36.2124    2.1714  -62.2737 HB    9     HB      0.0000
     11 ACC        35.9445    1.0108  -62.8545 HB    10    HB      0.0000
     12 ACC        33.9603   -1.2927  -64.0628 HB    11    HB      0.0000
     13 ACC        27.8381   -2.7458  -62.9173 HB    12    HB      0.0000
     14 CAT        32.3566   -0.2685  -62.8588 CHG   13    CHG     0.0000
     15 CAT        35.0892    2.7939  -61.9488 CHG   14    CHG     0.0000
     16 AR         32.9195   -1.0322  -63.5623 AR    15    AR      0.0000
     17 AR         35.1803    1.7777  -62.4564 AR    16    AR      0.0000
     18 AR         32.6229   -4.2013  -65.6532 AR    17    AR      0.0000
     19 AR         29.1209   -2.2967  -63.0813 AR    18    AR      0.0000
     20 HYD        31.7046    0.6595  -61.9317 HYD   19    HYD     0.0000
@<TRIPOS>BOND
