@<TRIPOS>MOLECULE
Molecule Ligandos_final.mol2
     3     0
SMALL
NO_CHARGES
@<TRIPOS>ATOM
      5 ACC        33.1760    3.5180  -58.7810 HB    4     HB      0.0000
      6 ACC        32.1930    5.3290  -60.1640 HB    5     HB      0.0000
      8 AR         32.6817   -3.6287  -65.2760 AR    7     AR      0.0000
@<TRIPOS>BOND
@<TRIPOS>MOLECULE
Ligandos_final.mol2
    33    35
SMALL
NO_CHARGES
@<TRIPOS>ATOM
      1 C1         34.4600    0.4030  -61.4630 C.3   1     604     0.0000
      2 C1A        31.4480   -4.1500  -65.6180 C.ar  1     604     0.0000
      3 O1         35.5110   -0.4990  -61.1620 O.3   1     604     0.0000
      4 C2         34.2620    0.5920  -62.9480 C.3   1     604     0.0000
      5 C2A        31.5420   -3.0050  -64.8510 C.ar  1     604     0.0000
      6 N2         34.0600   -0.6570  -63.6450 N.am  1     604     0.0000
      7 C3         35.4470    1.3580  -63.4970 C.3   1     604     0.0000
      8 C3A        32.5930   -4.7780  -66.0400 C.ar  1     604     0.0000
      9 O3         35.3190    1.5200  -64.9050 O.3   1     604     0.0000
     10 C4         35.4990    2.6980  -62.7960 C.3   1     604     0.0000
     11 C4A        33.9180   -3.1030  -64.9360 C.ar  1     604     0.0000
     12 O4         36.6120    3.4100  -63.2990 O.3   1     604     0.0000
     13 C5         35.7180    2.4380  -61.3250 C.3   1     604     0.0000
     14 C5A        33.6680    5.9620  -57.1000 C.ar  1     604     0.0000
     15 O5         34.6550    1.6550  -60.8130 O.3   1     604     0.0000
     16 C6         35.7770    3.7080  -60.4950 C.3   1     604     0.0000
     17 C6A        32.7650   -2.4820  -64.5170 C.ar  1     604     0.0000
     18 C7         34.2580    7.1740  -56.6870 C.ar  1     604     0.0000
     19 C8         33.8240   -4.2540  -65.6940 C.ar  1     604     0.0000
     20 C9         34.7710    7.8040  -57.7890 C.ar  1     604     0.0000
     21 C10        33.8570    5.9180  -58.4620 C.ar  1     604     0.0000
     22 C11        32.8240   -1.2630  -63.7010 C.2   1     604     0.0000
     23 C12        34.2960    7.6700  -55.2570 C.2   1     604     0.0000
     24 C18        35.4850    9.0730  -57.9450 C.3   1     604     0.0000
     25 N21        34.6110    4.5690  -60.7660 N.pl3 1     604     0.0000
     26 O22        34.7110    8.8530  -55.0920 O.co2 1     604     0.0000
     27 O23        31.8220   -0.8920  -63.1150 O.2   1     604     0.0000
     28 O24        33.8950    6.8060  -54.4280 O.co2 1     604     0.0000
     29 O25        33.1760    3.5180  -58.7810 O.2   1     604     0.0000
     30 O26        32.1930    5.3290  -60.1640 O.2   1     604     0.0000
     31 O27        34.5270    7.0310  -58.8860 O.2   1     604     0.0000
     32 S32        33.3610    4.7070  -59.5870 S.o2  1     604     0.0000
     33 BR         35.4060   -5.1490  -66.2810 Br    1     604     0.0000
@<TRIPOS>BOND
     1     1     3    1 
     2     1    15    1 
     3     1     4    1 
     4     2     5    ar
     5     2     8    ar
     6     4     6    1 
     7     4     7    1 
     8     5    17    ar
     9     6    22    am
    10     7     9    1 
    11     7    10    1 
    12     8    19    ar
    13    10    12    1 
    14    10    13    1 
    15    11    17    ar
    16    11    19    ar
    17    13    15    1 
    18    13    16    1 
    19    14    18    ar
    20    14    21    ar
    21    16    25    1 
    22    17    22    1 
    23    18    20    ar
    24    18    23    1 
    25    19    33    1 
    26    20    24    1 
    27    20    31    ar
    28    21    31    ar
    29    21    32    1 
    30    22    27    2 
    31    23    26    2 
    32    23    28    2 
    33    25    32    1 
    34    29    32    2 
    35    30    32    2 
@<TRIPOS>MOLECULE
Molecule Ligandos_final.mol2
     9     0
SMALL
NO_CHARGES
@<TRIPOS>ATOM
      1 ACC        34.6550    1.6550  -60.8130 HB    0     HB      0.0000
      2 ACC        34.7110    8.8530  -55.0920 HB    1     HB      0.0000
      3 ACC        33.8950    6.8060  -54.4280 HB    2     HB      0.0000
      4 ACC        31.8220   -0.8920  -63.1150 HB    3     HB      0.0000
      5 ACC        33.1760    3.5180  -58.7810 HB    4     HB      0.0000
      6 ACC        32.1930    5.3290  -60.1640 HB    5     HB      0.0000
      7 ANI        34.2960    7.6700  -55.2570 CHG   6     CHG     0.0000
      8 AR         32.6817   -3.6287  -65.2760 AR    7     AR      0.0000
      9 AR         34.2162    6.7778  -57.7848 AR    8     AR      0.0000
@<TRIPOS>BOND
@<TRIPOS>MOLECULE
2_var_273.mol2
    42    44
SMALL
NO_CHARGES
@<TRIPOS>ATOM
      1 H1         32.7000    2.5516  -59.4535 H     1     UNK     0.0000
      2 O1         33.5140    3.0189  -59.1302 O.3   1     UNK     0.0000
      3 C1         34.1890    3.4980  -60.2675 C.3   1     UNK     0.0000
      4 H2         33.4528    3.8818  -61.0130 H     1     UNK     0.0000
      5 C2         35.0175    2.3802  -60.9152 C.3   1     UNK     0.0000
      6 H3         35.4268    2.7859  -61.8718 H     1     UNK     0.0000
      7 O2         34.2235    1.2451  -61.1875 O.3   1     UNK     0.0000
      8 C3         34.9947    0.1825  -61.7563 C.3   1     UNK     0.0000
      9 H4         34.8644   -0.7190  -61.1155 H     1     UNK     0.0000
     10 C4         34.2011   -0.0463  -63.2466 C.3   1     UNK     0.0000
     11 H5         33.3691   -0.4918  -63.0268 H     1     UNK     0.0000
     12 H6         34.9868   -1.0324  -63.5562 H     1     UNK     0.0000
     13 C5         34.0766   -1.3184  -64.0432 C.ar  1     UNK     0.0000
     14 C6         32.8131   -1.8995  -64.2442 C.ar  1     UNK     0.0000
     15 H7         31.9181   -1.3996  -63.8949 H     1     UNK     0.0000
     16 C7         32.7004   -3.1343  -64.8903 C.ar  1     UNK     0.0000
     17 H8         31.7247   -3.5772  -65.0431 H     1     UNK     0.0000
     18 C8         33.8461   -3.8005  -65.3334 C.ar  1     UNK     0.0000
     19 H9         33.7571   -4.7576  -65.8307 H     1     UNK     0.0000
     20 C9         35.1070   -3.2334  -65.1304 C.ar  1     UNK     0.0000
     21 H10        35.9943   -3.7532  -65.4680 H     1     UNK     0.0000
     22 C10        35.2243   -1.9980  -64.4863 C.ar  1     UNK     0.0000
     23 H11        36.2084   -1.5761  -64.3236 H     1     UNK     0.0000
     24 O3         36.3870    0.4664  -61.8806 O.3   1     UNK     0.0000
     25 C11        36.9307    0.8164  -60.6217 C.3   1     UNK     0.0000
     26 H12        36.9229   -0.0685  -59.9458 H     1     UNK     0.0000
     27 H13        37.9965    1.0922  -60.7704 H     1     UNK     0.0000
     28 C12        36.1695    1.9913  -59.9817 C.3   1     UNK     0.0000
     29 H14        35.7653    1.6283  -59.0064 H     1     UNK     0.0000
     30 O4         37.0233    3.1044  -59.7842 O.3   1     UNK     0.0000
     31 C13        36.3409    4.1216  -59.0584 C.3   1     UNK     0.0000
     32 H15        35.9528    3.7233  -58.0867 H     1     UNK     0.0000
     33 O5         37.2293    5.1992  -58.8284 O.3   1     UNK     0.0000
     34 C14        38.1440    4.8652  -57.8070 C.3   1     UNK     0.0000
     35 H16        38.8688    5.6976  -57.6965 H     1     UNK     0.0000
     36 H17        38.7221    3.9483  -58.0581 H     1     UNK     0.0000
     37 H18        37.6241    4.7416  -56.8315 H     1     UNK     0.0000
     38 C15        35.1364    4.6535  -59.8715 C.3   1     UNK     0.0000
     39 H19        35.0511    4.9098  -60.9525 H     1     UNK     0.0000
     40 N1         34.4233    5.6628  -59.0925 N.pl3 1     UNK     0.0000
     41 N2         33.2390    5.9176  -59.3144 N.1   1     UNK     0.0000
     42 N3         32.0561    6.1718  -59.5359 N.1   1     UNK     0.0000
@<TRIPOS>BOND
     1     1     2    1 
     2     2     3    1 
     3     3     4    1 
     4     3     5    1 
     5     5     6    1 
     6     5     7    1 
     7     7     8    1 
     8     8     9    1 
     9     8    10    1 
    10    10    11    1 
    11    10    12    1 
    12    10    13    1 
    13    13    14    ar
    14    14    15    1 
    15    14    16    ar
    16    16    17    1 
    17    16    18    ar
    18    18    19    1 
    19    18    20    ar
    20    20    21    1 
    21    20    22    ar
    22    22    23    1 
    23     8    24    1 
    24    24    25    1 
    25    25    26    1 
    26    25    27    1 
    27    25    28    1 
    28    28    29    1 
    29    28    30    1 
    30    30    31    1 
    31    31    32    1 
    32    31    33    1 
    33    33    34    1 
    34    34    35    1 
    35    34    36    1 
    36    34    37    1 
    37    31    38    1 
    38    38    39    1 
    39    38    40    1 
    40    40    41    2 
    41    41    42    3 
    42    38     3    1 
    43    28     5    1 
    44    22    13    ar
@<TRIPOS>MOLECULE
Molecule 2_var_273.mol2
    10     0
SMALL
NO_CHARGES
@<TRIPOS>ATOM
      1 DON        33.5140    3.0189  -59.1302 HB    0     HB      0.0000
      2 ACC        33.5140    3.0189  -59.1302 HB    1     HB      0.0000
      3 ACC        34.2235    1.2451  -61.1875 HB    2     HB      0.0000
      4 ACC        36.3870    0.4664  -61.8806 HB    3     HB      0.0000
      5 ACC        37.0233    3.1044  -59.7842 HB    4     HB      0.0000
      6 ACC        37.2293    5.1992  -58.8284 HB    5     HB      0.0000
      7 ACC        32.0561    6.1718  -59.5359 HB    6     HB      0.0000
      8 AR         33.9613   -2.5640  -64.6880 AR    7     AR      0.0000
      9 HYD        34.1875   -0.7439  -63.5327 HYD   8     HYD     0.0000
     10 HYD        38.1440    4.8652  -57.8070 HYD   9     HYD     0.0000
@<TRIPOS>BOND
