@<TRIPOS>MOLECULE
Molecule Ligandos_final.mol2
     3     0
SMALL
NO_CHARGES
@<TRIPOS>ATOM
      5 ACC        33.1760    3.5180  -58.7810 HB    4     HB      0.0000
      6 ACC        32.1930    5.3290  -60.1640 HB    5     HB      0.0000
      8 AR         32.6817   -3.6287  -65.2760 AR    7     AR      0.0000
@<TRIPOS>BOND
@<TRIPOS>MOLECULE
Ligandos_final.mol2
    33    35
SMALL
NO_CHARGES
@<TRIPOS>ATOM
      1 C1         34.4600    0.4030  -61.4630 C.3   1     604     0.0000
      2 C1A        31.4480   -4.1500  -65.6180 C.ar  1     604     0.0000
      3 O1         35.5110   -0.4990  -61.1620 O.3   1     604     0.0000
      4 C2         34.2620    0.5920  -62.9480 C.3   1     604     0.0000
      5 C2A        31.5420   -3.0050  -64.8510 C.ar  1     604     0.0000
      6 N2         34.0600   -0.6570  -63.6450 N.am  1     604     0.0000
      7 C3         35.4470    1.3580  -63.4970 C.3   1     604     0.0000
      8 C3A        32.5930   -4.7780  -66.0400 C.ar  1     604     0.0000
      9 O3         35.3190    1.5200  -64.9050 O.3   1     604     0.0000
     10 C4         35.4990    2.6980  -62.7960 C.3   1     604     0.0000
     11 C4A        33.9180   -3.1030  -64.9360 C.ar  1     604     0.0000
     12 O4         36.6120    3.4100  -63.2990 O.3   1     604     0.0000
     13 C5         35.7180    2.4380  -61.3250 C.3   1     604     0.0000
     14 C5A        33.6680    5.9620  -57.1000 C.ar  1     604     0.0000
     15 O5         34.6550    1.6550  -60.8130 O.3   1     604     0.0000
     16 C6         35.7770    3.7080  -60.4950 C.3   1     604     0.0000
     17 C6A        32.7650   -2.4820  -64.5170 C.ar  1     604     0.0000
     18 C7         34.2580    7.1740  -56.6870 C.ar  1     604     0.0000
     19 C8         33.8240   -4.2540  -65.6940 C.ar  1     604     0.0000
     20 C9         34.7710    7.8040  -57.7890 C.ar  1     604     0.0000
     21 C10        33.8570    5.9180  -58.4620 C.ar  1     604     0.0000
     22 C11        32.8240   -1.2630  -63.7010 C.2   1     604     0.0000
     23 C12        34.2960    7.6700  -55.2570 C.2   1     604     0.0000
     24 C18        35.4850    9.0730  -57.9450 C.3   1     604     0.0000
     25 N21        34.6110    4.5690  -60.7660 N.pl3 1     604     0.0000
     26 O22        34.7110    8.8530  -55.0920 O.co2 1     604     0.0000
     27 O23        31.8220   -0.8920  -63.1150 O.2   1     604     0.0000
     28 O24        33.8950    6.8060  -54.4280 O.co2 1     604     0.0000
     29 O25        33.1760    3.5180  -58.7810 O.2   1     604     0.0000
     30 O26        32.1930    5.3290  -60.1640 O.2   1     604     0.0000
     31 O27        34.5270    7.0310  -58.8860 O.2   1     604     0.0000
     32 S32        33.3610    4.7070  -59.5870 S.o2  1     604     0.0000
     33 BR         35.4060   -5.1490  -66.2810 Br    1     604     0.0000
@<TRIPOS>BOND
     1     1     3    1 
     2     1    15    1 
     3     1     4    1 
     4     2     5    ar
     5     2     8    ar
     6     4     6    1 
     7     4     7    1 
     8     5    17    ar
     9     6    22    am
    10     7     9    1 
    11     7    10    1 
    12     8    19    ar
    13    10    12    1 
    14    10    13    1 
    15    11    17    ar
    16    11    19    ar
    17    13    15    1 
    18    13    16    1 
    19    14    18    ar
    20    14    21    ar
    21    16    25    1 
    22    17    22    1 
    23    18    20    ar
    24    18    23    1 
    25    19    33    1 
    26    20    24    1 
    27    20    31    ar
    28    21    31    ar
    29    21    32    1 
    30    22    27    2 
    31    23    26    2 
    32    23    28    2 
    33    25    32    1 
    34    29    32    2 
    35    30    32    2 
@<TRIPOS>MOLECULE
Molecule Ligandos_final.mol2
     9     0
SMALL
NO_CHARGES
@<TRIPOS>ATOM
      1 ACC        34.6550    1.6550  -60.8130 HB    0     HB      0.0000
      2 ACC        34.7110    8.8530  -55.0920 HB    1     HB      0.0000
      3 ACC        33.8950    6.8060  -54.4280 HB    2     HB      0.0000
      4 ACC        31.8220   -0.8920  -63.1150 HB    3     HB      0.0000
      5 ACC        33.1760    3.5180  -58.7810 HB    4     HB      0.0000
      6 ACC        32.1930    5.3290  -60.1640 HB    5     HB      0.0000
      7 ANI        34.2960    7.6700  -55.2570 CHG   6     CHG     0.0000
      8 AR         32.6817   -3.6287  -65.2760 AR    7     AR      0.0000
      9 AR         34.2162    6.7778  -57.7848 AR    8     AR      0.0000
@<TRIPOS>BOND
@<TRIPOS>MOLECULE
2_var_228.mol2
    41    43
SMALL
NO_CHARGES
@<TRIPOS>ATOM
      1 H1         32.9834    4.2227  -57.2421 H     1     UNK     0.0000
      2 O1         33.0185    4.1840  -58.2537 O.3   1     UNK     0.0000
      3 C1         32.0778    4.8548  -59.0349 C.2   1     UNK     0.0000
      4 N1         32.1194    4.7809  -60.3316 N.2   1     UNK     0.0000
      5 C2         33.1365    4.0449  -61.0861 C.3   1     UNK     0.0000
      6 H2         33.5017    4.6873  -61.9202 H     1     UNK     0.0000
      7 C3         34.3568    3.7444  -60.1769 C.3   1     UNK     0.0000
      8 H3         34.8345    4.7199  -59.9255 H     1     UNK     0.0000
      9 O2         33.9698    3.1052  -58.9831 O.3   1     UNK     0.0000
     10 H4         33.6311    3.8089  -58.3703 H     1     UNK     0.0000
     11 O3         35.3393    2.9718  -60.8560 O.3   1     UNK     0.0000
     12 C4         34.8020    1.7293  -61.2761 C.3   1     UNK     0.0000
     13 H5         34.4137    1.1471  -60.4078 H     1     UNK     0.0000
     14 C5         35.8814    0.8761  -61.9370 C.3   1     UNK     0.0000
     15 H6         36.6496    0.6147  -61.1788 H     1     UNK     0.0000
     16 H7         36.3953    1.4392  -62.7496 H     1     UNK     0.0000
     17 O4         35.3155   -0.3202  -62.4372 O.3   1     UNK     0.0000
     18 C6         34.3023   -0.0216  -63.3877 C.3   1     UNK     0.0000
     19 H8         33.1826    0.3349  -63.0004 H     1     UNK     0.0000
     20 C7         34.0714   -1.3434  -63.9880 C.ar  1     UNK     0.0000
     21 C8         32.8067   -1.9167  -64.2120 C.ar  1     UNK     0.0000
     22 H9         31.9065   -1.4170  -63.8768 H     1     UNK     0.0000
     23 C9         32.6963   -3.1444  -64.8727 C.ar  1     UNK     0.0000
     24 H10        31.7204   -3.5810  -65.0421 H     1     UNK     0.0000
     25 C10        33.8433   -3.8086  -65.3148 C.ar  1     UNK     0.0000
     26 H11        33.7554   -4.7586  -65.8260 H     1     UNK     0.0000
     27 C11        35.1039   -3.2464  -65.0974 C.ar  1     UNK     0.0000
     28 H12        35.9917   -3.7617  -65.4403 H     1     UNK     0.0000
     29 C12        35.2196   -2.0194  -64.4374 C.ar  1     UNK     0.0000
     30 H13        36.2031   -1.5949  -64.2754 H     1     UNK     0.0000
     31 O5         33.2289    0.6899  -62.7857 O.3   1     UNK     0.0000
     32 C13        33.6960    1.9397  -62.3185 C.3   1     UNK     0.0000
     33 H14        34.0924    2.5406  -63.1728 H     1     UNK     0.0000
     34 C14        32.5541    2.7437  -61.6881 C.3   1     UNK     0.0000
     35 H15        31.8282    2.9977  -62.4958 H     1     UNK     0.0000
     36 O6         31.9170    1.9739  -60.6978 O.3   1     UNK     0.0000
     37 H16        30.9988    2.3368  -60.5951 H     1     UNK     0.0000
     38 C15        30.9860    5.6355  -58.3772 C.3   1     UNK     0.0000
     39 H17        30.5542    6.3769  -59.0831 H     1     UNK     0.0000
     40 H18        30.1867    4.9419  -58.0434 H     1     UNK     0.0000
     41 H19        31.3892    6.1782  -57.4969 H     1     UNK     0.0000
@<TRIPOS>BOND
     1     1     2    1 
     2     2     3    1 
     3     3     4    2 
     4     4     5    1 
     5     5     6    1 
     6     5     7    1 
     7     7     8    1 
     8     7     9    1 
     9     9    10    1 
    10     7    11    1 
    11    11    12    1 
    12    12    13    1 
    13    12    14    1 
    14    14    15    1 
    15    14    16    1 
    16    14    17    1 
    17    17    18    1 
    18    18    19    1 
    19    18    20    1 
    20    20    21    ar
    21    21    22    1 
    22    21    23    ar
    23    23    24    1 
    24    23    25    ar
    25    25    26    1 
    26    25    27    ar
    27    27    28    1 
    28    27    29    ar
    29    29    30    1 
    30    18    31    1 
    31    31    32    1 
    32    32    33    1 
    33    32    34    1 
    34    34    35    1 
    35    34    36    1 
    36    36    37    1 
    37     3    38    1 
    38    38    39    1 
    39    38    40    1 
    40    38    41    1 
    41    34     5    1 
    42    32    12    1 
    43    29    20    ar
@<TRIPOS>MOLECULE
Molecule 2_var_228.mol2
    12     0
SMALL
NO_CHARGES
@<TRIPOS>ATOM
      1 DON        33.0185    4.1840  -58.2537 HB    0     HB      0.0000
      2 DON        33.9698    3.1052  -58.9831 HB    1     HB      0.0000
      3 DON        31.9170    1.9739  -60.6978 HB    2     HB      0.0000
      4 ACC        33.0185    4.1840  -58.2537 HB    3     HB      0.0000
      5 ACC        32.1194    4.7809  -60.3316 HB    4     HB      0.0000
      6 ACC        33.9698    3.1052  -58.9831 HB    5     HB      0.0000
      7 ACC        35.3393    2.9718  -60.8560 HB    6     HB      0.0000
      8 ACC        35.3155   -0.3202  -62.4372 HB    7     HB      0.0000
      9 ACC        33.2289    0.6899  -62.7857 HB    8     HB      0.0000
     10 ACC        31.9170    1.9739  -60.6978 HB    9     HB      0.0000
     11 AR         33.9569   -2.5798  -64.6537 AR    10    AR      0.0000
     12 HYD        30.9860    5.6355  -58.3772 HYD   11    HYD     0.0000
@<TRIPOS>BOND
