@<TRIPOS>MOLECULE
Molecule Ligandos_final.mol2
     3     0
SMALL
NO_CHARGES
@<TRIPOS>ATOM
      5 ACC        33.1760    3.5180  -58.7810 HB    4     HB      0.0000
      6 ACC        32.1930    5.3290  -60.1640 HB    5     HB      0.0000
      8 AR         32.6817   -3.6287  -65.2760 AR    7     AR      0.0000
@<TRIPOS>BOND
@<TRIPOS>MOLECULE
Ligandos_final.mol2
    33    35
SMALL
NO_CHARGES
@<TRIPOS>ATOM
      1 C1         34.4600    0.4030  -61.4630 C.3   1     604     0.0000
      2 C1A        31.4480   -4.1500  -65.6180 C.ar  1     604     0.0000
      3 O1         35.5110   -0.4990  -61.1620 O.3   1     604     0.0000
      4 C2         34.2620    0.5920  -62.9480 C.3   1     604     0.0000
      5 C2A        31.5420   -3.0050  -64.8510 C.ar  1     604     0.0000
      6 N2         34.0600   -0.6570  -63.6450 N.am  1     604     0.0000
      7 C3         35.4470    1.3580  -63.4970 C.3   1     604     0.0000
      8 C3A        32.5930   -4.7780  -66.0400 C.ar  1     604     0.0000
      9 O3         35.3190    1.5200  -64.9050 O.3   1     604     0.0000
     10 C4         35.4990    2.6980  -62.7960 C.3   1     604     0.0000
     11 C4A        33.9180   -3.1030  -64.9360 C.ar  1     604     0.0000
     12 O4         36.6120    3.4100  -63.2990 O.3   1     604     0.0000
     13 C5         35.7180    2.4380  -61.3250 C.3   1     604     0.0000
     14 C5A        33.6680    5.9620  -57.1000 C.ar  1     604     0.0000
     15 O5         34.6550    1.6550  -60.8130 O.3   1     604     0.0000
     16 C6         35.7770    3.7080  -60.4950 C.3   1     604     0.0000
     17 C6A        32.7650   -2.4820  -64.5170 C.ar  1     604     0.0000
     18 C7         34.2580    7.1740  -56.6870 C.ar  1     604     0.0000
     19 C8         33.8240   -4.2540  -65.6940 C.ar  1     604     0.0000
     20 C9         34.7710    7.8040  -57.7890 C.ar  1     604     0.0000
     21 C10        33.8570    5.9180  -58.4620 C.ar  1     604     0.0000
     22 C11        32.8240   -1.2630  -63.7010 C.2   1     604     0.0000
     23 C12        34.2960    7.6700  -55.2570 C.2   1     604     0.0000
     24 C18        35.4850    9.0730  -57.9450 C.3   1     604     0.0000
     25 N21        34.6110    4.5690  -60.7660 N.pl3 1     604     0.0000
     26 O22        34.7110    8.8530  -55.0920 O.co2 1     604     0.0000
     27 O23        31.8220   -0.8920  -63.1150 O.2   1     604     0.0000
     28 O24        33.8950    6.8060  -54.4280 O.co2 1     604     0.0000
     29 O25        33.1760    3.5180  -58.7810 O.2   1     604     0.0000
     30 O26        32.1930    5.3290  -60.1640 O.2   1     604     0.0000
     31 O27        34.5270    7.0310  -58.8860 O.2   1     604     0.0000
     32 S32        33.3610    4.7070  -59.5870 S.o2  1     604     0.0000
     33 BR         35.4060   -5.1490  -66.2810 Br    1     604     0.0000
@<TRIPOS>BOND
     1     1     3    1 
     2     1    15    1 
     3     1     4    1 
     4     2     5    ar
     5     2     8    ar
     6     4     6    1 
     7     4     7    1 
     8     5    17    ar
     9     6    22    am
    10     7     9    1 
    11     7    10    1 
    12     8    19    ar
    13    10    12    1 
    14    10    13    1 
    15    11    17    ar
    16    11    19    ar
    17    13    15    1 
    18    13    16    1 
    19    14    18    ar
    20    14    21    ar
    21    16    25    1 
    22    17    22    1 
    23    18    20    ar
    24    18    23    1 
    25    19    33    1 
    26    20    24    1 
    27    20    31    ar
    28    21    31    ar
    29    21    32    1 
    30    22    27    2 
    31    23    26    2 
    32    23    28    2 
    33    25    32    1 
    34    29    32    2 
    35    30    32    2 
@<TRIPOS>MOLECULE
Molecule Ligandos_final.mol2
     9     0
SMALL
NO_CHARGES
@<TRIPOS>ATOM
      1 ACC        34.6550    1.6550  -60.8130 HB    0     HB      0.0000
      2 ACC        34.7110    8.8530  -55.0920 HB    1     HB      0.0000
      3 ACC        33.8950    6.8060  -54.4280 HB    2     HB      0.0000
      4 ACC        31.8220   -0.8920  -63.1150 HB    3     HB      0.0000
      5 ACC        33.1760    3.5180  -58.7810 HB    4     HB      0.0000
      6 ACC        32.1930    5.3290  -60.1640 HB    5     HB      0.0000
      7 ANI        34.2960    7.6700  -55.2570 CHG   6     CHG     0.0000
      8 AR         32.6817   -3.6287  -65.2760 AR    7     AR      0.0000
      9 AR         34.2162    6.7778  -57.7848 AR    8     AR      0.0000
@<TRIPOS>BOND
@<TRIPOS>MOLECULE
2_var_160.mol2
    48    50
SMALL
NO_CHARGES
@<TRIPOS>ATOM
      1 C1         35.5069    1.8004  -64.8677 C.3   1     UNK     0.0000
      2 C2         35.1326    2.1254  -63.4587 C.2   1     UNK     0.0000
      3 O1         36.0249    2.4945  -62.6479 O.2   1     UNK     0.0000
      4 N1         33.7598    2.0493  -63.0489 N.am  1     UNK     0.0000
      5 C3         33.3030    2.4700  -61.7202 C.3   1     UNK     0.0000
      6 C4         34.4772    2.4330  -60.7265 C.3   1     UNK     0.0000
      7 O2         34.8815    1.0850  -60.5998 O.3   1     UNK     0.0000
      8 C5         34.6477   -0.0976  -61.8332 C.ar  1     UNK     0.0000
      9 C6         35.8703   -0.7575  -61.9910 C.ar  1     UNK     0.0000
     10 C7         35.9952   -1.8305  -62.8771 C.ar  1     UNK     0.0000
     11 C8         34.8852   -2.2669  -63.6255 C.ar  1     UNK     0.0000
     12 C9         34.9521   -3.3467  -64.5351 C.2   1     UNK     0.0000
     13 C10        36.2269   -4.1141  -64.7725 C.3   1     UNK     0.0000
     14 C11        33.7924   -3.7093  -65.2338 C.2   1     UNK     0.0000
     15 C12        32.6088   -3.0007  -65.0156 C.2   1     UNK     0.0000
     16 O3         31.5620   -3.3196  -65.6380 O.2   1     UNK     0.0000
     17 O4         32.5780   -1.9907  -64.1546 O.3   1     UNK     0.0000
     18 C13        33.6459   -1.6022  -63.4645 C.ar  1     UNK     0.0000
     19 C14        33.5334   -0.5284  -62.5752 C.ar  1     UNK     0.0000
     20 O5         34.0727    2.8622  -59.4332 O.3   1     UNK     0.0000
     21 C15        33.5839    4.1993  -59.4189 C.3   1     UNK     0.0000
     22 C16        34.7055    5.2441  -59.6051 C.3   1     UNK     0.0000
     23 O6         35.7479    4.9835  -58.7068 O.3   1     UNK     0.0000
     24 C17        32.3794    4.3849  -60.3738 C.3   1     UNK     0.0000
     25 O7         31.9872    5.7337  -60.4050 O.3   1     UNK     0.0000
     26 C18        32.7228    3.8926  -61.7908 C.3   1     UNK     0.0000
     27 O8         31.5905    3.9293  -62.6248 O.3   1     UNK     0.0000
     28 H1         35.0390    0.8395  -65.1676 H     1     UNK     0.0000
     29 H2         35.1484    2.6072  -65.5400 H     1     UNK     0.0000
     30 H3         36.6093    1.7076  -64.9673 H     1     UNK     0.0000
     31 H4         34.3525    2.7081  -63.6040 H     1     UNK     0.0000
     32 H5         32.5081    1.7830  -61.3513 H     1     UNK     0.0000
     33 H6         33.4168    2.3997  -61.2234 H     1     UNK     0.0000
     34 H7         36.7325   -0.4346  -61.4210 H     1     UNK     0.0000
     35 H8         36.9607   -2.3102  -62.9671 H     1     UNK     0.0000
     36 H9         37.0113   -3.4293  -65.1583 H     1     UNK     0.0000
     37 H10        36.5705   -4.5756  -63.8229 H     1     UNK     0.0000
     38 H11        36.0848   -4.9268  -65.5164 H     1     UNK     0.0000
     39 H12        33.8039   -4.5319  -65.9395 H     1     UNK     0.0000
     40 H13        32.5749   -0.0428  -62.4682 H     1     UNK     0.0000
     41 H14        33.1863    4.3722  -58.3945 H     1     UNK     0.0000
     42 H15        34.2990    6.2593  -59.3997 H     1     UNK     0.0000
     43 H16        35.0936    5.2412  -60.6457 H     1     UNK     0.0000
     44 H17        36.4426    5.6702  -58.8818 H     1     UNK     0.0000
     45 H18        31.5437    3.7643  -59.9701 H     1     UNK     0.0000
     46 H19        31.0493    5.7544  -60.7296 H     1     UNK     0.0000
     47 H20        33.4845    4.5732  -62.2302 H     1     UNK     0.0000
     48 H21        30.9073    3.3216  -62.2371 H     1     UNK     0.0000
@<TRIPOS>BOND
     1     1     2    1 
     2     2     3    2 
     3     2     4    am
     4     4     5    1 
     5     5     6    1 
     6     6     7    1 
     7     7     8    1 
     8     8     9    ar
     9     9    10    ar
    10    10    11    ar
    11    11    12    1 
    12    12    13    1 
    13    12    14    2 
    14    14    15    2 
    15    15    16    2 
    16    15    17    1 
    17    17    18    1 
    18    18    19    ar
    19     6    20    1 
    20    20    21    1 
    21    21    22    1 
    22    22    23    1 
    23    21    24    1 
    24    24    25    1 
    25    24    26    1 
    26    26    27    1 
    27    26     5    1 
    28    19     8    ar
    29    18    11    ar
    30     1    28    1 
    31     1    29    1 
    32     1    30    1 
    33     4    31    1 
    34     5    32    1 
    35     6    33    1 
    36     9    34    1 
    37    10    35    1 
    38    13    36    1 
    39    13    37    1 
    40    13    38    1 
    41    14    39    1 
    42    19    40    1 
    43    21    41    1 
    44    22    42    1 
    45    22    43    1 
    46    23    44    1 
    47    24    45    1 
    48    25    46    1 
    49    26    47    1 
    50    27    48    1 
@<TRIPOS>MOLECULE
Molecule 2_var_160.mol2
    17     0
SMALL
NO_CHARGES
@<TRIPOS>ATOM
      1 DON        33.7598    2.0493  -63.0489 HB    0     HB      0.0000
      2 DON        35.7479    4.9835  -58.7068 HB    1     HB      0.0000
      3 DON        31.9872    5.7337  -60.4050 HB    2     HB      0.0000
      4 DON        31.5905    3.9293  -62.6248 HB    3     HB      0.0000
      5 ACC        36.0249    2.4945  -62.6479 HB    4     HB      0.0000
      6 ACC        34.5857    0.9732  -60.9285 HB    5     HB      0.0000
      7 ACC        31.5620   -3.3196  -65.6380 HB    6     HB      0.0000
      8 ACC        32.5780   -1.9907  -64.1546 HB    7     HB      0.0000
      9 ACC        34.0727    2.8622  -59.4332 HB    8     HB      0.0000
     10 ACC        35.7479    4.9835  -58.7068 HB    9     HB      0.0000
     11 ACC        31.9872    5.7337  -60.4050 HB    10    HB      0.0000
     12 ACC        31.5905    3.9293  -62.6248 HB    11    HB      0.0000
     13 AR         34.7630   -1.1805  -62.7277 AR    12    AR      0.0000
     14 AR         33.7437   -2.6528  -64.3382 AR    13    AR      0.0000
     15 HYD        35.5895   -3.7304  -64.6538 HYD   14    HYD     0.0000
     16 HYD        35.5069    1.8004  -64.8677 HYD   15    HYD     0.0000
     17 HYD        36.2269   -4.1141  -64.7725 HYD   16    HYD     0.0000
@<TRIPOS>BOND
