@<TRIPOS>MOLECULE
Molecule Ligandos_final.mol2
     2     0
SMALL
NO_CHARGES
@<TRIPOS>ATOM
      6 ACC        32.1930    5.3290  -60.1640 HB    5     HB      0.0000
      8 AR         32.6817   -3.6287  -65.2760 AR    7     AR      0.0000
@<TRIPOS>BOND
@<TRIPOS>MOLECULE
Ligandos_final.mol2
    33    35
SMALL
NO_CHARGES
@<TRIPOS>ATOM
      1 C1         34.4600    0.4030  -61.4630 C.3   1     604     0.0000
      2 C1A        31.4480   -4.1500  -65.6180 C.ar  1     604     0.0000
      3 O1         35.5110   -0.4990  -61.1620 O.3   1     604     0.0000
      4 C2         34.2620    0.5920  -62.9480 C.3   1     604     0.0000
      5 C2A        31.5420   -3.0050  -64.8510 C.ar  1     604     0.0000
      6 N2         34.0600   -0.6570  -63.6450 N.am  1     604     0.0000
      7 C3         35.4470    1.3580  -63.4970 C.3   1     604     0.0000
      8 C3A        32.5930   -4.7780  -66.0400 C.ar  1     604     0.0000
      9 O3         35.3190    1.5200  -64.9050 O.3   1     604     0.0000
     10 C4         35.4990    2.6980  -62.7960 C.3   1     604     0.0000
     11 C4A        33.9180   -3.1030  -64.9360 C.ar  1     604     0.0000
     12 O4         36.6120    3.4100  -63.2990 O.3   1     604     0.0000
     13 C5         35.7180    2.4380  -61.3250 C.3   1     604     0.0000
     14 C5A        33.6680    5.9620  -57.1000 C.ar  1     604     0.0000
     15 O5         34.6550    1.6550  -60.8130 O.3   1     604     0.0000
     16 C6         35.7770    3.7080  -60.4950 C.3   1     604     0.0000
     17 C6A        32.7650   -2.4820  -64.5170 C.ar  1     604     0.0000
     18 C7         34.2580    7.1740  -56.6870 C.ar  1     604     0.0000
     19 C8         33.8240   -4.2540  -65.6940 C.ar  1     604     0.0000
     20 C9         34.7710    7.8040  -57.7890 C.ar  1     604     0.0000
     21 C10        33.8570    5.9180  -58.4620 C.ar  1     604     0.0000
     22 C11        32.8240   -1.2630  -63.7010 C.2   1     604     0.0000
     23 C12        34.2960    7.6700  -55.2570 C.2   1     604     0.0000
     24 C18        35.4850    9.0730  -57.9450 C.3   1     604     0.0000
     25 N21        34.6110    4.5690  -60.7660 N.pl3 1     604     0.0000
     26 O22        34.7110    8.8530  -55.0920 O.co2 1     604     0.0000
     27 O23        31.8220   -0.8920  -63.1150 O.2   1     604     0.0000
     28 O24        33.8950    6.8060  -54.4280 O.co2 1     604     0.0000
     29 O25        33.1760    3.5180  -58.7810 O.2   1     604     0.0000
     30 O26        32.1930    5.3290  -60.1640 O.2   1     604     0.0000
     31 O27        34.5270    7.0310  -58.8860 O.2   1     604     0.0000
     32 S32        33.3610    4.7070  -59.5870 S.o2  1     604     0.0000
     33 BR         35.4060   -5.1490  -66.2810 Br    1     604     0.0000
@<TRIPOS>BOND
     1     1     3    1 
     2     1    15    1 
     3     1     4    1 
     4     2     5    ar
     5     2     8    ar
     6     4     6    1 
     7     4     7    1 
     8     5    17    ar
     9     6    22    am
    10     7     9    1 
    11     7    10    1 
    12     8    19    ar
    13    10    12    1 
    14    10    13    1 
    15    11    17    ar
    16    11    19    ar
    17    13    15    1 
    18    13    16    1 
    19    14    18    ar
    20    14    21    ar
    21    16    25    1 
    22    17    22    1 
    23    18    20    ar
    24    18    23    1 
    25    19    33    1 
    26    20    24    1 
    27    20    31    ar
    28    21    31    ar
    29    21    32    1 
    30    22    27    2 
    31    23    26    2 
    32    23    28    2 
    33    25    32    1 
    34    29    32    2 
    35    30    32    2 
@<TRIPOS>MOLECULE
Molecule Ligandos_final.mol2
     9     0
SMALL
NO_CHARGES
@<TRIPOS>ATOM
      1 ACC        34.6550    1.6550  -60.8130 HB    0     HB      0.0000
      2 ACC        34.7110    8.8530  -55.0920 HB    1     HB      0.0000
      3 ACC        33.8950    6.8060  -54.4280 HB    2     HB      0.0000
      4 ACC        31.8220   -0.8920  -63.1150 HB    3     HB      0.0000
      5 ACC        33.1760    3.5180  -58.7810 HB    4     HB      0.0000
      6 ACC        32.1930    5.3290  -60.1640 HB    5     HB      0.0000
      7 ANI        34.2960    7.6700  -55.2570 CHG   6     CHG     0.0000
      8 AR         32.6817   -3.6287  -65.2760 AR    7     AR      0.0000
      9 AR         34.2162    6.7778  -57.7848 AR    8     AR      0.0000
@<TRIPOS>BOND
@<TRIPOS>MOLECULE
2_var_50.mol2
    50    52
SMALL
NO_CHARGES
@<TRIPOS>ATOM
      1 H1         37.7560    5.2472  -64.7094 H     1     UNK     0.0000
      2 O1         36.7576    5.1004  -64.6223 O.3   1     UNK     0.0000
      3 C1         36.2362    4.0186  -63.9170 C.2   1     UNK     0.0000
      4 N1         34.9413    3.9038  -63.8364 N.2   1     UNK     0.0000
      5 C2         34.1745    2.8703  -63.1281 C.3   1     UNK     0.0000
      6 H2         33.8336    2.0922  -63.8416 H     1     UNK     0.0000
      7 C3         35.0337    2.2388  -62.0069 C.3   1     UNK     0.0000
      8 H3         35.6097    2.2577  -63.1608 H     1     UNK     0.0000
      9 O2         34.7385    1.1290  -61.6564 O.3   1     UNK     0.0000
     10 C4         34.1724    0.1284  -62.1938 C.ar  1     UNK     0.0000
     11 C5         32.8015    0.2790  -62.4319 C.ar  1     UNK     0.0000
     12 H4         32.2524    1.0671  -61.9324 H     1     UNK     0.0000
     13 C6         32.1313   -0.5719  -63.3142 C.ar  1     UNK     0.0000
     14 H5         31.0704   -0.4291  -63.4824 H     1     UNK     0.0000
     15 C7         32.8277   -1.5949  -63.9722 C.ar  1     UNK     0.0000
     16 C8         32.1656   -2.4539  -64.8623 C.ar  1     UNK     0.0000
     17 H6         31.1051   -2.3328  -65.0511 H     1     UNK     0.0000
     18 C9         32.8621   -3.4765  -65.5177 C.ar  1     UNK     0.0000
     19 O3         32.1516   -4.3065  -66.3977 O.3   1     UNK     0.0000
     20 C10        30.7714   -4.6288  -66.2617 C.3   1     UNK     0.0000
     21 H7         30.5949   -5.1539  -65.2993 H     1     UNK     0.0000
     22 H8         30.4722   -5.3000  -67.0926 H     1     UNK     0.0000
     23 H9         30.1569   -3.7051  -66.3121 H     1     UNK     0.0000
     24 C11        34.2398   -3.6383  -65.2756 C.ar  1     UNK     0.0000
     25 H10        34.8042   -4.4189  -65.7671 H     1     UNK     0.0000
     26 C12        34.9074   -2.7877  -64.3903 C.ar  1     UNK     0.0000
     27 H11        35.9682   -2.9306  -64.2200 H     1     UNK     0.0000
     28 C13        34.2110   -1.7628  -63.7339 C.ar  1     UNK     0.0000
     29 C14        34.8741   -0.9043  -62.8437 C.ar  1     UNK     0.0000
     30 H12        35.9266   -1.0511  -62.6604 H     1     UNK     0.0000
     31 O4         35.3965    3.2194  -61.0469 O.3   1     UNK     0.0000
     32 C15        34.2601    3.7527  -60.3800 C.3   1     UNK     0.0000
     33 H13        33.6976    2.9409  -59.8639 H     1     UNK     0.0000
     34 C16        34.7474    4.7048  -59.2755 C.3   1     UNK     0.0000
     35 H14        33.8820    5.0778  -58.6882 H     1     UNK     0.0000
     36 H15        35.4040    4.1503  -58.5664 H     1     UNK     0.0000
     37 O5         35.4340    5.8028  -59.8160 O.3   1     UNK     0.0000
     38 H16        36.3463    5.4856  -60.0449 H     1     UNK     0.0000
     39 C17        33.3131    4.4714  -61.3739 C.3   1     UNK     0.0000
     40 H17        33.8422    5.3438  -61.8283 H     1     UNK     0.0000
     41 O6         32.1467    4.8943  -60.7130 O.3   1     UNK     0.0000
     42 H18        32.3005    5.8291  -60.4164 H     1     UNK     0.0000
     43 C18        32.9194    3.5080  -62.5038 C.3   1     UNK     0.0000
     44 H19        32.2800    2.7012  -62.0715 H     1     UNK     0.0000
     45 O7         32.1875    4.2050  -63.4794 O.3   1     UNK     0.0000
     46 H20        31.7493    3.5213  -64.0508 H     1     UNK     0.0000
     47 C19        37.1791    3.0399  -63.2721 C.3   1     UNK     0.0000
     48 H21        36.9108    1.9972  -63.5378 H     1     UNK     0.0000
     49 H22        38.2160    3.2145  -63.6271 H     1     UNK     0.0000
     50 H23        37.1703    3.1727  -62.1722 H     1     UNK     0.0000
@<TRIPOS>BOND
     1     1     2    1 
     2     2     3    1 
     3     3     4    2 
     4     4     5    1 
     5     5     6    1 
     6     5     7    1 
     7     7     8    1 
     8     7     9    1 
     9     9    10    1 
    10    10    11    ar
    11    11    12    1 
    12    11    13    ar
    13    13    14    1 
    14    13    15    ar
    15    15    16    ar
    16    16    17    1 
    17    16    18    ar
    18    18    19    1 
    19    19    20    1 
    20    20    21    1 
    21    20    22    1 
    22    20    23    1 
    23    18    24    ar
    24    24    25    1 
    25    24    26    ar
    26    26    27    1 
    27    26    28    ar
    28    28    29    ar
    29    29    30    1 
    30     7    31    1 
    31    31    32    1 
    32    32    33    1 
    33    32    34    1 
    34    34    35    1 
    35    34    36    1 
    36    34    37    1 
    37    37    38    1 
    38    32    39    1 
    39    39    40    1 
    40    39    41    1 
    41    41    42    1 
    42    39    43    1 
    43    43    44    1 
    44    43    45    1 
    45    45    46    1 
    46     3    47    1 
    47    47    48    1 
    48    47    49    1 
    49    47    50    1 
    50    43     5    1 
    51    29    10    ar
    52    28    15    ar
@<TRIPOS>MOLECULE
Molecule 2_var_50.mol2
    16     0
SMALL
NO_CHARGES
@<TRIPOS>ATOM
      1 DON        36.7576    5.1004  -64.6223 HB    0     HB      0.0000
      2 DON        35.4340    5.8028  -59.8160 HB    1     HB      0.0000
      3 DON        32.1467    4.8943  -60.7130 HB    2     HB      0.0000
      4 DON        32.1875    4.2050  -63.4794 HB    3     HB      0.0000
      5 ACC        36.7576    5.1004  -64.6223 HB    4     HB      0.0000
      6 ACC        34.9413    3.9038  -63.8364 HB    5     HB      0.0000
      7 ACC        34.7863    1.0212  -61.3003 HB    6     HB      0.0000
      8 ACC        32.1516   -4.3065  -66.3977 HB    7     HB      0.0000
      9 ACC        35.3965    3.2194  -61.0469 HB    8     HB      0.0000
     10 ACC        35.4340    5.8028  -59.8160 HB    9     HB      0.0000
     11 ACC        32.1467    4.8943  -60.7130 HB    10    HB      0.0000
     12 ACC        32.1875    4.2050  -63.4794 HB    11    HB      0.0000
     13 AR         33.5030   -0.7378  -63.0816 AR    12    AR      0.0000
     14 AR         33.5356   -2.6190  -64.6253 AR    13    AR      0.0000
     15 HYD        30.7714   -4.6288  -66.2617 HYD   14    HYD     0.0000
     16 HYD        37.1791    3.0399  -63.2721 HYD   15    HYD     0.0000
@<TRIPOS>BOND
