@<TRIPOS>MOLECULE
Molecule Ligandos_final.mol2
     3     0
SMALL
NO_CHARGES
@<TRIPOS>ATOM
      5 ACC        33.1760    3.5180  -58.7810 HB    4     HB      0.0000
      6 ACC        32.1930    5.3290  -60.1640 HB    5     HB      0.0000
      8 AR         32.6817   -3.6287  -65.2760 AR    7     AR      0.0000
@<TRIPOS>BOND
@<TRIPOS>MOLECULE
Ligandos_final.mol2
    33    35
SMALL
NO_CHARGES
@<TRIPOS>ATOM
      1 C1         34.4600    0.4030  -61.4630 C.3   1     604     0.0000
      2 C1A        31.4480   -4.1500  -65.6180 C.ar  1     604     0.0000
      3 O1         35.5110   -0.4990  -61.1620 O.3   1     604     0.0000
      4 C2         34.2620    0.5920  -62.9480 C.3   1     604     0.0000
      5 C2A        31.5420   -3.0050  -64.8510 C.ar  1     604     0.0000
      6 N2         34.0600   -0.6570  -63.6450 N.am  1     604     0.0000
      7 C3         35.4470    1.3580  -63.4970 C.3   1     604     0.0000
      8 C3A        32.5930   -4.7780  -66.0400 C.ar  1     604     0.0000
      9 O3         35.3190    1.5200  -64.9050 O.3   1     604     0.0000
     10 C4         35.4990    2.6980  -62.7960 C.3   1     604     0.0000
     11 C4A        33.9180   -3.1030  -64.9360 C.ar  1     604     0.0000
     12 O4         36.6120    3.4100  -63.2990 O.3   1     604     0.0000
     13 C5         35.7180    2.4380  -61.3250 C.3   1     604     0.0000
     14 C5A        33.6680    5.9620  -57.1000 C.ar  1     604     0.0000
     15 O5         34.6550    1.6550  -60.8130 O.3   1     604     0.0000
     16 C6         35.7770    3.7080  -60.4950 C.3   1     604     0.0000
     17 C6A        32.7650   -2.4820  -64.5170 C.ar  1     604     0.0000
     18 C7         34.2580    7.1740  -56.6870 C.ar  1     604     0.0000
     19 C8         33.8240   -4.2540  -65.6940 C.ar  1     604     0.0000
     20 C9         34.7710    7.8040  -57.7890 C.ar  1     604     0.0000
     21 C10        33.8570    5.9180  -58.4620 C.ar  1     604     0.0000
     22 C11        32.8240   -1.2630  -63.7010 C.2   1     604     0.0000
     23 C12        34.2960    7.6700  -55.2570 C.2   1     604     0.0000
     24 C18        35.4850    9.0730  -57.9450 C.3   1     604     0.0000
     25 N21        34.6110    4.5690  -60.7660 N.pl3 1     604     0.0000
     26 O22        34.7110    8.8530  -55.0920 O.co2 1     604     0.0000
     27 O23        31.8220   -0.8920  -63.1150 O.2   1     604     0.0000
     28 O24        33.8950    6.8060  -54.4280 O.co2 1     604     0.0000
     29 O25        33.1760    3.5180  -58.7810 O.2   1     604     0.0000
     30 O26        32.1930    5.3290  -60.1640 O.2   1     604     0.0000
     31 O27        34.5270    7.0310  -58.8860 O.2   1     604     0.0000
     32 S32        33.3610    4.7070  -59.5870 S.o2  1     604     0.0000
     33 BR         35.4060   -5.1490  -66.2810 Br    1     604     0.0000
@<TRIPOS>BOND
     1     1     3    1 
     2     1    15    1 
     3     1     4    1 
     4     2     5    ar
     5     2     8    ar
     6     4     6    1 
     7     4     7    1 
     8     5    17    ar
     9     6    22    am
    10     7     9    1 
    11     7    10    1 
    12     8    19    ar
    13    10    12    1 
    14    10    13    1 
    15    11    17    ar
    16    11    19    ar
    17    13    15    1 
    18    13    16    1 
    19    14    18    ar
    20    14    21    ar
    21    16    25    1 
    22    17    22    1 
    23    18    20    ar
    24    18    23    1 
    25    19    33    1 
    26    20    24    1 
    27    20    31    ar
    28    21    31    ar
    29    21    32    1 
    30    22    27    2 
    31    23    26    2 
    32    23    28    2 
    33    25    32    1 
    34    29    32    2 
    35    30    32    2 
@<TRIPOS>MOLECULE
Molecule Ligandos_final.mol2
     9     0
SMALL
NO_CHARGES
@<TRIPOS>ATOM
      1 ACC        34.6550    1.6550  -60.8130 HB    0     HB      0.0000
      2 ACC        34.7110    8.8530  -55.0920 HB    1     HB      0.0000
      3 ACC        33.8950    6.8060  -54.4280 HB    2     HB      0.0000
      4 ACC        31.8220   -0.8920  -63.1150 HB    3     HB      0.0000
      5 ACC        33.1760    3.5180  -58.7810 HB    4     HB      0.0000
      6 ACC        32.1930    5.3290  -60.1640 HB    5     HB      0.0000
      7 ANI        34.2960    7.6700  -55.2570 CHG   6     CHG     0.0000
      8 AR         32.6817   -3.6287  -65.2760 AR    7     AR      0.0000
      9 AR         34.2162    6.7778  -57.7848 AR    8     AR      0.0000
@<TRIPOS>BOND
@<TRIPOS>MOLECULE
Ligandos_final_2.mol2
    37    40
SMALL
NO_CHARGES
@<TRIPOS>ATOM
      1 C1         34.2605    8.9499  -56.4384 C.1   1     603     0.0000
      2 C2         37.4466   -5.9575  -67.0750 C.ar  1     603     0.0000
      3 C3         36.2586   -6.6096  -67.3341 C.ar  1     603     0.0000
      4 C4         37.4826   -4.7691  -66.3808 C.ar  1     603     0.0000
      5 C5         31.4485   -4.1346  -65.6049 C.ar  1     603     0.0000
      6 C6         33.6715    8.0560  -58.6363 C.ar  1     603     0.0000
      7 C7         33.8585    6.5727  -56.7788 C.ar  1     603     0.0000
      8 C8         35.0689   -6.0764  -66.8929 C.ar  1     603     0.0000
      9 C9         36.2838   -4.2485  -65.9448 C.ar  1     603     0.0000
     10 C10        32.5934   -4.7731  -66.0367 C.ar  1     603     0.0000
     11 C11        31.5238   -2.9877  -64.8394 C.ar  1     603     0.0000
     12 C12        33.3499    6.9998  -59.4683 C.ar  1     603     0.0000
     13 C13        33.5438    5.5067  -57.5975 C.ar  1     603     0.0000
     14 C14        33.9203   -3.1346  -64.9366 C.ar  1     603     0.0000
     15 C15        33.9267    7.8477  -57.2962 C.ar  1     603     0.0000
     16 C16        35.0749   -4.8865  -66.1875 C.ar  1     603     0.0000
     17 C17        33.8418   -4.2762  -65.7089 C.ar  1     603     0.0000
     18 C18        32.7734   -2.5132  -64.5118 C.ar  1     603     0.0000
     19 C19        33.2927    5.7288  -58.9387 C.ar  1     603     0.0000
     20 C20        32.8178   -1.2820  -63.6822 C.2   1     603     0.0000
     21 C21        34.0962    0.6753  -63.1603 C.3   1     603     0.0000
     22 C22        35.4663    1.2040  -63.4834 C.3   1     603     0.0000
     23 C23        35.4978    2.5996  -62.9431 C.3   1     603     0.0000
     24 C24        35.4135    2.5223  -61.4383 C.3   1     603     0.0000
     25 C25        33.9122    0.6927  -61.6634 C.3   1     603     0.0000
     26 C26        35.4063    3.9345  -60.9021 C.3   1     603     0.0000
     27 N27        34.5486    9.8356  -55.7426 N.1   1     603     0.0000
     28 N28        34.0259   -0.6695  -63.6432 N.am  1     603     0.0000
     29 N29        34.0870    4.4910  -61.2292 N.pl3 1     603     0.0000
     30 O30        31.8175   -0.8901  -63.1122 O.2   1     603     0.0000
     31 O31        33.1867    3.1001  -59.3371 O.2   1     603     0.0000
     32 O32        31.6025    4.6205  -60.6091 O.2   1     603     0.0000
     33 O33        34.1466    1.9773  -61.0963 O.3   1     603     0.0000
     34 O34        35.6089    1.2854  -64.8864 O.3   1     603     0.0000
     35 O35        36.7286    3.1755  -63.3356 O.3   1     603     0.0000
     36 O36        34.8151   -0.2382  -61.1126 O.3   1     603     0.0000
     37 S37        32.8940    4.3512  -60.0083 S.o2  1     603     0.0000
@<TRIPOS>BOND
     1     1    15    1 
     2     1    27    3 
     3     2     3    ar
     4     2     4    ar
     5     3     8    ar
     6     4     9    ar
     7     5    10    ar
     8     5    11    ar
     9     6    12    ar
    10     6    15    ar
    11     7    13    ar
    12     7    15    ar
    13     8    16    ar
    14     9    16    ar
    15    10    17    ar
    16    11    18    ar
    17    12    19    ar
    18    13    19    ar
    19    14    17    ar
    20    14    18    ar
    21    16    17    1 
    22    18    20    1 
    23    19    37    1 
    24    20    28    am
    25    20    30    2 
    26    21    22    1 
    27    21    25    1 
    28    21    28    1 
    29    22    23    1 
    30    22    34    1 
    31    23    24    1 
    32    23    35    1 
    33    24    26    1 
    34    24    33    1 
    35    25    33    1 
    36    25    36    1 
    37    26    29    1 
    38    29    37    1 
    39    31    37    2 
    40    32    37    2 
@<TRIPOS>MOLECULE
Molecule Ligandos_final_2.mol2
     8     0
SMALL
NO_CHARGES
@<TRIPOS>ATOM
      1 ACC        34.5486    9.8356  -55.7426 HB    0     HB      0.0000
      2 ACC        31.8175   -0.8901  -63.1122 HB    1     HB      0.0000
      3 ACC        33.1867    3.1001  -59.3371 HB    2     HB      0.0000
      4 ACC        31.6025    4.6205  -60.6091 HB    3     HB      0.0000
      5 ACC        34.1466    1.9773  -61.0963 HB    4     HB      0.0000
      6 AR         36.2692   -5.4246  -66.6358 AR    5     AR      0.0000
      7 AR         32.6835   -3.6366  -65.2731 AR    6     AR      0.0000
      8 AR         33.6072    6.7853  -58.1193 AR    7     AR      0.0000
@<TRIPOS>BOND
@<TRIPOS>MOLECULE
Ligandos_final_3.mol2
    41    42
SMALL
NO_CHARGES
@<TRIPOS>ATOM
      1 CL1        29.8999   -4.1525  -64.8355 Cl    1     62C     0.0000
      2 CL2        32.6369   -5.7946  -64.8277 Cl    1     62C     0.0000
      3 C1         32.3957    3.6837  -59.8480 C.3   1     62C     0.0000
      4 O1         33.0004    2.7212  -59.0460 O.3   1     62C     0.0000
      5 C2         33.0735    3.7088  -61.2153 C.3   1     62C     0.0000
      6 C3         34.5471    4.0641  -61.0462 C.3   1     62C     0.0000
      7 O3         35.1289    4.2659  -62.3223 O.3   1     62C     0.0000
      8 C4         34.7056    5.3406  -60.2232 C.3   1     62C     0.0000
      9 O4         36.0800    5.5048  -59.8944 O.3   1     62C     0.0000
     10 C5         33.8614    5.3050  -58.9415 C.3   1     62C     0.0000
     11 O5         32.5084    4.9480  -59.2536 O.3   1     62C     0.0000
     12 C6         33.7822    6.6418  -58.2450 C.3   1     62C     0.0000
     13 O6         34.6624    7.5818  -58.8447 O.3   1     62C     0.0000
     14 N7         32.9168    2.4323  -61.8984 N.am  1     62C     0.0000
     15 C8         31.9343    2.2407  -62.8126 C.2   1     62C     0.0000
     16 O9         31.1391    3.1432  -63.1246 O.2   1     62C     0.0000
     17 C10        31.8875    0.8893  -63.4170 C.2   1     62C     0.0000
     18 C11        32.4922   -0.1420  -62.8308 C.2   1     62C     0.0000
     19 C12        32.5144   -1.5288  -63.3131 C.ar  1     62C     0.0000
     20 C13        33.6993   -2.2616  -63.3233 C.ar  1     62C     0.0000
     21 C14        33.7309   -3.5638  -63.7862 C.ar  1     62C     0.0000
     22 C15        32.5710   -4.1573  -64.2540 C.ar  1     62C     0.0000
     23 C16        31.3801   -3.4377  -64.2585 C.ar  1     62C     0.0000
     24 C17        31.3498   -2.1350  -63.7928 C.ar  1     62C     0.0000
     25 H11        31.4566    3.4684  -59.9624 H     1     62C     0.0000
     26 H12        32.7883    2.8551  -58.2344 H     1     62C     0.0000
     27 H21        32.6529    4.4001  -61.7512 H     1     62C     0.0000
     28 H31        35.0006    3.3356  -60.5944 H     1     62C     0.0000
     29 H32        34.9245    5.0400  -62.6069 H     1     62C     0.0000
     30 H41        34.4189    6.0944  -60.7630 H     1     62C     0.0000
     31 H42        36.5607    5.1349  -60.4907 H     1     62C     0.0000
     32 H51        33.3264    4.6555  -58.4596 H     1     62C     0.0000
     33 H61        34.0229    6.5275  -57.3118 H     1     62C     0.0000
     34 H62        32.8732    6.9762  -58.3000 H     1     62C     0.0000
     35 H63        34.7513    7.3993  -59.6695 H     1     62C     0.0000
     36 H71        33.4461    1.7828  -61.7059 H     1     62C     0.0000
     37 H101       32.3204    0.1833  -62.9956 H     1     62C     0.0000
     38 H111       32.9384    0.0322  -62.0340 H     1     62C     0.0000
     39 H131       34.4824   -1.8684  -63.0119 H     1     62C     0.0000
     40 H141       34.5288   -4.0404  -63.7823 H     1     62C     0.0000
     41 H171       30.5497   -1.6613  -63.7979 H     1     62C     0.0000
@<TRIPOS>BOND
     1     1    23    1 
     2     2    22    1 
     3     3     4    1 
     4     3    11    1 
     5     3    25    1 
     6     3     5    1 
     7     4    26    1 
     8     5     6    1 
     9     5    27    1 
    10     5    14    1 
    11     6     7    1 
    12     6    28    1 
    13     6     8    1 
    14     7    29    1 
    15     8     9    1 
    16     8    10    1 
    17     8    30    1 
    18     9    31    1 
    19    10    11    1 
    20    10    12    1 
    21    10    32    1 
    22    12    13    1 
    23    12    33    1 
    24    12    34    1 
    25    13    35    1 
    26    14    36    1 
    27    14    15    am
    28    15    16    2 
    29    15    17    1 
    30    17    18    2 
    31    17    37    1 
    32    18    38    1 
    33    18    19    1 
    34    19    20    ar
    35    19    24    ar
    36    20    21    ar
    37    20    39    1 
    38    21    40    1 
    39    21    22    ar
    40    22    23    ar
    41    23    24    ar
    42    24    41    1 
@<TRIPOS>MOLECULE
Molecule Ligandos_final_3.mol2
    14     0
SMALL
NO_CHARGES
@<TRIPOS>ATOM
      1 DON        33.0004    2.7212  -59.0460 HB    0     HB      0.0000
      2 DON        35.1289    4.2659  -62.3223 HB    1     HB      0.0000
      3 DON        36.0800    5.5048  -59.8944 HB    2     HB      0.0000
      4 DON        34.6624    7.5818  -58.8447 HB    3     HB      0.0000
      5 DON        32.9168    2.4323  -61.8984 HB    4     HB      0.0000
      6 ACC        33.0004    2.7212  -59.0460 HB    5     HB      0.0000
      7 ACC        35.1289    4.2659  -62.3223 HB    6     HB      0.0000
      8 ACC        36.0800    5.5048  -59.8944 HB    7     HB      0.0000
      9 ACC        32.5084    4.9480  -59.2536 HB    8     HB      0.0000
     10 ACC        34.6624    7.5818  -58.8447 HB    9     HB      0.0000
     11 ACC        31.1391    3.1432  -63.1246 HB    10    HB      0.0000
     12 AR         32.5409   -2.8474  -63.7880 AR    11    AR      0.0000
     13 HYD        32.5033   -0.8354  -63.0720 HYD   12    HYD     0.0000
     14 HYD        32.1899    0.3736  -63.1239 HYD   13    HYD     0.0000
@<TRIPOS>BOND
