134695375
  rDOCK(R)          3D
libRbt.so/2013.1/901 2013/11/27
 24 24  0  0  0  0  0  0  0  0999 V2000
   33.8133   -3.9227  -66.9483 H   0  0  0  0  0  0
   34.1673   -3.9041  -66.0005 O   0  0  0  0  0  0
   34.1202   -2.7367  -65.2708 N   0  0  0  0  0  0
   33.1569   -2.4713  -64.4758 N   0  3  0  0  0  0
   33.1443   -1.2037  -63.7887 C   0  0  0  0  0  0
   32.1207   -0.8518  -63.1398 O   0  0  0  0  0  0
   34.2850   -0.3281  -63.8429 N   0  0  0  0  0  0
   35.1122   -0.6090  -64.4165 H   0  0  0  0  0  0
   34.3201    0.9565  -63.1323 C   0  0  0  0  0  0
   34.0795    0.7435  -61.6208 C   0  0  0  0  0  0
   34.9671   -0.2168  -61.1031 O   0  0  0  0  0  0
   34.7027   -0.3607  -60.1573 H   0  0  0  0  0  0
   34.1687    1.9665  -60.9016 O   0  0  0  0  0  0
   35.4578    2.5501  -61.0215 C   0  0  0  0  0  0
   35.5378    3.7805  -60.1061 C   0  0  0  0  0  0
   34.4484    4.6329  -60.3375 O   0  0  0  0  0  0
   34.5692    5.0114  -61.2473 H   0  0  0  0  0  0
   35.7483    2.9348  -62.4879 C   0  0  0  0  0  0
   34.8146    3.8925  -62.9241 O   0  0  0  0  0  0
   35.1215    4.2114  -63.8127 H   0  0  0  0  0  0
   35.6661    1.6698  -63.3629 C   0  0  0  0  0  0
   35.7953    2.0025  -64.7213 O   0  0  0  0  0  0
   34.9905    2.5311  -64.9634 H   0  0  0  0  0  0
   32.0299   -3.4027  -64.3345 C   0  0  0  0  0  0
  1  2  1  0  0  0
  2  3  1  0  0  0
  3  4  2  0  0  0
  4  5  1  0  0  0
  4 24  1  0  0  0
  5  6  2  0  0  0
  5  7  1  0  0  0
  7  8  1  0  0  0
  7  9  1  0  0  0
  9 10  1  0  0  0
 10 11  1  0  0  0
 10 13  1  0  0  0
 11 12  1  0  0  0
 13 14  1  0  0  0
 14 15  1  0  0  0
 14 18  1  0  0  0
 15 16  1  0  0  0
 16 17  1  0  0  0
 18 19  1  0  0  0
 18 21  1  0  0  0
 19 20  1  0  0  0
 21 22  1  0  0  0
 21  9  1  0  0  0
 22 23  1  0  0  0
M  END
>  <CHROM.0>
-177.52908814,-61.91593787,178.38391893

>  <CHROM.1>
94.48622246,57.14168576,-175.00999055,-51.22130241,-68.09682087,171.40145037
54.71953359,34.33139595,0.57245624,-62.93582491,-1.99113269,0.95392400,0.86647690

>  <Energy>
31.041433030190596

>  <Genealogy>
C[NH+](N=O)C(=O)N[C@H]1[C@@H](O)OC(CO)C(O)[C@@H]1O (protonated)
C[N+](=NO)C(=O)N[C@H]1[C@@H](O)OC(CO)C(O)[C@@H]1O (tautomer)
C[N+](=NO)C(=O)N[C@H]1[C@@H](O)O[C@H](CO)[C@H](O)[C@@H]1O (chirality)
C/[N+](=N/O)C(=O)N[C@H]1[C@@H](O)O[C@H](CO)[C@H](O)[C@@H]1O (cis-trans isomerization)
C/[N+](=N/O)C(=O)N[C@H]1[C@@H](O)O[C@H](CO)[C@H](O)[C@@H]1O (3D coordinates assigned)
C/[N+](=N/O)C(=O)N[C@H]1[C@@H](O)O[C@H](CO)[C@H](O)[C@@H]1O (nonaromatic ring conformer: 31.041433030190596 kcal/mol)

>  <Name>
134695375

>  <RI>
1.63646e+07

>  <Rbt.Current_Directory>
/home/edward/Documentos/Virtual_Screening/rDock/N-terminal/3

>  <Rbt.Executable>
rbdock ($Id: //depot/dev/client3/rdock/2013.1/src/exe/rbdock.cxx#4 $)

>  <Rbt.Library>
libRbt.so (2013.1, Build901 2013/11/27)

>  <Rbt.Parameter_File>
/home/edward/anaconda3/envs/MD/share/rdock-2013.1-1/data/scripts/dock.prm

>  <Rbt.Receptor>
parameters.prm

>  <SCORE>
-28.9998

>  <SCORE.INTER>
-23.6424

>  <SCORE.INTER.CONST>
1

>  <SCORE.INTER.POLAR>
-4.47337

>  <SCORE.INTER.REPUL>
0.00594719

>  <SCORE.INTER.ROT>
2

>  <SCORE.INTER.VDW>
-15.8627

>  <SCORE.INTER.norm>
-1.31347

>  <SCORE.INTRA>
-4.31551

>  <SCORE.INTRA.DIHEDRAL>
-6.28447

>  <SCORE.INTRA.DIHEDRAL.0>
8.7807

>  <SCORE.INTRA.POLAR>
-0.525186

>  <SCORE.INTRA.POLAR.0>
0

>  <SCORE.INTRA.REPUL>
0

>  <SCORE.INTRA.REPUL.0>
0

>  <SCORE.INTRA.VDW>
0.612357

>  <SCORE.INTRA.VDW.0>
-1.58865

>  <SCORE.INTRA.norm>
-0.23975

>  <SCORE.RESTR>
0

>  <SCORE.RESTR.CAVITY>
0

>  <SCORE.RESTR.norm>
0

>  <SCORE.SYSTEM>
-1.04193

>  <SCORE.SYSTEM.CONST>
0

>  <SCORE.SYSTEM.DIHEDRAL>
0.0610672

>  <SCORE.SYSTEM.REPUL>
0.0332164

>  <SCORE.SYSTEM.VDW>
-1.23855

>  <SCORE.SYSTEM.norm>
-0.057885

>  <SCORE.heavy>
18

>  <SCORE.norm>
-1.6111

>  <SMILES>
C/[N+](=N/O)C(=O)N[C@H]1[C@@H](O)O[C@H](CO)[C@H](O)[C@@H]1O

>  <UniqueID>
1

$$$$
129878031
  rDOCK(R)          3D
libRbt.so/2013.1/901 2013/11/27
 23 23  0  0  0  0  0  0  0  0999 V2000
   32.8888   -1.9834  -64.2204 H   0  0  0  0  0  0
   32.0097   -1.5604  -63.9576 O   0  0  0  0  0  0
   31.8928   -0.2368  -63.5231 C   0  0  0  0  0  0
   30.6761    0.2648  -63.2718 C   0  0  0  0  0  0
   29.4150   -0.5377  -63.4327 C   0  0  0  0  0  0
   28.4033    0.1888  -64.3150 C   0  0  0  0  0  0
   33.0517    0.6031  -63.3530 N   0  0  0  0  0  0
   32.9003    1.6286  -63.2112 H   0  0  0  0  0  0
   34.4376    0.1154  -63.3994 C   0  0  0  0  0  0
   35.0151    0.0019  -61.9695 C   0  0  0  0  0  0
   34.1781   -0.8029  -61.1817 O   0  0  0  0  0  0
   34.4844   -0.7053  -60.2421 H   0  0  0  0  0  0
   35.1046    1.2800  -61.3649 O   0  0  0  0  0  0
   36.0427    2.0936  -62.0502 C   0  0  0  0  0  0
   36.2471    3.3874  -61.2472 C   0  0  0  0  0  0
   36.9302    3.1327  -60.0477 O   0  0  0  0  0  0
   37.8286    2.7899  -60.2937 H   0  0  0  0  0  0
   35.5619    2.3867  -63.4913 C   0  0  0  0  0  0
   36.5366    3.1409  -64.1664 O   0  0  0  0  0  0
   36.5243    4.0513  -63.7706 H   0  0  0  0  0  0
   35.3237    1.0585  -64.2373 C   0  0  0  0  0  0
   34.7192    1.3029  -65.4819 O   0  0  0  0  0  0
   35.3548    1.8517  -66.0112 H   0  0  0  0  0  0
  1  2  1  0  0  0
  2  3  1  0  0  0
  3  4  2  0  0  0
  3  7  1  0  0  0
  4  5  1  0  0  0
  5  6  1  0  0  0
  7  8  1  0  0  0
  7  9  1  0  0  0
  9 10  1  0  0  0
 10 11  1  0  0  0
 10 13  1  0  0  0
 11 12  1  0  0  0
 13 14  1  0  0  0
 14 15  1  0  0  0
 14 18  1  0  0  0
 15 16  1  0  0  0
 16 17  1  0  0  0
 18 19  1  0  0  0
 18 21  1  0  0  0
 19 20  1  0  0  0
 21 22  1  0  0  0
 21  9  1  0  0  0
 22 23  1  0  0  0
M  END
>  <CHROM.0>
72.16265661,-175.54974884,-60.29760055

>  <CHROM.1>
176.01762159,-127.31618393,-102.79046608,-169.24277511,69.53826969,63.06559029
-71.16184589,-175.57752137,33.91154807,0.95111548,-62.95543493,-2.97721394
0.49426775,1.79080249

>  <Energy>
28.604969248440888

>  <Genealogy>
[2H]CCC=C(O)N[C@@H]1C(O)O[C@H](CO)[C@@H](O)[C@@H]1O (tautomer)
[2H]CCC=C(O)N[C@@H]1[C@H](O)O[C@H](CO)[C@@H](O)[C@@H]1O (chirality)
[2H]CC/C=C(\O)N[C@@H]1[C@H](O)O[C@H](CO)[C@@H](O)[C@@H]1O (cis-trans isomerization)
[2H]CC/C=C(\O)N[C@@H]1[C@H](O)O[C@H](CO)[C@@H](O)[C@@H]1O (3D coordinates assigned)
[2H]CC/C=C(\O)N[C@@H]1[C@H](O)O[C@H](CO)[C@@H](O)[C@@H]1O (nonaromatic ring conformer: 28.604969248440888 kcal/mol)

>  <Name>
129878031

>  <RI>
1.63646e+07

>  <Rbt.Current_Directory>
/home/edward/Documentos/Virtual_Screening/rDock/N-terminal/3

>  <Rbt.Executable>
rbdock ($Id: //depot/dev/client3/rdock/2013.1/src/exe/rbdock.cxx#4 $)

>  <Rbt.Library>
libRbt.so (2013.1, Build901 2013/11/27)

>  <Rbt.Parameter_File>
/home/edward/anaconda3/envs/MD/share/rdock-2013.1-1/data/scripts/dock.prm

>  <Rbt.Receptor>
parameters.prm

>  <SCORE>
-30.3273

>  <SCORE.INTER>
-25.7011

>  <SCORE.INTER.CONST>
1

>  <SCORE.INTER.POLAR>
-5.57001

>  <SCORE.INTER.REPUL>
0

>  <SCORE.INTER.ROT>
3

>  <SCORE.INTER.VDW>
-15.1631

>  <SCORE.INTER.norm>
-1.51183

>  <SCORE.INTRA>
-5.26691

>  <SCORE.INTRA.DIHEDRAL>
-11.3555

>  <SCORE.INTRA.DIHEDRAL.0>
15.5194

>  <SCORE.INTRA.POLAR>
0

>  <SCORE.INTRA.POLAR.0>
0

>  <SCORE.INTRA.REPUL>
0

>  <SCORE.INTRA.REPUL.0>
0

>  <SCORE.INTRA.VDW>
0.410837

>  <SCORE.INTRA.VDW.0>
-2.33206

>  <SCORE.INTRA.norm>
-0.309819

>  <SCORE.RESTR>
0

>  <SCORE.RESTR.CAVITY>
0

>  <SCORE.RESTR.norm>
0

>  <SCORE.SYSTEM>
0.64074

>  <SCORE.SYSTEM.CONST>
0

>  <SCORE.SYSTEM.DIHEDRAL>
0.803394

>  <SCORE.SYSTEM.POLAR>
-0.0190882

>  <SCORE.SYSTEM.REPUL>
0.0564241

>  <SCORE.SYSTEM.VDW>
0.0218222

>  <SCORE.SYSTEM.norm>
0.0376906

>  <SCORE.heavy>
17

>  <SCORE.norm>
-1.78396

>  <SMILES>
[2H]CC/C=C(\O)N[C@@H]1[C@H](O)O[C@H](CO)[C@@H](O)[C@@H]1O

>  <UniqueID>
5

$$$$
118707521
  rDOCK(R)          3D
libRbt.so/2013.1/901 2013/11/27
 39 43  0  0  0  0  0  0  0  0999 V2000
   31.6876    3.8607  -59.7961 C   0  0  0  0  0  0
   32.4483    4.6435  -58.8191 N   0  0  0  0  0  0
   33.7794    4.5747  -58.5714 C   0  0  0  0  0  0
   34.7460    3.7431  -59.3140 C   0  0  0  0  0  0
   34.4672    2.9573  -60.4110 C   0  0  0  0  0  0
   35.6261    2.3632  -60.7507 N   0  0  0  0  0  0
   35.8650    1.4550  -61.8770 C   0  0  0  0  0  0
   35.1273    0.1062  -61.6628 C   0  0  0  0  0  0
   35.8966   -0.9592  -62.1614 O   0  0  0  0  0  0
   33.8312    0.1140  -62.2444 O   0  0  0  0  0  0
   33.8308    0.2646  -63.6646 C   0  0  0  0  0  0
   33.6898   -1.1087  -64.3443 C   0  0  0  0  0  0
   33.8343   -2.1428  -63.4072 O   0  0  0  0  0  0
   35.0290    1.0858  -64.2291 C   0  0  0  0  0  0
   34.7001    1.6842  -65.4600 O   0  0  0  0  0  0
   35.4598    2.1410  -63.2031 C   0  0  0  0  0  0
   36.5372    2.8818  -63.7149 O   0  0  0  0  0  0
   36.5643    2.7675  -59.9091 N   0  0  0  0  0  0
   36.0547    3.6060  -59.0183 N   0  0  0  0  0  0
   34.1604    5.3695  -57.5488 N   0  0  0  0  0  0
   33.0272    5.9772  -57.1441 C   0  0  0  0  0  0
   32.9987    6.9679  -56.0454 C   0  0  0  0  0  0
   34.2063    7.4162  -55.4836 C   0  0  0  0  0  0
   34.1990    8.3595  -54.4515 C   0  0  0  0  0  0
   32.9881    8.8729  -53.9799 C   0  0  0  0  0  0
   32.9829    9.7884  -52.9799 F   0  0  0  0  0  0
   31.7830    8.4493  -54.5461 C   0  0  0  0  0  0
   31.7859    7.5066  -55.5786 C   0  0  0  0  0  0
   31.9677    5.5371  -57.9260 C   0  0  0  0  0  0
   30.5423    5.8948  -57.7641 C   0  0  0  0  0  0
   29.8951    5.6904  -56.5372 C   0  0  0  0  0  0
   28.5536    6.0541  -56.3991 C   0  0  0  0  0  0
   27.8843    6.6033  -57.4474 N   0  0  0  0  0  0
   28.4888    6.8147  -58.6468 C   0  0  0  0  0  0
   29.8295    6.4665  -58.8271 C   0  0  0  0  0  0
   35.3050   -1.7564  -62.1640 H   0  0  0  0  0  0
   33.0341   -2.1138  -62.8206 H   0  0  0  0  0  0
   35.1372    1.1597  -66.1810 H   0  0  0  0  0  0
   36.3906    3.8244  -63.4394 H   0  0  0  0  0  0
  1  2  1  0  0  0
  2  3  1  0  0  0
  3  4  1  0  0  0
  3 20  2  0  0  0
  4  5  2  0  0  0
  5  6  1  0  0  0
  6  7  1  0  0  0
  6 18  1  0  0  0
  7  8  1  0  0  0
  8  9  1  0  0  0
  8 10  1  0  0  0
  9 36  1  0  0  0
 10 11  1  0  0  0
 11 12  1  0  0  0
 11 14  1  0  0  0
 12 13  1  0  0  0
 13 37  1  0  0  0
 14 15  1  0  0  0
 14 16  1  0  0  0
 15 38  1  0  0  0
 16 17  1  0  0  0
 16  7  1  0  0  0
 17 39  1  0  0  0
 18 19  2  0  0  0
 19  4  1  0  0  0
 20 21  1  0  0  0
 21 22  1  0  0  0
 21 29  2  0  0  0
 22 23  2  0  0  0
 23 24  1  0  0  0
 24 25  2  0  0  0
 25 26  1  0  0  0
 25 27  1  0  0  0
 27 28  2  0  0  0
 28 22  1  0  0  0
 29 30  1  0  0  0
 29  2  1  0  0  0
 30 31  2  0  0  0
 31 32  1  0  0  0
 32 33  2  0  0  0
 33 34  1  0  0  0
 34 35  2  0  0  0
 35 30  1  0  0  0
M  END
>  <CHROM.0>
-73.05644505,-59.38998652,-61.53973902

>  <CHROM.1>
3.30318179,-68.17588419,-168.87123566,-10.27931484,69.34851820,-103.83080597
-97.84881834,7.12229214,120.20853755,33.33988133,4.04665059,-59.37836095
1.87172563,-0.08279510,0.84166233

>  <Energy>
150.2639548352728

>  <Genealogy>
Cn1c(-c2cn([C@H]3[C@H](O)O[C@H](CO)[C@@H](O)[C@@H]3O)nn2)nc(-c2ccc(F)cc2)c1-c1ccncc1 (3D coordinates assigned)
Cn1c(-c2cn([C@H]3[C@H](O)O[C@H](CO)[C@@H](O)[C@@H]3O)nn2)nc(-c2ccc(F)cc2)c1-c1ccncc1 (nonaromatic ring conformer: 150.2639548352728 kcal/mol)

>  <Name>
118707521

>  <RI>
1.63646e+07

>  <Rbt.Current_Directory>
/home/edward/Documentos/Virtual_Screening/rDock/N-terminal/3

>  <Rbt.Executable>
rbdock ($Id: //depot/dev/client3/rdock/2013.1/src/exe/rbdock.cxx#4 $)

>  <Rbt.Library>
libRbt.so (2013.1, Build901 2013/11/27)

>  <Rbt.Parameter_File>
/home/edward/anaconda3/envs/MD/share/rdock-2013.1-1/data/scripts/dock.prm

>  <Rbt.Receptor>
parameters.prm

>  <SCORE>
-23.944

>  <SCORE.INTER>
-28.0141

>  <SCORE.INTER.CONST>
1

>  <SCORE.INTER.POLAR>
-3.96475

>  <SCORE.INTER.REPUL>
0.0136654

>  <SCORE.INTER.ROT>
5

>  <SCORE.INTER.VDW>
-25.0022

>  <SCORE.INTER.norm>
-0.800402

>  <SCORE.INTRA>
4.08384

>  <SCORE.INTRA.DIHEDRAL>
6.99035

>  <SCORE.INTRA.DIHEDRAL.0>
21.5958

>  <SCORE.INTRA.POLAR>
-0.538185

>  <SCORE.INTRA.POLAR.0>
0

>  <SCORE.INTRA.REPUL>
0

>  <SCORE.INTRA.REPUL.0>
0

>  <SCORE.INTRA.VDW>
2.41849

>  <SCORE.INTRA.VDW.0>
-3.91732

>  <SCORE.INTRA.norm>
0.116681

>  <SCORE.RESTR>
0

>  <SCORE.RESTR.CAVITY>
0

>  <SCORE.RESTR.norm>
0

>  <SCORE.SYSTEM>
-0.0137687

>  <SCORE.SYSTEM.CONST>
0

>  <SCORE.SYSTEM.DIHEDRAL>
0.822512

>  <SCORE.SYSTEM.VDW>
-0.425025

>  <SCORE.SYSTEM.norm>
-0.00039339

>  <SCORE.heavy>
35

>  <SCORE.norm>
-0.684114

>  <SMILES>
Cn1c(-c2cn([C@H]3[C@H](O)O[C@H](CO)[C@@H](O)[C@@H]3O)nn2)nc(-c2ccc(F)cc2)c1-c1ccncc1

>  <UniqueID>
14

$$$$
91820057
  rDOCK(R)          3D
libRbt.so/2013.1/901 2013/11/27
 23 23  0  0  0  0  0  0  0  0999 V2000
   34.7575    9.3816  -55.5898 C   0  0  0  0  0  0
   33.9967    8.3449  -56.3499 C   0  0  0  0  0  0
   32.8375    8.0233  -55.9721 O   0  0  0  0  0  0
   34.6030    7.6984  -57.4781 N   0  0  0  0  0  0
   33.9512    6.6153  -58.2221 C   0  0  0  0  0  0
   34.4248    6.6319  -59.6904 C   0  0  0  0  0  0
   34.0294    7.8413  -60.2787 O   0  0  0  0  0  0
   33.8444    5.5592  -60.4153 O   0  0  0  0  0  0
   34.3147    4.3164  -59.9204 C   0  0  0  0  0  0
   33.8701    3.1894  -60.8634 C   0  0  0  0  0  0
   34.2639    3.4750  -62.1849 O   0  0  0  0  0  0
   35.9154    3.1326  -62.3364 S   0  0  0  0  0  0
   36.1733    1.7497  -61.8097 O   0  0  0  0  0  0
   36.3262    3.1891  -63.7815 O   0  0  0  0  0  0
   36.8251    4.2303  -61.4457 O   0  5  0  0  0  0
   33.8304    4.0861  -58.4652 C   0  0  0  0  0  0
   32.4360    3.9002  -58.3914 O   0  0  0  0  0  0
   34.2858    5.2564  -57.5702 C   0  0  0  0  0  0
   33.6689    5.1518  -56.3123 O   0  0  0  0  0  0
   35.5976    7.9294  -57.7037 H   0  0  0  0  0  0
   34.2671    7.7766  -61.2403 H   0  0  0  0  0  0
   32.1961    3.7278  -57.4448 H   0  0  0  0  0  0
   33.9442    4.2797  -55.9261 H   0  0  0  0  0  0
  1  2  1  0  0  0
  2  3  2  0  0  0
  2  4  1  0  0  0
  4  5  1  0  0  0
  4 20  1  0  0  0
  5  6  1  0  0  0
  6  7  1  0  0  0
  6  8  1  0  0  0
  7 21  1  0  0  0
  8  9  1  0  0  0
  9 10  1  0  0  0
  9 16  1  0  0  0
 10 11  1  0  0  0
 11 12  1  0  0  0
 12 13  2  0  0  0
 12 14  2  0  0  0
 12 15  1  0  0  0
 16 17  1  0  0  0
 16 18  1  0  0  0
 17 22  1  0  0  0
 18 19  1  0  0  0
 18  5  1  0  0  0
 19 23  1  0  0  0
M  END
>  <CHROM.0>
-177.37080202,-60.74163956,60.09715576

>  <CHROM.1>
150.78155016,-174.32074050,53.36087072,77.77386517,50.65277323,178.07445183
-177.88167289,34.53407618,5.19003679,-59.54519153,-2.05582166,-1.01709828
-2.67514223

>  <Energy>
28.829651890901875

>  <Genealogy>
CC(=O)N[C@H]1[C@H](O)O[C@H](COS(=O)(=O)[O-])[C@H](O)[C@@H]1O (chirality)
CC(=O)N[C@H]1[C@H](O)O[C@H](COS(=O)(=O)[O-])[C@H](O)[C@@H]1O (3D coordinates assigned)
CC(=O)N[C@H]1[C@H](O)O[C@H](COS(=O)(=O)[O-])[C@H](O)[C@@H]1O (nonaromatic ring conformer: 28.829651890901875 kcal/mol)

>  <Name>
91820057

>  <RI>
1.63646e+07

>  <Rbt.Current_Directory>
/home/edward/Documentos/Virtual_Screening/rDock/N-terminal/3

>  <Rbt.Executable>
rbdock ($Id: //depot/dev/client3/rdock/2013.1/src/exe/rbdock.cxx#4 $)

>  <Rbt.Library>
libRbt.so (2013.1, Build901 2013/11/27)

>  <Rbt.Parameter_File>
/home/edward/anaconda3/envs/MD/share/rdock-2013.1-1/data/scripts/dock.prm

>  <Rbt.Receptor>
parameters.prm

>  <SCORE>
-19.7265

>  <SCORE.INTER>
-18.6143

>  <SCORE.INTER.CONST>
1

>  <SCORE.INTER.POLAR>
-3.90539

>  <SCORE.INTER.REPUL>
0

>  <SCORE.INTER.ROT>
4

>  <SCORE.INTER.VDW>
-14.7359

>  <SCORE.INTER.norm>
-0.979698

>  <SCORE.INTRA>
0.0116874

>  <SCORE.INTRA.DIHEDRAL>
-0.567313

>  <SCORE.INTRA.DIHEDRAL.0>
3.49883

>  <SCORE.INTRA.POLAR>
0

>  <SCORE.INTRA.POLAR.0>
0

>  <SCORE.INTRA.REPUL>
0

>  <SCORE.INTRA.REPUL.0>
0

>  <SCORE.INTRA.VDW>
0.295344

>  <SCORE.INTRA.VDW.0>
-2.2891

>  <SCORE.INTRA.norm>
0.000615128

>  <SCORE.RESTR>
0

>  <SCORE.RESTR.CAVITY>
0

>  <SCORE.RESTR.norm>
0

>  <SCORE.SYSTEM>
-1.12395

>  <SCORE.SYSTEM.CONST>
0

>  <SCORE.SYSTEM.DIHEDRAL>
0.0368194

>  <SCORE.SYSTEM.REPUL>
0.0327791

>  <SCORE.SYSTEM.VDW>
-1.30625

>  <SCORE.SYSTEM.norm>
-0.0591552

>  <SCORE.heavy>
19

>  <SCORE.norm>
-1.03824

>  <SMILES>
CC(=O)N[C@H]1[C@H](O)O[C@H](COS(=O)(=O)[O-])[C@H](O)[C@@H]1O

>  <UniqueID>
16

$$$$
90659182
  rDOCK(R)          3D
libRbt.so/2013.1/901 2013/11/27
 22 22  0  0  0  0  0  0  0  0999 V2000
   29.5338    1.6281  -60.7016 C   0  0  0  0  0  0
   30.7971    2.0429  -60.0212 C   0  0  0  0  0  0
   30.9736    1.7537  -58.8067 O   0  0  0  0  0  0
   31.8114    2.7376  -60.7606 N   0  0  0  0  0  0
   33.1124    3.0976  -60.1809 C   0  0  0  0  0  0
   33.6806    4.3404  -60.8996 C   0  0  0  0  0  0
   34.7978    4.8596  -60.2194 O   0  0  0  0  0  0
   34.0066    4.0508  -62.2499 O   0  0  0  0  0  0
   35.0176    3.0581  -62.3503 C   0  0  0  0  0  0
   35.3820    2.9103  -63.8347 C   0  0  0  0  0  0
   36.7181    3.2728  -64.0520 O   0  0  0  0  0  0
   34.5306    1.7132  -61.7563 C   0  0  0  0  0  0
   35.5908    0.7555  -61.8145 O   0  0  0  0  0  0
   35.3925   -0.6294  -61.7791 C   0  0  0  0  0  0
   36.5655   -1.5399  -61.9070 C   0  0  0  0  0  0
   34.2416   -1.1156  -61.6078 O   0  0  0  0  0  0
   34.1016    1.9238  -60.2912 C   0  0  0  0  0  0
   33.5083    0.7576  -59.7788 O   0  0  0  0  0  0
   31.6508    2.8989  -61.7811 H   0  0  0  0  0  0
   35.1145    5.6428  -60.7409 H   0  0  0  0  0  0
   36.7888    4.2297  -63.7987 H   0  0  0  0  0  0
   34.2367    0.0995  -59.6303 H   0  0  0  0  0  0
  1  2  1  0  0  0
  2  3  2  0  0  0
  2  4  1  0  0  0
  4  5  1  0  0  0
  4 19  1  0  0  0
  5  6  1  0  0  0
  6  7  1  0  0  0
  6  8  1  0  0  0
  7 20  1  0  0  0
  8  9  1  0  0  0
  9 10  1  0  0  0
  9 12  1  0  0  0
 10 11  1  0  0  0
 11 21  1  0  0  0
 12 13  1  0  0  0
 12 17  1  0  0  0
 13 14  1  0  0  0
 14 15  1  0  0  0
 14 16  2  0  0  0
 17 18  1  0  0  0
 17  5  1  0  0  0
 18 22  1  0  0  0
M  END
>  <CHROM.0>
71.91820249,62.40958913,-179.03206524

>  <CHROM.1>
-153.23067846,179.26941705,116.78087687,-62.14411097,-158.38458463,177.30500430
-164.51719489,33.90641884,1.98968728,-61.28800183,3.05324342,0.53861837,-0.12800453

>  <Energy>
28.22515867784672

>  <Genealogy>
CC(=O)N[C@@H]1[C@@H](O)O[C@H](CO)[C@@H](OC(C)=O)[C@@H]1O (3D coordinates assigned)
CC(=O)N[C@@H]1[C@@H](O)O[C@H](CO)[C@@H](OC(C)=O)[C@@H]1O (nonaromatic ring conformer: 28.22515867784672 kcal/mol)

>  <Name>
90659182

>  <RI>
1.63646e+07

>  <Rbt.Current_Directory>
/home/edward/Documentos/Virtual_Screening/rDock/N-terminal/3

>  <Rbt.Executable>
rbdock ($Id: //depot/dev/client3/rdock/2013.1/src/exe/rbdock.cxx#4 $)

>  <Rbt.Library>
libRbt.so (2013.1, Build901 2013/11/27)

>  <Rbt.Parameter_File>
/home/edward/anaconda3/envs/MD/share/rdock-2013.1-1/data/scripts/dock.prm

>  <Rbt.Receptor>
parameters.prm

>  <SCORE>
-19.7143

>  <SCORE.INTER>
-21.0991

>  <SCORE.INTER.CONST>
1

>  <SCORE.INTER.POLAR>
-4.74558

>  <SCORE.INTER.REPUL>
0.051204

>  <SCORE.INTER.ROT>
4

>  <SCORE.INTER.VDW>
-14.6201

>  <SCORE.INTER.norm>
-1.17217

>  <SCORE.INTRA>
0.583211

>  <SCORE.INTRA.DIHEDRAL>
0.368681

>  <SCORE.INTRA.DIHEDRAL.0>
9.23562

>  <SCORE.INTRA.POLAR>
0

>  <SCORE.INTRA.POLAR.0>
0

>  <SCORE.INTRA.REPUL>
0

>  <SCORE.INTRA.REPUL.0>
0

>  <SCORE.INTRA.VDW>
0.39887

>  <SCORE.INTRA.VDW.0>
-2.84723

>  <SCORE.INTRA.norm>
0.0324006

>  <SCORE.RESTR>
0

>  <SCORE.RESTR.CAVITY>
0

>  <SCORE.RESTR.norm>
0

>  <SCORE.SYSTEM>
0.80158

>  <SCORE.SYSTEM.CONST>
0

>  <SCORE.SYSTEM.DIHEDRAL>
0.711739

>  <SCORE.SYSTEM.POLAR>
-0.019905

>  <SCORE.SYSTEM.REPUL>
0.145274

>  <SCORE.SYSTEM.VDW>
-0.212983

>  <SCORE.SYSTEM.norm>
0.0445322

>  <SCORE.heavy>
18

>  <SCORE.norm>
-1.09524

>  <SMILES>
CC(=O)N[C@@H]1[C@@H](O)O[C@H](CO)[C@@H](OC(C)=O)[C@@H]1O

>  <UniqueID>
19

$$$$
76325328
  rDOCK(R)          3D
libRbt.so/2013.1/901 2013/11/27
 39 43  0  0  0  0  0  0  0  0999 V2000
   30.3444   -2.5683  -62.7802 C   0  0  0  0  0  0
   31.0276   -3.5931  -63.5724 N   0  0  0  0  0  0
   32.3384   -3.6274  -63.9174 C   0  0  0  0  0  0
   33.3320   -2.5792  -63.6148 C   0  0  0  0  0  0
   33.0560   -1.2841  -63.2323 C   0  0  0  0  0  0
   34.2451   -0.6871  -63.0447 N   0  0  0  0  0  0
   34.4668    0.6930  -62.6027 C   0  0  0  0  0  0
   34.9916    0.7232  -61.1528 C   0  0  0  0  0  0
   36.1547   -0.0562  -61.0141 O   0  0  0  0  0  0
   35.2160    2.0577  -60.7218 O   0  0  0  0  0  0
   36.2057    2.7058  -61.5103 C   0  0  0  0  0  0
   36.4669    4.0942  -60.9070 C   0  0  0  0  0  0
   35.2548    4.7243  -60.5841 O   0  0  0  0  0  0
   35.7439    2.8237  -62.9840 C   0  0  0  0  0  0
   36.7531    3.4149  -63.7661 O   0  0  0  0  0  0
   35.4394    1.4277  -63.5444 C   0  0  0  0  0  0
   34.8670    1.5597  -64.8212 O   0  0  0  0  0  0
   35.2001   -1.5730  -63.2856 N   0  0  0  0  0  0
   34.6713   -2.7365  -63.6360 N   0  0  0  0  0  0
   32.6684   -4.7468  -64.5959 N   0  0  0  0  0  0
   31.5168   -5.4398  -64.6990 C   0  0  0  0  0  0
   31.4228   -6.7355  -65.4080 C   0  0  0  0  0  0
   30.2294   -7.4803  -65.4145 C   0  0  0  0  0  0
   30.1598   -8.6971  -66.1001 C   0  0  0  0  0  0
   31.2733   -9.1748  -66.7957 C   0  0  0  0  0  0
   31.2028  -10.3536  -67.4621 F   0  0  0  0  0  0
   32.4570   -8.4323  -66.8119 C   0  0  0  0  0  0
   32.5310   -7.2153  -66.1269 C   0  0  0  0  0  0
   30.4995   -4.7316  -64.0741 C   0  0  0  0  0  0
   29.0993   -5.1707  -63.8935 C   0  0  0  0  0  0
   28.5994   -5.4372  -62.6110 C   0  0  0  0  0  0
   27.2649   -5.8222  -62.4598 C   0  0  0  0  0  0
   26.4593   -5.9319  -63.5496 N   0  0  0  0  0  0
   26.9190   -5.6790  -64.8041 C   0  0  0  0  0  0
   28.2467   -5.2923  -65.0002 C   0  0  0  0  0  0
   35.9729   -0.9153  -61.4781 H   0  0  0  0  0  0
   34.9425    5.1811  -61.4096 H   0  0  0  0  0  0
   36.7766    4.3801  -63.5333 H   0  0  0  0  0  0
   35.4811    2.1275  -65.3560 H   0  0  0  0  0  0
  1  2  1  0  0  0
  2  3  1  0  0  0
  3  4  1  0  0  0
  3 20  2  0  0  0
  4  5  2  0  0  0
  5  6  1  0  0  0
  6  7  1  0  0  0
  6 18  1  0  0  0
  7  8  1  0  0  0
  8  9  1  0  0  0
  8 10  1  0  0  0
  9 36  1  0  0  0
 10 11  1  0  0  0
 11 12  1  0  0  0
 11 14  1  0  0  0
 12 13  1  0  0  0
 13 37  1  0  0  0
 14 15  1  0  0  0
 14 16  1  0  0  0
 15 38  1  0  0  0
 16 17  1  0  0  0
 16  7  1  0  0  0
 17 39  1  0  0  0
 18 19  2  0  0  0
 19  4  1  0  0  0
 20 21  1  0  0  0
 21 22  1  0  0  0
 21 29  2  0  0  0
 22 23  2  0  0  0
 23 24  1  0  0  0
 24 25  2  0  0  0
 25 26  1  0  0  0
 25 27  1  0  0  0
 27 28  2  0  0  0
 28 22  1  0  0  0
 29 30  1  0  0  0
 29  2  1  0  0  0
 30 31  2  0  0  0
 31 32  1  0  0  0
 32 33  2  0  0  0
 33 34  1  0  0  0
 34 35  2  0  0  0
 35 30  1  0  0  0
M  END
>  <CHROM.0>
-72.73945907,-58.76009556,64.34104654

>  <CHROM.1>
-16.54141598,107.89038238,-46.01947626,-44.65321384,-85.89336506,-73.23964266
173.52086177,175.31588708,-62.03714694,32.59154379,-2.71740040,-63.69601647
2.11824663,-0.32675593,-2.62381123

>  <Energy>
139.8458616407523

>  <Genealogy>
Cn1c(-c2cn([C@H]3[C@@H](O)O[C@H](CO)[C@@H](O)[C@@H]3O)nn2)nc(-c2ccc(F)cc2)c1-c1ccncc1 (chirality)
Cn1c(-c2cn([C@H]3[C@@H](O)O[C@H](CO)[C@@H](O)[C@@H]3O)nn2)nc(-c2ccc(F)cc2)c1-c1ccncc1 (3D coordinates assigned)
Cn1c(-c2cn([C@H]3[C@@H](O)O[C@H](CO)[C@@H](O)[C@@H]3O)nn2)nc(-c2ccc(F)cc2)c1-c1ccncc1 (nonaromatic ring conformer: 139.8458616407523 kcal/mol)

>  <Name>
76325328

>  <RI>
1.63646e+07

>  <Rbt.Current_Directory>
/home/edward/Documentos/Virtual_Screening/rDock/N-terminal/3

>  <Rbt.Executable>
rbdock ($Id: //depot/dev/client3/rdock/2013.1/src/exe/rbdock.cxx#4 $)

>  <Rbt.Library>
libRbt.so (2013.1, Build901 2013/11/27)

>  <Rbt.Parameter_File>
/home/edward/anaconda3/envs/MD/share/rdock-2013.1-1/data/scripts/dock.prm

>  <Rbt.Receptor>
parameters.prm

>  <SCORE>
-27.1939

>  <SCORE.INTER>
-24.8158

>  <SCORE.INTER.CONST>
1

>  <SCORE.INTER.POLAR>
-4.28514

>  <SCORE.INTER.REPUL>
0.0320034

>  <SCORE.INTER.ROT>
5

>  <SCORE.INTER.VDW>
-20.8063

>  <SCORE.INTER.norm>
-0.709022

>  <SCORE.INTRA>
-2.5001

>  <SCORE.INTRA.DIHEDRAL>
-3.55011

>  <SCORE.INTRA.DIHEDRAL.0>
23.3972

>  <SCORE.INTRA.POLAR>
-0.7741

>  <SCORE.INTRA.POLAR.0>
0

>  <SCORE.INTRA.REPUL>
0

>  <SCORE.INTRA.REPUL.0>
0

>  <SCORE.INTRA.VDW>
1.90689

>  <SCORE.INTRA.VDW.0>
-4.38763

>  <SCORE.INTRA.norm>
-0.0714314

>  <SCORE.RESTR>
0.242699

>  <SCORE.RESTR.CAVITY>
0.242699

>  <SCORE.RESTR.norm>
0.00693426

>  <SCORE.SYSTEM>
-0.120766

>  <SCORE.SYSTEM.CONST>
0

>  <SCORE.SYSTEM.DIHEDRAL>
0.871808

>  <SCORE.SYSTEM.VDW>
-0.556671

>  <SCORE.SYSTEM.norm>
-0.00345047

>  <SCORE.heavy>
35

>  <SCORE.norm>
-0.77697

>  <SMILES>
Cn1c(-c2cn([C@H]3[C@@H](O)O[C@H](CO)[C@@H](O)[C@@H]3O)nn2)nc(-c2ccc(F)cc2)c1-c1ccncc1

>  <UniqueID>
25

$$$$
57376616
  rDOCK(R)          3D
libRbt.so/2013.1/901 2013/11/27
 20 20  0  0  0  0  0  0  0  0999 V2000
   36.9510   -1.8050  -62.2644 C   0  0  0  0  0  0
   35.7738   -1.0226  -62.7472 C   0  0  0  0  0  0
   34.7959   -1.6254  -63.2671 O   0  0  0  0  0  0
   35.7738    0.4077  -62.6375 N   0  0  0  0  0  0
   34.6300    1.2351  -63.0463 C   0  0  0  0  0  0
   35.0577    2.7139  -63.1967 C   0  0  0  0  0  0
   36.1624    2.8049  -64.0571 O   0  0  0  0  0  0
   35.4224    3.2581  -61.9396 O   0  0  0  0  0  0
   34.2979    3.3184  -61.0771 C   0  0  0  0  0  0
   34.6832    4.1219  -59.8264 C   0  0  0  0  0  0
   35.3884    5.2830  -60.1776 O   0  0  0  0  0  0
   33.8094    1.8912  -60.7261 C   0  0  0  0  0  0
   34.7983    1.1911  -60.0108 O   0  0  0  0  0  0
   33.4752    1.1334  -62.0265 C   0  0  0  0  0  0
   33.1828   -0.2128  -61.7531 O   0  0  0  0  0  0
   36.6158    0.8687  -62.2230 H   0  0  0  0  0  0
   36.3759    3.7702  -64.1516 H   0  0  0  0  0  0
   34.8607    5.7396  -60.8833 H   0  0  0  0  0  0
   34.4732    0.2608  -59.8929 H   0  0  0  0  0  0
   32.9828   -0.6457  -62.6240 H   0  0  0  0  0  0
  1  2  1  0  0  0
  2  3  2  0  0  0
  2  4  1  0  0  0
  4  5  1  0  0  0
  4 16  1  0  0  0
  5  6  1  0  0  0
  6  7  1  0  0  0
  6  8  1  0  0  0
  7 17  1  0  0  0
  8  9  1  0  0  0
  9 10  1  0  0  0
  9 12  1  0  0  0
 10 11  1  0  0  0
 11 18  1  0  0  0
 12 13  1  0  0  0
 12 14  1  0  0  0
 13 19  1  0  0  0
 14 15  1  0  0  0
 14  5  1  0  0  0
 15 20  1  0  0  0
M  END
>  <CHROM.0>
-176.84385833,-61.25999522,61.36834438

>  <CHROM.1>
-163.72517470,177.73447719,44.81804385,49.94730212,-174.38464879,-56.12540458
34.96734308,1.53404784,-61.90685419,-1.44564252,0.95427760,0.25623224

>  <Energy>
25.630087028035952

>  <Genealogy>
CC(=O)N[C@@H]1[C@H](O)O[C@H](CO)[C@H](O)[C@@H]1O (chirality)
CC(=O)N[C@@H]1[C@H](O)O[C@H](CO)[C@H](O)[C@@H]1O (3D coordinates assigned)
CC(=O)N[C@@H]1[C@H](O)O[C@H](CO)[C@H](O)[C@@H]1O (nonaromatic ring conformer: 25.630087028035952 kcal/mol)

>  <Name>
57376616

>  <RI>
1.63646e+07

>  <Rbt.Current_Directory>
/home/edward/Documentos/Virtual_Screening/rDock/N-terminal/3

>  <Rbt.Executable>
rbdock ($Id: //depot/dev/client3/rdock/2013.1/src/exe/rbdock.cxx#4 $)

>  <Rbt.Library>
libRbt.so (2013.1, Build901 2013/11/27)

>  <Rbt.Parameter_File>
/home/edward/anaconda3/envs/MD/share/rdock-2013.1-1/data/scripts/dock.prm

>  <Rbt.Receptor>
parameters.prm

>  <SCORE>
-23.8567

>  <SCORE.INTER>
-18.769

>  <SCORE.INTER.CONST>
1

>  <SCORE.INTER.POLAR>
-3.83515

>  <SCORE.INTER.REPUL>
0.0655983

>  <SCORE.INTER.ROT>
2

>  <SCORE.INTER.VDW>
-13.4575

>  <SCORE.INTER.norm>
-1.25127

>  <SCORE.INTRA>
-3.95747

>  <SCORE.INTRA.DIHEDRAL>
-8.88258

>  <SCORE.INTRA.DIHEDRAL.0>
11.633

>  <SCORE.INTRA.POLAR>
-0.103298

>  <SCORE.INTRA.POLAR.0>
0

>  <SCORE.INTRA.REPUL>
0

>  <SCORE.INTRA.REPUL.0>
0

>  <SCORE.INTRA.VDW>
0.835037

>  <SCORE.INTRA.VDW.0>
-2.12311

>  <SCORE.INTRA.norm>
-0.263831

>  <SCORE.RESTR>
0

>  <SCORE.RESTR.CAVITY>
0

>  <SCORE.RESTR.norm>
0

>  <SCORE.SYSTEM>
-1.13024

>  <SCORE.SYSTEM.CONST>
0

>  <SCORE.SYSTEM.DIHEDRAL>
0.0661123

>  <SCORE.SYSTEM.REPUL>
0.0313196

>  <SCORE.SYSTEM.VDW>
-1.3199

>  <SCORE.SYSTEM.norm>
-0.0753494

>  <SCORE.heavy>
15

>  <SCORE.norm>
-1.59045

>  <SMILES>
CC(=O)N[C@@H]1[C@H](O)O[C@H](CO)[C@H](O)[C@@H]1O

>  <UniqueID>
31

$$$$
57339292
  rDOCK(R)          3D
libRbt.so/2013.1/901 2013/11/27
 26 26  0  0  0  0  0  0  0  0999 V2000
   36.6447    3.8673  -61.6250 N   0  3  0  0  0  0
   36.2679    2.5383  -62.1264 C   0  0  0  0  0  0
   35.3099    1.8282  -61.1417 C   0  0  0  0  0  0
   34.1692    2.6340  -60.8824 O   0  0  0  0  0  0
   33.4297    2.1528  -59.7686 C   0  0  0  0  0  0
   32.6340    3.3077  -59.1450 C   0  0  0  0  0  0
   33.5472    4.3808  -58.6389 C   0  0  0  0  0  0
   33.2162    5.0789  -57.6448 O   0  0  0  0  0  0
   34.7505    4.6317  -59.2859 O   0  5  0  0  0  0
   32.4802    1.0904  -60.2388 C   0  0  0  0  0  0
   32.5734   -0.0872  -59.8009 O   0  0  0  0  0  0
   31.5137    1.3933  -61.1896 O   0  5  0  0  0  0
   34.9412    0.5463  -61.6316 O   0  0  0  0  0  0
   34.2356    0.6357  -62.8607 C   0  0  0  0  0  0
   33.7690   -0.7742  -63.2518 C   0  0  0  0  0  0
   32.8972   -0.7141  -64.3485 O   0  0  0  0  0  0
   35.1311    1.2411  -63.9635 C   0  0  0  0  0  0
   34.3975    1.3568  -65.1566 O   0  0  0  0  0  0
   35.6249    2.6296  -63.5260 C   0  0  0  0  0  0
   36.5676    3.0953  -64.4588 O   0  0  0  0  0  0
   35.8396    4.2975  -61.1153 H   0  0  0  0  0  0
   36.8864    4.4941  -62.4265 H   0  0  0  0  0  0
   37.4647    3.8034  -60.9789 H   0  0  0  0  0  0
   32.6162   -1.6470  -64.5396 H   0  0  0  0  0  0
   35.0560    1.4773  -65.8896 H   0  0  0  0  0  0
   36.7885    4.0303  -64.2092 H   0  0  0  0  0  0
  1  2  1  0  0  0
  1 21  1  0  0  0
  1 22  1  0  0  0
  1 23  1  0  0  0
  2  3  1  0  0  0
  3  4  1  0  0  0
  3 13  1  0  0  0
  4  5  1  0  0  0
  5  6  1  0  0  0
  5 10  1  0  0  0
  6  7  1  0  0  0
  7  8  2  0  0  0
  7  9  1  0  0  0
 10 11  2  0  0  0
 10 12  1  0  0  0
 13 14  1  0  0  0
 14 15  1  0  0  0
 14 17  1  0  0  0
 15 16  1  0  0  0
 16 24  1  0  0  0
 17 18  1  0  0  0
 17 19  1  0  0  0
 18 25  1  0  0  0
 19 20  1  0  0  0
 19  2  1  0  0  0
 20 26  1  0  0  0
M  END
>  <CHROM.0>
-172.15864917,-61.61887284,178.53654833

>  <CHROM.1>
-34.89852902,-166.83478813,155.02066091,-61.81351403,118.28982419,-149.28570371
171.07493711,-178.75938100,-163.02739957,-65.96034255,34.21823303,2.04765334
-61.58670846,-1.80526746,-0.71434862,-2.25404243

>  <Energy>
32.317035947317414

>  <Genealogy>
[NH3+][C@H]1[C@@H](O[C@@H](CC(=O)[O-])C(=O)[O-])O[C@H](CO)[C@@H](O)[C@@H]1O (3D coordinates assigned)
[NH3+][C@H]1[C@@H](O[C@@H](CC(=O)[O-])C(=O)[O-])O[C@H](CO)[C@@H](O)[C@@H]1O (nonaromatic ring conformer: 32.317035947317414 kcal/mol)

>  <Name>
57339292

>  <RI>
1.63646e+07

>  <Rbt.Current_Directory>
/home/edward/Documentos/Virtual_Screening/rDock/N-terminal/3

>  <Rbt.Executable>
rbdock ($Id: //depot/dev/client3/rdock/2013.1/src/exe/rbdock.cxx#4 $)

>  <Rbt.Library>
libRbt.so (2013.1, Build901 2013/11/27)

>  <Rbt.Parameter_File>
/home/edward/anaconda3/envs/MD/share/rdock-2013.1-1/data/scripts/dock.prm

>  <Rbt.Receptor>
parameters.prm

>  <SCORE>
-22.3924

>  <SCORE.INTER>
-13.7886

>  <SCORE.INTER.CONST>
1

>  <SCORE.INTER.POLAR>
-3.42706

>  <SCORE.INTER.REPUL>
0.63608

>  <SCORE.INTER.ROT>
6

>  <SCORE.INTER.VDW>
-16.717

>  <SCORE.INTER.norm>
-0.689429

>  <SCORE.INTRA>
-7.61907

>  <SCORE.INTRA.DIHEDRAL>
-8.47238

>  <SCORE.INTRA.DIHEDRAL.0>
17.5668

>  <SCORE.INTRA.POLAR>
-1.49691

>  <SCORE.INTRA.POLAR.0>
0

>  <SCORE.INTRA.REPUL>
0

>  <SCORE.INTRA.REPUL.0>
0

>  <SCORE.INTRA.VDW>
1.70662

>  <SCORE.INTRA.VDW.0>
-4.19116

>  <SCORE.INTRA.norm>
-0.380953

>  <SCORE.RESTR>
0

>  <SCORE.RESTR.CAVITY>
0

>  <SCORE.RESTR.norm>
0

>  <SCORE.SYSTEM>
-0.984781

>  <SCORE.SYSTEM.CONST>
0

>  <SCORE.SYSTEM.DIHEDRAL>
0.322675

>  <SCORE.SYSTEM.REPUL>
0.0181081

>  <SCORE.SYSTEM.VDW>
-1.23666

>  <SCORE.SYSTEM.norm>
-0.0492391

>  <SCORE.heavy>
20

>  <SCORE.norm>
-1.11962

>  <SMILES>
[NH3+][C@H]1[C@@H](O[C@@H](CC(=O)[O-])C(=O)[O-])O[C@H](CO)[C@@H](O)[C@@H]1O

>  <UniqueID>
35

$$$$
57339290
  rDOCK(R)          3D
libRbt.so/2013.1/901 2013/11/27
 27 27  0  0  0  0  0  0  0  0999 V2000
   35.1946    5.5387  -59.7735 C   0  0  0  0  0  0
   34.8558    4.3656  -60.6336 C   0  0  0  0  0  0
   33.8902    4.4440  -61.4409 O   0  0  0  0  0  0
   35.6386    3.1672  -60.5495 N   0  0  0  0  0  0
   35.4150    2.0167  -61.4341 C   0  0  0  0  0  0
   34.1668    1.2316  -60.9837 C   0  0  0  0  0  0
   33.0431    2.0988  -60.9181 O   0  0  0  0  0  0
   31.9112    1.4477  -60.3687 C   0  0  0  0  0  0
   31.0940    2.4559  -59.5369 C   0  0  0  0  0  0
   30.7288    3.6718  -60.3347 C   0  0  0  0  0  0
   31.4999    4.6686  -60.3583 O   0  0  0  0  0  0
   29.5521    3.6932  -61.0715 O   0  5  0  0  0  0
   31.0890    0.9230  -61.5112 C   0  0  0  0  0  0
   30.6510    1.7081  -62.3928 O   0  0  0  0  0  0
   30.7977   -0.4307  -61.5951 O   0  5  0  0  0  0
   33.9248    0.1287  -61.8457 O   0  0  0  0  0  0
   33.6485    0.5447  -63.1741 C   0  0  0  0  0  0
   33.2917   -0.7049  -63.9897 C   0  0  0  0  0  0
   34.2749   -1.6909  -63.8323 O   0  0  0  0  0  0
   34.8680    1.2794  -63.7818 C   0  0  0  0  0  0
   34.5525    1.7339  -65.0735 O   0  0  0  0  0  0
   35.2482    2.4772  -62.8926 C   0  0  0  0  0  0
   36.4537    3.0438  -63.3366 O   0  0  0  0  0  0
   36.3943    3.1246  -59.8278 H   0  0  0  0  0  0
   35.1133   -1.3099  -64.2060 H   0  0  0  0  0  0
   35.3163    2.2823  -65.3833 H   0  0  0  0  0  0
   36.2170    3.8736  -63.8272 H   0  0  0  0  0  0
  1  2  1  0  0  0
  2  3  2  0  0  0
  2  4  1  0  0  0
  4  5  1  0  0  0
  4 24  1  0  0  0
  5  6  1  0  0  0
  6  7  1  0  0  0
  6 16  1  0  0  0
  7  8  1  0  0  0
  8  9  1  0  0  0
  8 13  1  0  0  0
  9 10  1  0  0  0
 10 11  2  0  0  0
 10 12  1  0  0  0
 13 14  2  0  0  0
 13 15  1  0  0  0
 16 17  1  0  0  0
 17 18  1  0  0  0
 17 20  1  0  0  0
 18 19  1  0  0  0
 19 25  1  0  0  0
 20 21  1  0  0  0
 20 22  1  0  0  0
 21 26  1  0  0  0
 22 23  1  0  0  0
 22  5  1  0  0  0
 23 27  1  0  0  0
M  END
>  <CHROM.0>
-159.98603268,-61.67514934,61.36322950

>  <CHROM.1>
-76.48483118,-173.58357953,145.29832417,54.51252367,-58.22172147,-89.69762440
-51.57813548,-63.12343047,173.73386924,-135.93481917,33.30787407,2.07397683
-61.82305436,-2.15280157,-0.31921866,-2.57066627

>  <Energy>
33.981450450683

>  <Genealogy>
CC(=O)N[C@H]1[C@@H](O[C@@H](CC(=O)[O-])C(=O)[O-])O[C@H](CO)[C@@H](O)[C@@H]1O (3D coordinates assigned)
CC(=O)N[C@H]1[C@@H](O[C@@H](CC(=O)[O-])C(=O)[O-])O[C@H](CO)[C@@H](O)[C@@H]1O (nonaromatic ring conformer: 33.981450450683 kcal/mol)

>  <Name>
57339290

>  <RI>
1.63646e+07

>  <Rbt.Current_Directory>
/home/edward/Documentos/Virtual_Screening/rDock/N-terminal/3

>  <Rbt.Executable>
rbdock ($Id: //depot/dev/client3/rdock/2013.1/src/exe/rbdock.cxx#4 $)

>  <Rbt.Library>
libRbt.so (2013.1, Build901 2013/11/27)

>  <Rbt.Parameter_File>
/home/edward/anaconda3/envs/MD/share/rdock-2013.1-1/data/scripts/dock.prm

>  <Rbt.Receptor>
parameters.prm

>  <SCORE>
-16.3178

>  <SCORE.INTER>
-15.4927

>  <SCORE.INTER.CONST>
1

>  <SCORE.INTER.POLAR>
-4.7579

>  <SCORE.INTER.REPUL>
0.440639

>  <SCORE.INTER.ROT>
7

>  <SCORE.INTER.VDW>
-13.9191

>  <SCORE.INTER.norm>
-0.673597

>  <SCORE.INTRA>
-0.414781

>  <SCORE.INTRA.DIHEDRAL>
-0.825231

>  <SCORE.INTRA.DIHEDRAL.0>
15.7105

>  <SCORE.INTRA.POLAR>
0

>  <SCORE.INTRA.POLAR.0>
0

>  <SCORE.INTRA.REPUL>
0

>  <SCORE.INTRA.REPUL.0>
0

>  <SCORE.INTRA.VDW>
-0.00216505

>  <SCORE.INTRA.VDW.0>
-3.89789

>  <SCORE.INTRA.norm>
-0.0180339

>  <SCORE.RESTR>
0

>  <SCORE.RESTR.CAVITY>
0

>  <SCORE.RESTR.norm>
0

>  <SCORE.SYSTEM>
-0.410299

>  <SCORE.SYSTEM.CONST>
0

>  <SCORE.SYSTEM.DIHEDRAL>
1.82529

>  <SCORE.SYSTEM.VDW>
-1.32294

>  <SCORE.SYSTEM.norm>
-0.0178391

>  <SCORE.heavy>
23

>  <SCORE.norm>
-0.70947

>  <SMILES>
CC(=O)N[C@H]1[C@@H](O[C@@H](CC(=O)[O-])C(=O)[O-])O[C@H](CO)[C@@H](O)[C@@H]1O

>  <UniqueID>
37

$$$$
54758653
  rDOCK(R)          3D
libRbt.so/2013.1/901 2013/11/27
 23 23  0  0  0  0  0  0  0  0999 V2000
   34.8339    8.9641  -55.2766 C   0  0  0  0  0  0
   35.1867    8.2299  -56.5288 C   0  0  0  0  0  0
   36.1689    8.6141  -57.2205 O   0  0  0  0  0  0
   34.3929    7.1111  -56.9490 N   0  0  0  0  0  0
   34.7208    6.3228  -58.1444 C   0  0  0  0  0  0
   33.8855    6.7788  -59.3793 C   0  0  0  0  0  0
   34.5694    7.7932  -60.0675 O   0  0  0  0  0  0
   33.5637    5.7144  -60.2702 O   0  0  0  0  0  0
   34.6581    4.8320  -60.4451 C   0  0  0  0  0  0
   34.3659    3.9112  -61.6346 C   0  0  0  0  0  0
   35.4526    3.0337  -61.8156 O   0  0  0  0  0  0
   35.2368    2.2127  -63.2938 P   0  0  0  0  0  0
   36.4930    1.4353  -63.6129 O   0  0  0  0  0  0
   33.9362    1.1361  -63.1793 O   0  5  0  0  0  0
   34.9433    3.3219  -64.5373 O   0  5  0  0  0  0
   34.9036    4.0113  -59.1458 C   0  0  0  0  0  0
   36.2650    3.6733  -59.0534 O   0  0  0  0  0  0
   34.4977    4.8184  -57.8908 C   0  0  0  0  0  0
   33.1434    4.5734  -57.5973 O   0  0  0  0  0  0
   33.5412    6.8827  -56.3882 H   0  0  0  0  0  0
   35.4537    7.4176  -60.3176 H   0  0  0  0  0  0
   36.5118    3.2276  -59.9051 H   0  0  0  0  0  0
   33.0943    3.6715  -57.1853 H   0  0  0  0  0  0
  1  2  1  0  0  0
  2  3  2  0  0  0
  2  4  1  0  0  0
  4  5  1  0  0  0
  4 20  1  0  0  0
  5  6  1  0  0  0
  6  7  1  0  0  0
  6  8  1  0  0  0
  7 21  1  0  0  0
  8  9  1  0  0  0
  9 10  1  0  0  0
  9 16  1  0  0  0
 10 11  1  0  0  0
 11 12  1  0  0  0
 12 13  2  0  0  0
 12 14  1  0  0  0
 12 15  1  0  0  0
 16 17  1  0  0  0
 16 18  1  0  0  0
 17 22  1  0  0  0
 18 19  1  0  0  0
 18  5  1  0  0  0
 19 23  1  0  0  0
M  END
>  <CHROM.0>
-81.14508016,-61.33842278,178.19225440

>  <CHROM.1>
-97.60370011,57.51534342,179.84312409,-170.16230678,171.01107035,-53.32521541
-163.55625501,34.83438989,4.86379499,-60.05311466,1.89735924,1.43425960,0.52915631

>  <Energy>
33.71299713468176

>  <Genealogy>
CC(=O)N[C@@H]1[C@@H](O)O[C@H](COP(=O)([O-])[O-])[C@@H](O)[C@@H]1O (chirality)
CC(=O)N[C@@H]1[C@@H](O)O[C@H](COP(=O)([O-])[O-])[C@@H](O)[C@@H]1O (3D coordinates assigned)
CC(=O)N[C@@H]1[C@@H](O)O[C@H](COP(=O)([O-])[O-])[C@@H](O)[C@@H]1O (nonaromatic ring conformer: 33.71299713468176 kcal/mol)

>  <Name>
54758653

>  <RI>
1.63646e+07

>  <Rbt.Current_Directory>
/home/edward/Documentos/Virtual_Screening/rDock/N-terminal/3

>  <Rbt.Executable>
rbdock ($Id: //depot/dev/client3/rdock/2013.1/src/exe/rbdock.cxx#4 $)

>  <Rbt.Library>
libRbt.so (2013.1, Build901 2013/11/27)

>  <Rbt.Parameter_File>
/home/edward/anaconda3/envs/MD/share/rdock-2013.1-1/data/scripts/dock.prm

>  <Rbt.Receptor>
parameters.prm

>  <SCORE>
-19.5052

>  <SCORE.INTER>
-17.1913

>  <SCORE.INTER.CONST>
1

>  <SCORE.INTER.POLAR>
-2.81676

>  <SCORE.INTER.REPUL>
0.000633486

>  <SCORE.INTER.ROT>
4

>  <SCORE.INTER.VDW>
-17.0174

>  <SCORE.INTER.norm>
-0.904803

>  <SCORE.INTRA>
-2.45478

>  <SCORE.INTRA.DIHEDRAL>
-1.89982

>  <SCORE.INTRA.DIHEDRAL.0>
5.26654

>  <SCORE.INTRA.POLAR>
-0.558675

>  <SCORE.INTRA.POLAR.0>
0

>  <SCORE.INTRA.REPUL>
0

>  <SCORE.INTRA.REPUL.0>
0

>  <SCORE.INTRA.VDW>
0.394625

>  <SCORE.INTRA.VDW.0>
-2.15157

>  <SCORE.INTRA.norm>
-0.129199

>  <SCORE.RESTR>
0

>  <SCORE.RESTR.CAVITY>
0

>  <SCORE.RESTR.norm>
0

>  <SCORE.SYSTEM>
0.140842

>  <SCORE.SYSTEM.CONST>
0

>  <SCORE.SYSTEM.DIHEDRAL>
2.015

>  <SCORE.SYSTEM.VDW>
-0.866657

>  <SCORE.SYSTEM.norm>
0.00741275

>  <SCORE.heavy>
19

>  <SCORE.norm>
-1.02659

>  <SMILES>
CC(=O)N[C@@H]1[C@@H](O)O[C@H](COP(=O)([O-])[O-])[C@@H](O)[C@@H]1O

>  <UniqueID>
41

$$$$
54758613
  rDOCK(R)          3D
libRbt.so/2013.1/901 2013/11/27
 23 23  0  0  0  0  0  0  0  0999 V2000
   31.1805    6.0766  -59.5075 H   0  0  0  0  0  0
   31.6828    5.4835  -60.1578 O   0  0  0  0  0  0
   32.8407    4.8136  -59.7732 C   0  0  0  0  0  0
   33.4621    4.0709  -60.6459 N   0  0  0  0  0  0
   34.6780    3.2809  -60.4183 C   0  0  0  0  0  0
   34.3381    1.7722  -60.4481 C   0  0  0  0  0  0
   35.4115    0.9918  -59.9874 O   0  0  0  0  0  0
   35.1040    0.0476  -59.9866 H   0  0  0  0  0  0
   33.9056    1.3325  -61.7287 O   0  0  0  0  0  0
   34.8335    1.5856  -62.7793 C   0  0  0  0  0  0
   35.9988    0.5738  -62.8032 C   0  0  0  0  0  0
   35.4821   -0.7272  -62.9591 O   0  0  0  0  0  0
   36.6687   -1.8421  -62.4883 S   0  0  0  0  0  0
   38.0403   -1.3191  -62.8142 O   0  0  0  0  0  0
   36.5682   -2.1171  -61.0136 O   0  0  0  0  0  0
   36.4224   -3.2765  -63.3260 O   0  5  0  0  0  0
   35.2627    3.0718  -62.8611 C   0  0  0  0  0  0
   36.2702    3.2389  -63.8262 O   0  0  0  0  0  0
   36.4986    4.2052  -63.8389 H   0  0  0  0  0  0
   35.7134    3.6261  -61.4958 C   0  0  0  0  0  0
   36.9695    3.1141  -61.1276 O   0  0  0  0  0  0
   37.2127    3.5337  -60.2614 H   0  0  0  0  0  0
   33.3412    5.0021  -58.3704 C   0  0  0  0  0  0
  1  2  1  0  0  0
  2  3  1  0  0  0
  3  4  2  0  0  0
  3 23  1  0  0  0
  4  5  1  0  0  0
  5  6  1  0  0  0
  6  7  1  0  0  0
  6  9  1  0  0  0
  7  8  1  0  0  0
  9 10  1  0  0  0
 10 11  1  0  0  0
 10 17  1  0  0  0
 11 12  1  0  0  0
 12 13  1  0  0  0
 13 14  2  0  0  0
 13 15  2  0  0  0
 13 16  1  0  0  0
 17 18  1  0  0  0
 17 20  1  0  0  0
 18 19  1  0  0  0
 20 21  1  0  0  0
 20  5  1  0  0  0
 21 22  1  0  0  0
M  END
>  <CHROM.0>
-165.88115982,-57.45778519,179.26765652

>  <CHROM.1>
-179.35776190,110.22457298,176.86994653,58.93387567,-161.86185920,-33.07559503
179.57679386,-59.88958007,35.28261737,1.44595797,-61.59784202,2.34722824
0.89913643,-0.28281299

>  <Energy>
38.073749055344344

>  <Genealogy>
CC(O)=N[C@H]1[C@H](O)O[C@H](COS(=O)(=O)[O-])[C@H](O)[C@@H]1O (tautomer)
C/C(O)=N/[C@H]1[C@H](O)O[C@H](COS(=O)(=O)[O-])[C@H](O)[C@@H]1O (cis-trans isomerization)
C/C(O)=N/[C@H]1[C@H](O)O[C@H](COS(=O)(=O)[O-])[C@H](O)[C@@H]1O (3D coordinates assigned)
C/C(O)=N/[C@H]1[C@H](O)O[C@H](COS(=O)(=O)[O-])[C@H](O)[C@@H]1O (nonaromatic ring conformer: 38.073749055344344 kcal/mol)

>  <Name>
54758613

>  <RI>
1.63646e+07

>  <Rbt.Current_Directory>
/home/edward/Documentos/Virtual_Screening/rDock/N-terminal/3

>  <Rbt.Executable>
rbdock ($Id: //depot/dev/client3/rdock/2013.1/src/exe/rbdock.cxx#4 $)

>  <Rbt.Library>
libRbt.so (2013.1, Build901 2013/11/27)

>  <Rbt.Parameter_File>
/home/edward/anaconda3/envs/MD/share/rdock-2013.1-1/data/scripts/dock.prm

>  <Rbt.Receptor>
parameters.prm

>  <SCORE>
-23.6337

>  <SCORE.INTER>
-21.7663

>  <SCORE.INTER.CONST>
1

>  <SCORE.INTER.POLAR>
-3.0577

>  <SCORE.INTER.REPUL>
0.0508379

>  <SCORE.INTER.ROT>
4

>  <SCORE.INTER.VDW>
-21.0243

>  <SCORE.INTER.norm>
-1.14559

>  <SCORE.INTRA>
-1.1404

>  <SCORE.INTRA.DIHEDRAL>
-3.65259

>  <SCORE.INTRA.DIHEDRAL.0>
6.43695

>  <SCORE.INTRA.POLAR>
0

>  <SCORE.INTRA.POLAR.0>
0

>  <SCORE.INTRA.REPUL>
0

>  <SCORE.INTRA.REPUL.0>
0

>  <SCORE.INTRA.VDW>
0.685891

>  <SCORE.INTRA.VDW.0>
-2.24798

>  <SCORE.INTRA.norm>
-0.0600212

>  <SCORE.RESTR>
0

>  <SCORE.RESTR.CAVITY>
0

>  <SCORE.RESTR.norm>
0

>  <SCORE.SYSTEM>
-0.727015

>  <SCORE.SYSTEM.CONST>
0

>  <SCORE.SYSTEM.DIHEDRAL>
0.974212

>  <SCORE.SYSTEM.VDW>
-1.21412

>  <SCORE.SYSTEM.norm>
-0.0382639

>  <SCORE.heavy>
19

>  <SCORE.norm>
-1.24388

>  <SMILES>
C/C(O)=N/[C@H]1[C@H](O)O[C@H](COS(=O)(=O)[O-])[C@H](O)[C@@H]1O

>  <UniqueID>
45

$$$$
52948856
  rDOCK(R)          3D
libRbt.so/2013.1/901 2013/11/27
 41 44  0  0  0  0  0  0  0  0999 V2000
   26.9593    2.4685  -63.5549 C   0  0  0  0  0  0
   28.3246    2.1894  -63.3431 O   0  0  0  0  0  0
   28.4959    0.7995  -63.1569 C   0  0  0  0  0  0
   29.9914    0.4587  -63.0899 C   0  0  0  0  0  0
   30.5175    1.0380  -61.9082 O   0  0  0  0  0  0
   31.9288    0.8982  -61.8618 C   0  0  0  0  0  0
   32.4279    1.6098  -60.7434 O   0  0  0  0  0  0
   32.1037    2.9882  -60.8155 C   0  0  0  0  0  0
   32.1367    3.6827  -59.4419 C   0  0  0  0  0  0
   31.1644    3.0740  -58.4639 C   0  0  0  0  0  0
   31.4558    1.8464  -57.8465 C   0  0  0  0  0  0
   30.5556    1.2853  -56.9352 C   0  0  0  0  0  0
   29.3626    1.9468  -56.6308 C   0  0  0  0  0  0
   29.0677    3.1708  -57.2365 C   0  0  0  0  0  0
   29.9613    3.7318  -58.1535 C   0  0  0  0  0  0
   32.2944   -0.6021  -61.7103 C   0  0  0  0  0  0
   33.7608   -0.7844  -61.5456 N   0  3  0  0  0  0
   34.5636    0.0099  -62.4991 C   0  0  0  0  0  0
   36.0823   -0.0682  -62.2180 C   0  0  0  0  0  0
   36.6418   -1.4960  -62.2998 C   0  0  0  0  0  0
   38.1004   -1.4928  -62.3307 N   0  0  0  0  0  0
   31.7332   -1.3772  -62.9376 C   0  0  0  0  0  0
   32.4137   -0.9639  -64.1182 O   0  0  0  0  0  0
   33.2390   -1.9867  -64.6463 C   0  0  0  0  0  0
   32.4049   -3.1544  -65.0985 C   0  0  0  0  0  0
   31.6835   -3.0912  -66.3005 C   0  0  0  0  0  0
   30.8576   -4.1497  -66.6869 C   0  0  0  0  0  0
   30.7388   -5.2853  -65.8730 C   0  0  0  0  0  0
   29.8954   -6.3449  -66.2410 C   0  0  0  0  0  0
   29.7786   -7.4672  -65.4160 C   0  0  0  0  0  0
   30.5019   -7.5412  -64.2225 C   0  0  0  0  0  0
   31.3471   -6.4939  -63.8457 C   0  0  0  0  0  0
   31.4712   -5.3601  -64.6634 C   0  0  0  0  0  0
   32.3044   -4.2963  -64.2885 C   0  0  0  0  0  0
   30.2251   -1.0724  -63.0773 C   0  0  0  0  0  0
   29.7221   -1.6491  -64.2551 O   0  0  0  0  0  0
   34.0173   -1.7883  -61.6637 H   0  0  0  0  0  0
   34.0423   -0.5336  -60.5724 H   0  0  0  0  0  0
   38.4209   -2.4877  -62.3540 H   0  0  0  0  0  0
   38.4472   -1.0893  -61.4302 H   0  0  0  0  0  0
   29.8594   -2.6291  -64.1750 H   0  0  0  0  0  0
  1  2  1  0  0  0
  2  3  1  0  0  0
  3  4  1  0  0  0
  4  5  1  0  0  0
  5  6  1  0  0  0
  6  7  1  0  0  0
  6 16  1  0  0  0
  7  8  1  0  0  0
  8  9  1  0  0  0
  9 10  1  0  0  0
 10 11  2  0  0  0
 11 12  1  0  0  0
 12 13  2  0  0  0
 13 14  1  0  0  0
 14 15  2  0  0  0
 15 10  1  0  0  0
 16 17  1  0  0  0
 16 22  1  0  0  0
 17 18  1  0  0  0
 17 37  1  0  0  0
 17 38  1  0  0  0
 18 19  1  0  0  0
 19 20  1  0  0  0
 20 21  1  0  0  0
 21 39  1  0  0  0
 21 40  1  0  0  0
 22 23  1  0  0  0
 22 35  1  0  0  0
 23 24  1  0  0  0
 24 25  1  0  0  0
 25 26  2  0  0  0
 26 27  1  0  0  0
 27 28  2  0  0  0
 28 29  1  0  0  0
 29 30  2  0  0  0
 30 31  1  0  0  0
 31 32  2  0  0  0
 32 33  1  0  0  0
 33 34  2  0  0  0
 33 28  1  0  0  0
 34 25  1  0  0  0
 35 36  1  0  0  0
 35  4  1  0  0  0
 36 41  1  0  0  0
M  END
>  <CHROM.0>
72.39836102,-64.44793518,-55.21357565

>  <CHROM.1>
173.36934171,66.78838798,-59.57760123,158.22920358,-59.91162419,76.16858892
-45.56005054,173.71391536,60.16487083,167.11236739,178.14514115,111.27325519
64.51830475,76.38682148,-177.41736005,31.54173143,-0.84804388,-62.42850806
1.63979034,-0.13318397,0.67805997

>  <Energy>
79.65555230917285

>  <Genealogy>
COC[C@H]1OC(OCCc2ccccc2)[C@H]([NH2+]CCCN)C(OCc2ccc3ccccc3c2)[C@@H]1O (protonated)
COC[C@H]1O[C@@H](OCCc2ccccc2)[C@H]([NH2+]CCCN)[C@H](OCc2ccc3ccccc3c2)[C@@H]1O (chirality)
COC[C@H]1O[C@@H](OCCc2ccccc2)[C@H]([NH2+]CCCN)[C@H](OCc2ccc3ccccc3c2)[C@@H]1O (3D coordinates assigned)
COC[C@H]1O[C@@H](OCCc2ccccc2)[C@H]([NH2+]CCCN)[C@H](OCc2ccc3ccccc3c2)[C@@H]1O (nonaromatic ring conformer: 79.65555230917285 kcal/mol)

>  <Name>
52948856

>  <RI>
1.63646e+07

>  <Rbt.Current_Directory>
/home/edward/Documentos/Virtual_Screening/rDock/N-terminal/3

>  <Rbt.Executable>
rbdock ($Id: //depot/dev/client3/rdock/2013.1/src/exe/rbdock.cxx#4 $)

>  <Rbt.Library>
libRbt.so (2013.1, Build901 2013/11/27)

>  <Rbt.Parameter_File>
/home/edward/anaconda3/envs/MD/share/rdock-2013.1-1/data/scripts/dock.prm

>  <Rbt.Receptor>
parameters.prm

>  <SCORE>
-16.4472

>  <SCORE.INTER>
-17.4151

>  <SCORE.INTER.CONST>
1

>  <SCORE.INTER.POLAR>
-4.26877

>  <SCORE.INTER.REPUL>
0.206769

>  <SCORE.INTER.ROT>
14

>  <SCORE.INTER.VDW>
-23.3351

>  <SCORE.INTER.norm>
-0.483752

>  <SCORE.INTRA>
0.78159

>  <SCORE.INTRA.DIHEDRAL>
-9.06482

>  <SCORE.INTRA.DIHEDRAL.0>
21.2296

>  <SCORE.INTRA.POLAR>
0.0745141

>  <SCORE.INTRA.POLAR.0>
-0.0745141

>  <SCORE.INTRA.REPUL>
-0.0161771

>  <SCORE.INTRA.REPUL.0>
0.0161771

>  <SCORE.INTRA.VDW>
5.14154

>  <SCORE.INTRA.VDW.0>
-8.04157

>  <SCORE.INTRA.norm>
0.0217108

>  <SCORE.RESTR>
0

>  <SCORE.RESTR.CAVITY>
0

>  <SCORE.RESTR.norm>
0

>  <SCORE.SYSTEM>
0.186291

>  <SCORE.SYSTEM.CONST>
0

>  <SCORE.SYSTEM.DIHEDRAL>
0.941961

>  <SCORE.SYSTEM.POLAR>
-0.018308

>  <SCORE.SYSTEM.REPUL>
0.00656827

>  <SCORE.SYSTEM.VDW>
-0.255283

>  <SCORE.SYSTEM.norm>
0.00517476

>  <SCORE.heavy>
36

>  <SCORE.norm>
-0.456866

>  <SMILES>
COC[C@H]1O[C@@H](OCCc2ccccc2)[C@H]([NH2+]CCCN)[C@H](OCc2ccc3ccccc3c2)[C@@H]1O

>  <UniqueID>
48

$$$$
52944904
  rDOCK(R)          3D
libRbt.so/2013.1/901 2013/11/27
 41 44  0  0  0  0  0  0  0  0999 V2000
   28.6133   -0.1622  -59.4134 C   0  0  0  0  0  0
   29.7378    0.1789  -60.1918 O   0  0  0  0  0  0
   30.4399   -0.9853  -60.5973 C   0  0  0  0  0  0
   31.6001   -0.6188  -61.5375 C   0  0  0  0  0  0
   32.6428   -0.0533  -60.7637 O   0  0  0  0  0  0
   33.6676    0.4610  -61.5947 C   0  0  0  0  0  0
   34.6320    1.0806  -60.7619 O   0  0  0  0  0  0
   34.1294    2.2783  -60.2097 C   0  0  0  0  0  0
   35.2884    3.0681  -59.6074 C   0  0  0  0  0  0
   34.8001    4.3550  -58.9979 C   0  0  0  0  0  0
   34.3146    5.3900  -59.8150 C   0  0  0  0  0  0
   33.8863    6.5943  -59.2466 C   0  0  0  0  0  0
   33.9488    6.7766  -57.8621 C   0  0  0  0  0  0
   34.4447    5.7573  -57.0441 C   0  0  0  0  0  0
   34.8734    4.5511  -57.6086 C   0  0  0  0  0  0
   34.3581   -0.6925  -62.3682 C   0  0  0  0  0  0
   35.4675   -0.1784  -63.2210 N   0  3  0  0  0  0
   35.1136    1.0642  -63.9358 C   0  0  0  0  0  0
   35.6959    2.3106  -63.2418 C   0  0  0  0  0  0
   35.1619    3.5364  -63.8359 N   0  3  0  0  0  0
   33.3027   -1.4502  -63.2129 C   0  0  0  0  0  0
   33.8962   -2.6317  -63.7378 O   0  0  0  0  0  0
   33.3135   -3.0314  -64.9657 C   0  0  0  0  0  0
   34.0197   -4.2376  -65.5209 C   0  0  0  0  0  0
   35.4038   -4.2111  -65.7527 C   0  0  0  0  0  0
   36.0531   -5.3280  -66.2856 C   0  0  0  0  0  0
   35.3261   -6.4862  -66.5977 C   0  0  0  0  0  0
   35.9681   -7.6160  -67.1296 C   0  0  0  0  0  0
   35.2294   -8.7620  -67.4389 C   0  0  0  0  0  0
   33.8503   -8.7898  -67.2208 C   0  0  0  0  0  0
   33.1993   -7.6723  -66.6903 C   0  0  0  0  0  0
   33.9286   -6.5160  -66.3742 C   0  0  0  0  0  0
   33.2853   -5.3904  -65.8389 C   0  0  0  0  0  0
   32.1153   -1.8517  -62.3180 C   0  0  0  0  0  0
   31.0866   -2.3715  -63.1221 O   0  0  0  0  0  0
   36.3331   -0.0002  -62.6630 H   0  0  0  0  0  0
   35.7403   -0.8972  -63.9324 H   0  0  0  0  0  0
   35.1134    3.4177  -64.8737 H   0  0  0  0  0  0
   34.1996    3.7239  -63.4691 H   0  0  0  0  0  0
   35.7907    4.3441  -63.6176 H   0  0  0  0  0  0
   30.3678   -2.6877  -62.5146 H   0  0  0  0  0  0
  1  2  1  0  0  0
  2  3  1  0  0  0
  3  4  1  0  0  0
  4  5  1  0  0  0
  5  6  1  0  0  0
  6  7  1  0  0  0
  6 16  1  0  0  0
  7  8  1  0  0  0
  8  9  1  0  0  0
  9 10  1  0  0  0
 10 11  2  0  0  0
 11 12  1  0  0  0
 12 13  2  0  0  0
 13 14  1  0  0  0
 14 15  2  0  0  0
 15 10  1  0  0  0
 16 17  1  0  0  0
 16 21  1  0  0  0
 17 18  1  0  0  0
 17 36  1  0  0  0
 17 37  1  0  0  0
 18 19  1  0  0  0
 19 20  1  0  0  0
 20 38  1  0  0  0
 20 39  1  0  0  0
 20 40  1  0  0  0
 21 22  1  0  0  0
 21 34  1  0  0  0
 22 23  1  0  0  0
 23 24  1  0  0  0
 24 25  2  0  0  0
 25 26  1  0  0  0
 26 27  2  0  0  0
 27 28  1  0  0  0
 28 29  2  0  0  0
 29 30  1  0  0  0
 30 31  2  0  0  0
 31 32  1  0  0  0
 32 33  2  0  0  0
 32 27  1  0  0  0
 33 24  1  0  0  0
 34 35  1  0  0  0
 34  4  1  0  0  0
 35 41  1  0  0  0
M  END
>  <CHROM.0>
75.68972200,65.64638878,-60.15384975

>  <CHROM.1>
175.50392923,74.91092772,-71.01825588,-166.54749685,-179.71624124,-68.84503309
-42.75241057,100.63746791,-170.96255811,-40.45188935,-151.29260306,176.88601131
-56.25018538,-63.76496584,33.74208719,-0.81735882,-62.63599296,1.61318527
0.48599958,0.56460908

>  <Energy>
84.5942877099844

>  <Genealogy>
COC[C@H]1OC(OCCc2ccccc2)[C@H]([NH2+]CC[NH3+])C(OCc2ccc3ccccc3c2)[C@@H]1O (protonated)
COC[C@H]1O[C@@H](OCCc2ccccc2)[C@H]([NH2+]CC[NH3+])[C@@H](OCc2ccc3ccccc3c2)[C@@H]1O (chirality)
COC[C@H]1O[C@@H](OCCc2ccccc2)[C@H]([NH2+]CC[NH3+])[C@@H](OCc2ccc3ccccc3c2)[C@@H]1O (3D coordinates assigned)
COC[C@H]1O[C@@H](OCCc2ccccc2)[C@H]([NH2+]CC[NH3+])[C@@H](OCc2ccc3ccccc3c2)[C@@H]1O (nonaromatic ring conformer: 84.5942877099844 kcal/mol)

>  <Name>
52944904

>  <RI>
1.63646e+07

>  <Rbt.Current_Directory>
/home/edward/Documentos/Virtual_Screening/rDock/N-terminal/3

>  <Rbt.Executable>
rbdock ($Id: //depot/dev/client3/rdock/2013.1/src/exe/rbdock.cxx#4 $)

>  <Rbt.Library>
libRbt.so (2013.1, Build901 2013/11/27)

>  <Rbt.Parameter_File>
/home/edward/anaconda3/envs/MD/share/rdock-2013.1-1/data/scripts/dock.prm

>  <Rbt.Receptor>
parameters.prm

>  <SCORE>
-28.8134

>  <SCORE.INTER>
-23.2563

>  <SCORE.INTER.CONST>
1

>  <SCORE.INTER.POLAR>
-4.13872

>  <SCORE.INTER.REPUL>
0.00109304

>  <SCORE.INTER.ROT>
12

>  <SCORE.INTER.VDW>
-26.5901

>  <SCORE.INTER.norm>
-0.664465

>  <SCORE.INTRA>
-6.50951

>  <SCORE.INTRA.DIHEDRAL>
-21.4389

>  <SCORE.INTRA.DIHEDRAL.0>
33.2339

>  <SCORE.INTRA.POLAR>
0

>  <SCORE.INTRA.POLAR.0>
0

>  <SCORE.INTRA.REPUL>
0

>  <SCORE.INTRA.REPUL.0>
0

>  <SCORE.INTRA.VDW>
4.20995

>  <SCORE.INTRA.VDW.0>
-4.61458

>  <SCORE.INTRA.norm>
-0.185986

>  <SCORE.RESTR>
0

>  <SCORE.RESTR.CAVITY>
0

>  <SCORE.RESTR.norm>
0

>  <SCORE.SYSTEM>
0.952387

>  <SCORE.SYSTEM.CONST>
0

>  <SCORE.SYSTEM.DIHEDRAL>
1.30429

>  <SCORE.SYSTEM.POLAR>
-0.00836832

>  <SCORE.SYSTEM.REPUL>
0.156207

>  <SCORE.SYSTEM.VDW>
-0.45234

>  <SCORE.SYSTEM.norm>
0.0272111

>  <SCORE.heavy>
35

>  <SCORE.norm>
-0.82324

>  <SMILES>
COC[C@H]1O[C@@H](OCCc2ccccc2)[C@H]([NH2+]CC[NH3+])[C@@H](OCc2ccc3ccccc3c2)[C@@H]1O

>  <UniqueID>
51

$$$$
52944903
  rDOCK(R)          3D
libRbt.so/2013.1/901 2013/11/27
 39 42  0  0  0  0  0  0  0  0999 V2000
   28.4040   -1.9430  -58.5105 C   0  0  0  0  0  0
   29.1520   -1.2631  -59.4928 O   0  0  0  0  0  0
   30.0999   -2.1473  -60.0559 C   0  0  0  0  0  0
   30.8195   -1.4677  -61.2290 C   0  0  0  0  0  0
   31.6754   -0.4672  -60.7109 O   0  0  0  0  0  0
   32.2249    0.3155  -61.7559 C   0  0  0  0  0  0
   32.9829    1.3546  -61.1648 O   0  0  0  0  0  0
   32.1594    2.2484  -60.4416 C   0  0  0  0  0  0
   32.9335    3.4932  -60.1007 C   0  0  0  0  0  0
   34.3357    3.4545  -60.0651 C   0  0  0  0  0  0
   35.0711    4.6148  -59.8129 C   0  0  0  0  0  0
   34.4128    5.8343  -59.6013 C   0  0  0  0  0  0
   35.1418    7.0087  -59.3577 C   0  0  0  0  0  0
   34.4736    8.2192  -59.1527 C   0  0  0  0  0  0
   33.0774    8.2672  -59.1896 C   0  0  0  0  0  0
   32.3395    7.1049  -59.4317 C   0  0  0  0  0  0
   32.9979    5.8826  -59.6387 C   0  0  0  0  0  0
   32.2682    4.7108  -59.8888 C   0  0  0  0  0  0
   33.1592   -0.5480  -62.6509 C   0  0  0  0  0  0
   33.7441    0.2615  -63.7556 N   0  3  0  0  0  0
   35.1146    0.7152  -63.4580 C   0  0  0  0  0  0
   35.1243    2.1952  -63.0561 C   0  0  0  0  0  0
   36.1105    2.9251  -63.8458 N   0  0  0  0  0  0
   32.3549   -1.7546  -63.2116 C   0  0  0  0  0  0
   33.2506   -2.6688  -63.8335 O   0  0  0  0  0  0
   32.7411   -3.1808  -65.0535 C   0  0  0  0  0  0
   33.6616   -4.2245  -65.6233 C   0  0  0  0  0  0
   35.0457   -3.9911  -65.6699 C   0  0  0  0  0  0
   35.9084   -4.9736  -66.1655 C   0  0  0  0  0  0
   35.3961   -6.1941  -66.6141 C   0  0  0  0  0  0
   34.0201   -6.4347  -66.5673 C   0  0  0  0  0  0
   33.1538   -5.4551  -66.0724 C   0  0  0  0  0  0
   31.6341   -2.4820  -62.0591 C   0  0  0  0  0  0
   30.7696   -3.4595  -62.5806 O   0  0  0  0  0  0
   33.8007   -0.3031  -64.6323 H   0  0  0  0  0  0
   33.1370    1.0894  -63.9636 H   0  0  0  0  0  0
   36.0838    3.9253  -63.5422 H   0  0  0  0  0  0
   35.8042    2.9102  -64.8458 H   0  0  0  0  0  0
   30.4033   -3.9673  -61.8109 H   0  0  0  0  0  0
  1  2  1  0  0  0
  2  3  1  0  0  0
  3  4  1  0  0  0
  4  5  1  0  0  0
  5  6  1  0  0  0
  6  7  1  0  0  0
  6 19  1  0  0  0
  7  8  1  0  0  0
  8  9  1  0  0  0
  9 10  2  0  0  0
 10 11  1  0  0  0
 11 12  2  0  0  0
 12 13  1  0  0  0
 13 14  2  0  0  0
 14 15  1  0  0  0
 15 16  2  0  0  0
 16 17  1  0  0  0
 17 18  2  0  0  0
 17 12  1  0  0  0
 18  9  1  0  0  0
 19 20  1  0  0  0
 19 24  1  0  0  0
 20 21  1  0  0  0
 20 35  1  0  0  0
 20 36  1  0  0  0
 21 22  1  0  0  0
 22 23  1  0  0  0
 23 37  1  0  0  0
 23 38  1  0  0  0
 24 25  1  0  0  0
 24 33  1  0  0  0
 25 26  1  0  0  0
 26 27  1  0  0  0
 27 28  2  0  0  0
 28 29  1  0  0  0
 29 30  2  0  0  0
 30 31  1  0  0  0
 31 32  2  0  0  0
 32 27  1  0  0  0
 33 34  1  0  0  0
 33  4  1  0  0  0
 34 39  1  0  0  0
M  END
>  <CHROM.0>
-179.52074717,-58.27402979,-58.27856492

>  <CHROM.1>
173.96827822,70.94844149,-65.64775298,-167.01176996,-22.38449840,98.89777740
-103.15280913,-128.85734597,179.94464908,-138.19980786,-175.38188965,-45.76687952
-65.49914340,33.05256735,0.38482920,-62.05900158,1.59388605,-0.66125500,-2.65838373

>  <Energy>
77.75381224744022

>  <Genealogy>
COC[C@H]1OC(OCc2ccc3ccccc3c2)[C@H]([NH2+]CCN)C(OCc2ccccc2)[C@@H]1O (protonated)
COC[C@H]1O[C@@H](OCc2ccc3ccccc3c2)[C@H]([NH2+]CCN)[C@@H](OCc2ccccc2)[C@@H]1O (chirality)
COC[C@H]1O[C@@H](OCc2ccc3ccccc3c2)[C@H]([NH2+]CCN)[C@@H](OCc2ccccc2)[C@@H]1O (3D coordinates assigned)
COC[C@H]1O[C@@H](OCc2ccc3ccccc3c2)[C@H]([NH2+]CCN)[C@@H](OCc2ccccc2)[C@@H]1O (nonaromatic ring conformer: 77.75381224744022 kcal/mol)

>  <Name>
52944903

>  <RI>
1.63646e+07

>  <Rbt.Current_Directory>
/home/edward/Documentos/Virtual_Screening/rDock/N-terminal/3

>  <Rbt.Executable>
rbdock ($Id: //depot/dev/client3/rdock/2013.1/src/exe/rbdock.cxx#4 $)

>  <Rbt.Library>
libRbt.so (2013.1, Build901 2013/11/27)

>  <Rbt.Parameter_File>
/home/edward/anaconda3/envs/MD/share/rdock-2013.1-1/data/scripts/dock.prm

>  <Rbt.Receptor>
parameters.prm

>  <SCORE>
-20.7233

>  <SCORE.INTER>
-20.7752

>  <SCORE.INTER.CONST>
1

>  <SCORE.INTER.POLAR>
-4.11926

>  <SCORE.INTER.REPUL>
0

>  <SCORE.INTER.ROT>
12

>  <SCORE.INTER.VDW>
-24.1697

>  <SCORE.INTER.norm>
-0.611035

>  <SCORE.INTRA>
0.983857

>  <SCORE.INTRA.DIHEDRAL>
-6.54841

>  <SCORE.INTRA.DIHEDRAL.0>
26.0321

>  <SCORE.INTRA.POLAR>
0

>  <SCORE.INTRA.POLAR.0>
0

>  <SCORE.INTRA.REPUL>
0

>  <SCORE.INTRA.REPUL.0>
0

>  <SCORE.INTRA.VDW>
4.25806

>  <SCORE.INTRA.VDW.0>
-6.20243

>  <SCORE.INTRA.norm>
0.028937

>  <SCORE.RESTR>
0

>  <SCORE.RESTR.CAVITY>
0

>  <SCORE.RESTR.norm>
0

>  <SCORE.SYSTEM>
-0.931995

>  <SCORE.SYSTEM.CONST>
0

>  <SCORE.SYSTEM.DIHEDRAL>
0.0304376

>  <SCORE.SYSTEM.REPUL>
0.0386718

>  <SCORE.SYSTEM.VDW>
-1.14057

>  <SCORE.SYSTEM.norm>
-0.0274116

>  <SCORE.heavy>
34

>  <SCORE.norm>
-0.609509

>  <SMILES>
COC[C@H]1O[C@@H](OCc2ccc3ccccc3c2)[C@H]([NH2+]CCN)[C@@H](OCc2ccccc2)[C@@H]1O

>  <UniqueID>
54

$$$$
51351654
  rDOCK(R)          3D
libRbt.so/2013.1/901 2013/11/27
 21 21  0  0  0  0  0  0  0  0999 V2000
   32.9069   -2.9288  -64.8016 O   0  0  0  0  0  0
   32.8297   -1.7517  -63.8712 S   0  0  0  0  0  0
   32.2523   -2.1984  -62.5575 O   0  0  0  0  0  0
   31.8364   -0.5778  -64.5482 O   0  5  0  0  0  0
   34.4273   -1.1128  -63.6213 N   0  0  0  0  0  0
   34.3812    0.2790  -63.1259 C   0  0  0  0  0  0
   34.7503    0.2911  -61.6317 C   0  0  0  0  0  0
   33.8304   -0.5009  -60.9301 O   0  0  0  0  0  0
   34.6951    1.6129  -61.1228 O   0  0  0  0  0  0
   35.6963    2.4202  -61.7197 C   0  0  0  0  0  0
   35.7007    3.7864  -61.0177 C   0  0  0  0  0  0
   34.4182    4.3530  -61.0411 O   0  0  0  0  0  0
   35.4222    2.5837  -63.2319 C   0  0  0  0  0  0
   36.4510    3.3415  -63.8174 O   0  0  0  0  0  0
   35.3558    1.1965  -63.8992 C   0  0  0  0  0  0
   34.9178    1.3254  -65.2274 O   0  0  0  0  0  0
   34.9374   -1.1821  -64.5319 H   0  0  0  0  0  0
   34.1108   -0.4793  -59.9780 H   0  0  0  0  0  0
   34.3939    4.9693  -61.8192 H   0  0  0  0  0  0
   36.3066    4.2850  -63.5447 H   0  0  0  0  0  0
   35.5523    1.9371  -65.6842 H   0  0  0  0  0  0
  1  2  2  0  0  0
  2  3  2  0  0  0
  2  4  1  0  0  0
  2  5  1  0  0  0
  5  6  1  0  0  0
  5 17  1  0  0  0
  6  7  1  0  0  0
  7  8  1  0  0  0
  7  9  1  0  0  0
  8 18  1  0  0  0
  9 10  1  0  0  0
 10 11  1  0  0  0
 10 13  1  0  0  0
 11 12  1  0  0  0
 12 19  1  0  0  0
 13 14  1  0  0  0
 13 15  1  0  0  0
 14 20  1  0  0  0
 15 16  1  0  0  0
 15  6  1  0  0  0
 16 21  1  0  0  0
M  END
>  <CHROM.0>
-172.38209160,-58.38390432,-57.69376481

>  <CHROM.1>
160.12586953,106.08712506,179.08400475,-54.27667192,-96.00536048,-74.55514503
178.58493494,34.23071214,0.58067714,-62.96907466,-2.57131352,1.02396626,1.27157183

>  <Energy>
24.290237107415418

>  <Genealogy>
O=S(=O)([O-])N[C@H]1[C@H](O)O[C@H](CO)[C@@H](O)[C@@H]1O (chirality)
O=S(=O)([O-])N[C@H]1[C@H](O)O[C@H](CO)[C@@H](O)[C@@H]1O (3D coordinates assigned)
O=S(=O)([O-])N[C@H]1[C@H](O)O[C@H](CO)[C@@H](O)[C@@H]1O (nonaromatic ring conformer: 24.290237107415418 kcal/mol)

>  <Name>
51351654

>  <RI>
1.63646e+07

>  <Rbt.Current_Directory>
/home/edward/Documentos/Virtual_Screening/rDock/N-terminal/3

>  <Rbt.Executable>
rbdock ($Id: //depot/dev/client3/rdock/2013.1/src/exe/rbdock.cxx#4 $)

>  <Rbt.Library>
libRbt.so (2013.1, Build901 2013/11/27)

>  <Rbt.Parameter_File>
/home/edward/anaconda3/envs/MD/share/rdock-2013.1-1/data/scripts/dock.prm

>  <Rbt.Receptor>
parameters.prm

>  <SCORE>
-27.6242

>  <SCORE.INTER>
-26.7462

>  <SCORE.INTER.CONST>
1

>  <SCORE.INTER.POLAR>
-6.05536

>  <SCORE.INTER.REPUL>
0

>  <SCORE.INTER.ROT>
3

>  <SCORE.INTER.VDW>
-14.558

>  <SCORE.INTER.norm>
-1.67164

>  <SCORE.INTRA>
0.00160246

>  <SCORE.INTRA.DIHEDRAL>
-0.46639

>  <SCORE.INTRA.DIHEDRAL.0>
9.08038

>  <SCORE.INTRA.POLAR>
0

>  <SCORE.INTRA.POLAR.0>
0

>  <SCORE.INTRA.REPUL>
0

>  <SCORE.INTRA.REPUL.0>
0

>  <SCORE.INTRA.VDW>
0.234797

>  <SCORE.INTRA.VDW.0>
-1.98689

>  <SCORE.INTRA.norm>
0.000100154

>  <SCORE.RESTR>
0

>  <SCORE.RESTR.CAVITY>
0

>  <SCORE.RESTR.norm>
0

>  <SCORE.SYSTEM>
-0.879607

>  <SCORE.SYSTEM.CONST>
0

>  <SCORE.SYSTEM.DIHEDRAL>
0.321698

>  <SCORE.SYSTEM.REPUL>
0.0187469

>  <SCORE.SYSTEM.VDW>
-1.13419

>  <SCORE.SYSTEM.norm>
-0.0549755

>  <SCORE.heavy>
16

>  <SCORE.norm>
-1.72651

>  <SMILES>
O=S(=O)([O-])N[C@H]1[C@H](O)O[C@H](CO)[C@@H](O)[C@@H]1O

>  <UniqueID>
55

$$$$
49859685
  rDOCK(R)          3D
libRbt.so/2013.1/901 2013/11/27
 23 23  0  0  0  0  0  0  0  0999 V2000
   32.4024   -1.1663  -64.4488 C   0  0  0  0  0  0
   33.3879   -0.9335  -63.3507 C   0  0  0  0  0  0
   33.8736   -1.9181  -62.7307 O   0  0  0  0  0  0
   33.8007    0.4027  -63.0323 N   0  0  0  0  0  0
   34.7495    0.6955  -61.9490 C   0  0  0  0  0  0
   36.1478    1.0305  -62.5183 C   0  0  0  0  0  0
   36.5681   -0.0325  -63.3553 O   0  0  0  0  0  0
   37.0720   -1.3746  -62.4241 P   0  0  0  0  0  0
   36.3986   -1.3599  -61.0703 O   0  0  0  0  0  0
   36.6487   -2.7960  -63.2357 O   0  5  0  0  0  0
   38.7512   -1.3356  -62.2207 O   0  5  0  0  0  0
   36.0943    2.2052  -63.3137 O   0  0  0  0  0  0
   35.7182    3.3599  -62.5727 C   0  0  0  0  0  0
   36.8580    3.8544  -61.6537 C   0  0  0  0  0  0
   37.2443    2.8355  -60.7723 O   0  0  0  0  0  0
   34.3372    3.1842  -61.8801 C   0  0  0  0  0  0
   34.0424    4.2711  -61.0406 O   0  0  0  0  0  0
   34.2394    1.8650  -61.0902 C   0  0  0  0  0  0
   34.9856    1.9306  -59.9006 O   0  0  0  0  0  0
   33.4211    1.1851  -63.6129 H   0  0  0  0  0  0
   36.4649    2.6718  -60.1799 H   0  0  0  0  0  0
   34.6907    4.2370  -60.2892 H   0  0  0  0  0  0
   34.9297    1.0375  -59.4708 H   0  0  0  0  0  0
  1  2  1  0  0  0
  2  3  2  0  0  0
  2  4  1  0  0  0
  4  5  1  0  0  0
  4 20  1  0  0  0
  5  6  1  0  0  0
  6  7  1  0  0  0
  6 12  1  0  0  0
  7  8  1  0  0  0
  8  9  2  0  0  0
  8 10  1  0  0  0
  8 11  1  0  0  0
 12 13  1  0  0  0
 13 14  1  0  0  0
 13 16  1  0  0  0
 14 15  1  0  0  0
 15 21  1  0  0  0
 16 17  1  0  0  0
 16 18  1  0  0  0
 17 22  1  0  0  0
 18 19  1  0  0  0
 18  5  1  0  0  0
 19 23  1  0  0  0
M  END
>  <CHROM.0>
-73.36912758,-177.23402134,-61.05463678

>  <CHROM.1>
103.92824258,-75.69060512,25.32527912,-57.74882150,-65.55508176,-67.27322360
-54.65599621,35.57067231,0.63620318,-62.21949074,1.45186841,0.24481337,-2.82126941

>  <Energy>
33.819782301335124

>  <Genealogy>
CC(=O)N[C@H]1[C@@H](OP(=O)([O-])[O-])O[C@H](CO)[C@H](O)[C@@H]1O (3D coordinates assigned)
CC(=O)N[C@H]1[C@@H](OP(=O)([O-])[O-])O[C@H](CO)[C@H](O)[C@@H]1O (nonaromatic ring conformer: 33.819782301335124 kcal/mol)

>  <Name>
49859685

>  <RI>
1.63646e+07

>  <Rbt.Current_Directory>
/home/edward/Documentos/Virtual_Screening/rDock/N-terminal/3

>  <Rbt.Executable>
rbdock ($Id: //depot/dev/client3/rdock/2013.1/src/exe/rbdock.cxx#4 $)

>  <Rbt.Library>
libRbt.so (2013.1, Build901 2013/11/27)

>  <Rbt.Parameter_File>
/home/edward/anaconda3/envs/MD/share/rdock-2013.1-1/data/scripts/dock.prm

>  <Rbt.Receptor>
parameters.prm

>  <SCORE>
-21.7841

>  <SCORE.INTER>
-16.3383

>  <SCORE.INTER.CONST>
1

>  <SCORE.INTER.POLAR>
-2.16518

>  <SCORE.INTER.REPUL>
0.09178

>  <SCORE.INTER.ROT>
4

>  <SCORE.INTER.VDW>
-18.8356

>  <SCORE.INTER.norm>
-0.859912

>  <SCORE.INTRA>
-6.01207

>  <SCORE.INTRA.DIHEDRAL>
-6.82792

>  <SCORE.INTRA.DIHEDRAL.0>
11.5405

>  <SCORE.INTRA.POLAR>
-1.02735

>  <SCORE.INTRA.POLAR.0>
0

>  <SCORE.INTRA.REPUL>
0

>  <SCORE.INTRA.REPUL.0>
0

>  <SCORE.INTRA.VDW>
0.894893

>  <SCORE.INTRA.VDW.0>
-2.95611

>  <SCORE.INTRA.norm>
-0.316425

>  <SCORE.RESTR>
0

>  <SCORE.RESTR.CAVITY>
0

>  <SCORE.RESTR.norm>
0

>  <SCORE.SYSTEM>
0.5663

>  <SCORE.SYSTEM.CONST>
0

>  <SCORE.SYSTEM.DIHEDRAL>
0.889758

>  <SCORE.SYSTEM.REPUL>
0.0537588

>  <SCORE.SYSTEM.VDW>
-0.147373

>  <SCORE.SYSTEM.norm>
0.0298052

>  <SCORE.heavy>
19

>  <SCORE.norm>
-1.14653

>  <SMILES>
CC(=O)N[C@H]1[C@@H](OP(=O)([O-])[O-])O[C@H](CO)[C@H](O)[C@@H]1O

>  <UniqueID>
59

$$$$
49802606
  rDOCK(R)          3D
libRbt.so/2013.1/901 2013/11/27
 23 23  0  0  0  0  0  0  0  0999 V2000
   36.7666    4.3104  -63.7408 H   0  0  0  0  0  0
   36.5590    3.3390  -63.5513 O   0  0  0  0  0  0
   36.4126    2.8168  -62.2622 C   0  0  0  0  0  0
   36.0353    1.5880  -62.0499 N   0  0  0  0  0  0
   35.6852    0.5949  -63.0702 C   0  0  0  0  0  0
   35.7178   -0.8083  -62.4457 C   0  0  0  0  0  0
   37.0081   -1.0525  -61.9538 O   0  0  0  0  0  0
   37.6081   -1.0915  -62.7439 H   0  0  0  0  0  0
   34.7931   -0.9120  -61.3758 O   0  0  0  0  0  0
   33.4443   -0.7441  -61.7930 C   0  0  0  0  0  0
   32.8494   -2.0306  -62.4121 C   0  0  0  0  0  0
   33.5712   -2.4639  -63.5291 O   0  0  0  0  0  0
   33.5218   -1.7280  -64.1932 H   0  0  0  0  0  0
   33.1989    0.5773  -62.5769 C   0  0  0  0  0  0
   31.9197    0.5708  -63.1589 O   0  0  0  0  0  0
   31.7989    1.4529  -63.5987 H   0  0  0  0  0  0
   34.2797    0.8729  -63.6380 C   0  0  0  0  0  0
   34.0585    0.1043  -64.7924 O   0  0  0  0  0  0
   34.7737    0.3423  -65.4388 H   0  0  0  0  0  0
   36.7154    3.6906  -61.0870 C   0  0  0  0  0  0
   38.0483    4.0567  -61.1147 F   0  0  0  0  0  0
   35.9329    4.8307  -61.1220 F   0  0  0  0  0  0
   36.4553    3.0027  -59.9158 F   0  0  0  0  0  0
  1  2  1  0  0  0
  2  3  1  0  0  0
  3  4  2  0  0  0
  3 20  1  0  0  0
  4  5  1  0  0  0
  5  6  1  0  0  0
  6  7  1  0  0  0
  6  9  1  0  0  0
  7  8  1  0  0  0
  9 10  1  0  0  0
 10 11  1  0  0  0
 10 14  1  0  0  0
 11 12  1  0  0  0
 12 13  1  0  0  0
 14 15  1  0  0  0
 14 17  1  0  0  0
 15 16  1  0  0  0
 17 18  1  0  0  0
 17  5  1  0  0  0
 18 19  1  0  0  0
 20 21  1  0  0  0
 20 22  1  0  0  0
 20 23  1  0  0  0
M  END
>  <CHROM.0>
-176.85838792,65.57758174,-64.32338636

>  <CHROM.1>
174.11813508,-62.52208899,162.82594098,-66.23569449,-59.21331634,-60.65942348
176.81681702,-58.04115439,35.20491658,1.09345848,-62.30169227,0.90004476
-0.53273312,-0.04672413

>  <Energy>
33.87946587463664

>  <Genealogy>
OC[C@H]1OC(O)[C@H](N=C(O)C(F)(F)F)[C@@H](O)[C@H]1O (tautomer)
OC[C@H]1O[C@H](O)[C@H](N=C(O)C(F)(F)F)[C@@H](O)[C@H]1O (chirality)
OC[C@H]1O[C@H](O)[C@H](/N=C(/O)C(F)(F)F)[C@@H](O)[C@H]1O (cis-trans isomerization)
OC[C@H]1O[C@H](O)[C@H](/N=C(/O)C(F)(F)F)[C@@H](O)[C@H]1O (3D coordinates assigned)
OC[C@H]1O[C@H](O)[C@H](/N=C(/O)C(F)(F)F)[C@@H](O)[C@H]1O (nonaromatic ring conformer: 33.87946587463664 kcal/mol)

>  <Name>
49802606

>  <RI>
1.63646e+07

>  <Rbt.Current_Directory>
/home/edward/Documentos/Virtual_Screening/rDock/N-terminal/3

>  <Rbt.Executable>
rbdock ($Id: //depot/dev/client3/rdock/2013.1/src/exe/rbdock.cxx#4 $)

>  <Rbt.Library>
libRbt.so (2013.1, Build901 2013/11/27)

>  <Rbt.Parameter_File>
/home/edward/anaconda3/envs/MD/share/rdock-2013.1-1/data/scripts/dock.prm

>  <Rbt.Receptor>
parameters.prm

>  <SCORE>
-22.1805

>  <SCORE.INTER>
-14.5831

>  <SCORE.INTER.CONST>
1

>  <SCORE.INTER.POLAR>
-2.90461

>  <SCORE.INTER.REPUL>
0.30441

>  <SCORE.INTER.ROT>
3

>  <SCORE.INTER.VDW>
-14.6295

>  <SCORE.INTER.norm>
-0.810175

>  <SCORE.INTRA>
-7.45444

>  <SCORE.INTRA.DIHEDRAL>
-3.11698

>  <SCORE.INTRA.DIHEDRAL.0>
6.91047

>  <SCORE.INTRA.POLAR>
-0.999849

>  <SCORE.INTRA.POLAR.0>
0

>  <SCORE.INTRA.REPUL>
-0.54645

>  <SCORE.INTRA.REPUL.0>
0.54645

>  <SCORE.INTRA.VDW>
0.235782

>  <SCORE.INTRA.VDW.0>
-2.41077

>  <SCORE.INTRA.norm>
-0.414136

>  <SCORE.RESTR>
0

>  <SCORE.RESTR.CAVITY>
0

>  <SCORE.RESTR.norm>
0

>  <SCORE.SYSTEM>
-0.142953

>  <SCORE.SYSTEM.CONST>
0

>  <SCORE.SYSTEM.DIHEDRAL>
0.292873

>  <SCORE.SYSTEM.REPUL>
0.171468

>  <SCORE.SYSTEM.VDW>
-1.14673

>  <SCORE.SYSTEM.norm>
-0.00794181

>  <SCORE.heavy>
18

>  <SCORE.norm>
-1.23225

>  <SMILES>
OC[C@H]1O[C@H](O)[C@H](/N=C(/O)C(F)(F)F)[C@@H](O)[C@H]1O

>  <UniqueID>
63

$$$$
46174147
  rDOCK(R)          3D
libRbt.so/2013.1/901 2013/11/27
 24 24  0  0  0  0  0  0  0  0999 V2000
   33.1943   -2.0755  -65.3146 H   0  0  0  0  0  0
   33.9273   -1.4500  -65.0024 O   0  0  0  0  0  0
   33.7097   -0.5129  -63.9955 C   0  0  0  0  0  0
   34.7092    0.2340  -63.6221 N   0  0  0  0  0  0
   34.6981    1.2844  -62.5981 C   0  0  0  0  0  0
   35.0006    0.6717  -61.2144 C   0  0  0  0  0  0
   36.2352   -0.0579  -61.2070 O   0  0  0  0  0  0
   36.4680   -1.2141  -61.9605 C   0  0  0  0  0  0
   35.5231   -1.8033  -62.5518 O   0  0  0  0  0  0
   37.7904   -1.7365  -62.0503 N   0  0  0  0  0  0
   37.9828   -2.5999  -62.6051 H   0  0  0  0  0  0
   38.5781   -1.2561  -61.5620 H   0  0  0  0  0  0
   35.0156    1.6797  -60.2168 O   0  0  0  0  0  0
   36.0528    2.6251  -60.4366 C   0  0  0  0  0  0
   36.0574    3.5987  -59.2493 C   0  0  0  0  0  0
   34.7835    4.1513  -59.0614 O   0  0  0  0  0  0
   34.1634    3.3839  -58.9548 H   0  0  0  0  0  0
   35.8387    3.3728  -61.7758 C   0  0  0  0  0  0
   36.9133    4.2482  -62.0083 O   0  0  0  0  0  0
   36.7295    4.7119  -62.8666 H   0  0  0  0  0  0
   35.7447    2.3593  -62.9311 C   0  0  0  0  0  0
   35.3797    3.0187  -64.1162 O   0  0  0  0  0  0
   35.9817    3.8025  -64.2101 H   0  0  0  0  0  0
   32.3493   -0.4170  -63.3593 C   0  0  0  0  0  0
  1  2  1  0  0  0
  2  3  1  0  0  0
  3  4  2  0  0  0
  3 24  1  0  0  0
  4  5  1  0  0  0
  5  6  1  0  0  0
  6  7  1  0  0  0
  6 13  1  0  0  0
  7  8  1  0  0  0
  8  9  2  0  0  0
  8 10  1  0  0  0
 10 11  1  0  0  0
 10 12  1  0  0  0
 13 14  1  0  0  0
 14 15  1  0  0  0
 14 18  1  0  0  0
 15 16  1  0  0  0
 16 17  1  0  0  0
 18 19  1  0  0  0
 18 21  1  0  0  0
 19 20  1  0  0  0
 21 22  1  0  0  0
 21  5  1  0  0  0
 22 23  1  0  0  0
M  END
>  <CHROM.0>
-171.94706921,-61.46002485,60.44578829

>  <CHROM.1>
178.23785016,88.01042682,-64.31694782,-10.68445128,-53.62086515,55.72650047
-179.31142548,170.12258152,35.35442154,1.13263845,-62.08077730,1.89199566
0.92252292,-2.82184650

>  <Energy>
30.51555603113612

>  <Genealogy>
CC(O)=N[C@H]1[C@@H](OC(N)=O)O[C@H](CO)[C@@H](O)[C@@H]1O (tautomer)
C/C(O)=N\[C@H]1[C@@H](OC(N)=O)O[C@H](CO)[C@@H](O)[C@@H]1O (cis-trans isomerization)
C/C(O)=N\[C@H]1[C@@H](OC(N)=O)O[C@H](CO)[C@@H](O)[C@@H]1O (3D coordinates assigned)
C/C(O)=N\[C@H]1[C@@H](OC(N)=O)O[C@H](CO)[C@@H](O)[C@@H]1O (nonaromatic ring conformer: 30.51555603113612 kcal/mol)

>  <Name>
46174147

>  <RI>
1.63646e+07

>  <Rbt.Current_Directory>
/home/edward/Documentos/Virtual_Screening/rDock/N-terminal/3

>  <Rbt.Executable>
rbdock ($Id: //depot/dev/client3/rdock/2013.1/src/exe/rbdock.cxx#4 $)

>  <Rbt.Library>
libRbt.so (2013.1, Build901 2013/11/27)

>  <Rbt.Parameter_File>
/home/edward/anaconda3/envs/MD/share/rdock-2013.1-1/data/scripts/dock.prm

>  <Rbt.Receptor>
parameters.prm

>  <SCORE>
-20.6614

>  <SCORE.INTER>
-19.0224

>  <SCORE.INTER.CONST>
1

>  <SCORE.INTER.POLAR>
-3.03412

>  <SCORE.INTER.REPUL>
0.0916249

>  <SCORE.INTER.ROT>
4

>  <SCORE.INTER.VDW>
-18.5645

>  <SCORE.INTER.norm>
-1.0568

>  <SCORE.INTRA>
-0.577458

>  <SCORE.INTRA.DIHEDRAL>
-6.47022

>  <SCORE.INTRA.DIHEDRAL.0>
9.4156

>  <SCORE.INTRA.POLAR>
-0.0798917

>  <SCORE.INTRA.POLAR.0>
0

>  <SCORE.INTRA.REPUL>
0

>  <SCORE.INTRA.REPUL.0>
0

>  <SCORE.INTRA.VDW>
2.92928

>  <SCORE.INTRA.VDW.0>
-2.34652

>  <SCORE.INTRA.norm>
-0.032081

>  <SCORE.RESTR>
0

>  <SCORE.RESTR.CAVITY>
0

>  <SCORE.RESTR.norm>
0

>  <SCORE.SYSTEM>
-1.06151

>  <SCORE.SYSTEM.CONST>
0

>  <SCORE.SYSTEM.DIHEDRAL>
0.326802

>  <SCORE.SYSTEM.REPUL>
0.0175025

>  <SCORE.SYSTEM.VDW>
-1.31242

>  <SCORE.SYSTEM.norm>
-0.0589728

>  <SCORE.heavy>
18

>  <SCORE.norm>
-1.14785

>  <SMILES>
C/C(O)=N\[C@H]1[C@@H](OC(N)=O)O[C@H](CO)[C@@H](O)[C@@H]1O

>  <UniqueID>
64

$$$$
45934204
  rDOCK(R)          3D
libRbt.so/2013.1/901 2013/11/27
 24 24  0  0  0  0  0  0  0  0999 V2000
   32.8621    6.5319  -60.4838 H   0  0  0  0  0  0
   33.4832    5.7334  -60.4353 O   0  0  0  0  0  0
   34.2540    5.4841  -59.2999 C   0  0  0  0  0  0
   35.0194    4.4361  -59.2344 N   0  0  0  0  0  0
   35.1305    3.4195  -60.2834 C   0  0  0  0  0  0
   36.4872    2.7071  -60.1500 C   0  0  0  0  0  0
   37.5128    3.6500  -60.3076 O   0  0  0  0  0  0
   38.3623    3.1761  -60.1097 H   0  0  0  0  0  0
   36.6196    1.7173  -61.1547 O   0  0  0  0  0  0
   35.6760    0.6780  -60.9588 C   0  0  0  0  0  0
   35.9850   -0.4352  -61.9703 C   0  0  0  0  0  0
   35.8646    0.0449  -63.2810 O   0  0  0  0  0  0
   36.0718   -0.7222  -63.8755 H   0  0  0  0  0  0
   34.2376    1.2232  -61.1387 C   0  0  0  0  0  0
   33.3095    0.1958  -60.8999 O   0  0  0  0  0  0
   33.5253   -0.1902  -60.0112 H   0  0  0  0  0  0
   33.9898    2.3891  -60.1565 C   0  0  0  0  0  0
   32.7574    3.0225  -60.4718 O   0  0  0  0  0  0
   31.6398    2.2598  -60.0456 C   0  0  0  0  0  0
   31.4936    2.3497  -58.5518 C   0  0  0  0  0  0
   31.5531    1.3133  -57.8380 O   0  0  0  0  0  0
   31.2541    3.5798  -57.9529 O   0  5  0  0  0  0
   30.3873    2.7978  -60.7364 C   0  0  0  0  0  0
   34.2349    6.4499  -58.1595 C   0  0  0  0  0  0
  1  2  1  0  0  0
  2  3  1  0  0  0
  3  4  2  0  0  0
  3 24  1  0  0  0
  4  5  1  0  0  0
  5  6  1  0  0  0
  6  7  1  0  0  0
  6  9  1  0  0  0
  7  8  1  0  0  0
  9 10  1  0  0  0
 10 11  1  0  0  0
 10 14  1  0  0  0
 11 12  1  0  0  0
 12 13  1  0  0  0
 14 15  1  0  0  0
 14 17  1  0  0  0
 15 16  1  0  0  0
 17 18  1  0  0  0
 17  5  1  0  0  0
 18 19  1  0  0  0
 19 20  1  0  0  0
 19 23  1  0  0  0
 20 21  2  0  0  0
 20 22  1  0  0  0
M  END
>  <CHROM.0>
71.44267912,-60.51501058,178.78947550

>  <CHROM.1>
178.07222332,156.27435482,173.49580862,-61.10522790,-179.70904238,53.04336390
-164.47944054,74.07658198,-119.71469733,34.05461636,2.63856744,-60.17813974
-2.35826640,-0.30271872,-2.71003854

>  <Energy>
31.4106783322688

>  <Genealogy>
CC(=O)N[C@H]1[C@H](O)O[C@H](CO)[C@@H](O)[C@@H]1OC(C)C(=O)[O-] (protonated)
CC(O)=N[C@H]1[C@H](O)O[C@H](CO)[C@@H](O)[C@@H]1OC(C)C(=O)[O-] (tautomer)
CC(O)=N[C@H]1[C@H](O)O[C@H](CO)[C@@H](O)[C@@H]1O[C@H](C)C(=O)[O-] (chirality)
C/C(O)=N\[C@H]1[C@H](O)O[C@H](CO)[C@@H](O)[C@@H]1O[C@H](C)C(=O)[O-] (cis-trans isomerization)
C/C(O)=N\[C@H]1[C@H](O)O[C@H](CO)[C@@H](O)[C@@H]1O[C@H](C)C(=O)[O-] (3D coordinates assigned)
C/C(O)=N\[C@H]1[C@H](O)O[C@H](CO)[C@@H](O)[C@@H]1O[C@H](C)C(=O)[O-] (nonaromatic ring conformer: 31.4106783322688 kcal/mol)

>  <Name>
45934204

>  <RI>
1.63646e+07

>  <Rbt.Current_Directory>
/home/edward/Documentos/Virtual_Screening/rDock/N-terminal/3

>  <Rbt.Executable>
rbdock ($Id: //depot/dev/client3/rdock/2013.1/src/exe/rbdock.cxx#4 $)

>  <Rbt.Library>
libRbt.so (2013.1, Build901 2013/11/27)

>  <Rbt.Parameter_File>
/home/edward/anaconda3/envs/MD/share/rdock-2013.1-1/data/scripts/dock.prm

>  <Rbt.Receptor>
parameters.prm

>  <SCORE>
-19.9093

>  <SCORE.INTER>
-16.2334

>  <SCORE.INTER.CONST>
1

>  <SCORE.INTER.POLAR>
-3.22936

>  <SCORE.INTER.REPUL>
0.0704263

>  <SCORE.INTER.ROT>
5

>  <SCORE.INTER.VDW>
-16.0057

>  <SCORE.INTER.norm>
-0.811669

>  <SCORE.INTRA>
-3.6661

>  <SCORE.INTRA.DIHEDRAL>
-10.0371

>  <SCORE.INTRA.DIHEDRAL.0>
15.2432

>  <SCORE.INTRA.POLAR>
0

>  <SCORE.INTRA.POLAR.0>
0

>  <SCORE.INTRA.REPUL>
0

>  <SCORE.INTRA.REPUL.0>
0

>  <SCORE.INTRA.VDW>
1.35244

>  <SCORE.INTRA.VDW.0>
-3.80719

>  <SCORE.INTRA.norm>
-0.183305

>  <SCORE.RESTR>
0

>  <SCORE.RESTR.CAVITY>
0

>  <SCORE.RESTR.norm>
0

>  <SCORE.SYSTEM>
-0.00977579

>  <SCORE.SYSTEM.CONST>
0

>  <SCORE.SYSTEM.DIHEDRAL>
0.635577

>  <SCORE.SYSTEM.POLAR>
-0.0215149

>  <SCORE.SYSTEM.REPUL>
0.00377427

>  <SCORE.SYSTEM.VDW>
-0.273285

>  <SCORE.SYSTEM.norm>
-0.000488789

>  <SCORE.heavy>
20

>  <SCORE.norm>
-0.995463

>  <SMILES>
C/C(O)=N\[C@H]1[C@H](O)O[C@H](CO)[C@@H](O)[C@@H]1O[C@H](C)C(=O)[O-]

>  <UniqueID>
68

$$$$
45933887
  rDOCK(R)          3D
libRbt.so/2013.1/901 2013/11/27
 18 18  0  0  0  0  0  0  0  0999 V2000
   34.0547    4.2554  -61.4667 N   0  0  0  0  0  0
   35.4235    3.7567  -61.6320 C   0  0  0  0  0  0
   35.5257    2.8783  -62.9229 C   0  0  0  0  0  0
   36.6290    3.2930  -63.6842 O   0  0  0  0  0  0
   35.6908    1.4977  -62.6338 O   0  0  0  0  0  0
   34.7175    1.0643  -61.7018 C   0  0  0  0  0  0
   34.6809   -0.4710  -61.7076 C   0  0  0  0  0  0
   35.9205   -1.0036  -61.3239 O   0  0  0  0  0  0
   35.0481    1.6211  -60.2911 C   0  0  0  0  0  0
   33.8487    1.8321  -59.5898 O   0  0  0  0  0  0
   35.8468    2.9471  -60.3886 C   0  0  0  0  0  0
   37.2228    2.6715  -60.4765 O   0  0  0  0  0  0
   33.4211    3.6774  -62.0660 H   0  0  0  0  0  0
   34.0045    5.2251  -61.8559 H   0  0  0  0  0  0
   36.4508    4.2294  -63.9638 H   0  0  0  0  0  0
   35.8206   -1.9914  -61.3341 H   0  0  0  0  0  0
   33.3717    2.5720  -60.0490 H   0  0  0  0  0  0
   37.6920    3.5464  -60.4987 H   0  0  0  0  0  0
  1  2  1  0  0  0
  1 13  1  0  0  0
  1 14  1  0  0  0
  2  3  1  0  0  0
  3  4  1  0  0  0
  3  5  1  0  0  0
  4 15  1  0  0  0
  5  6  1  0  0  0
  6  7  1  0  0  0
  6  9  1  0  0  0
  7  8  1  0  0  0
  8 16  1  0  0  0
  9 10  1  0  0  0
  9 11  1  0  0  0
 10 17  1  0  0  0
 11 12  1  0  0  0
 11  2  1  0  0  0
 12 18  1  0  0  0
M  END
>  <CHROM.0>
-177.63719828,-176.65768418,179.56943040

>  <CHROM.1>
17.33127041,-63.30762446,61.23994224,179.02360388,-67.22665624,60.65421890
35.40389240,2.02456269,-61.49560920,1.36356768,1.00501212,-0.06014912

>  <Energy>
30.04587901281476

>  <Genealogy>
N[C@@H]1[C@@H](O)O[C@@H](CO)[C@H](O)[C@H]1O (chirality)
N[C@@H]1[C@@H](O)O[C@@H](CO)[C@H](O)[C@H]1O (3D coordinates assigned)
N[C@@H]1[C@@H](O)O[C@@H](CO)[C@H](O)[C@H]1O (nonaromatic ring conformer: 30.04587901281476 kcal/mol)

>  <Name>
45933887

>  <RI>
1.63646e+07

>  <Rbt.Current_Directory>
/home/edward/Documentos/Virtual_Screening/rDock/N-terminal/3

>  <Rbt.Executable>
rbdock ($Id: //depot/dev/client3/rdock/2013.1/src/exe/rbdock.cxx#4 $)

>  <Rbt.Library>
libRbt.so (2013.1, Build901 2013/11/27)

>  <Rbt.Parameter_File>
/home/edward/anaconda3/envs/MD/share/rdock-2013.1-1/data/scripts/dock.prm

>  <Rbt.Receptor>
parameters.prm

>  <SCORE>
-23.4825

>  <SCORE.INTER>
-20.4942

>  <SCORE.INTER.CONST>
1

>  <SCORE.INTER.POLAR>
-4.5709

>  <SCORE.INTER.REPUL>
0.135552

>  <SCORE.INTER.ROT>
2

>  <SCORE.INTER.VDW>
-13.0309

>  <SCORE.INTER.norm>
-1.70785

>  <SCORE.INTRA>
-2.52906

>  <SCORE.INTRA.DIHEDRAL>
-3.10787

>  <SCORE.INTRA.DIHEDRAL.0>
5.26116

>  <SCORE.INTRA.POLAR>
-0.468231

>  <SCORE.INTRA.POLAR.0>
0

>  <SCORE.INTRA.REPUL>
0.010673

>  <SCORE.INTRA.REPUL.0>
0

>  <SCORE.INTRA.VDW>
0.563493

>  <SCORE.INTRA.VDW.0>
-0.852963

>  <SCORE.INTRA.norm>
-0.210755

>  <SCORE.RESTR>
0

>  <SCORE.RESTR.CAVITY>
0

>  <SCORE.RESTR.norm>
0

>  <SCORE.SYSTEM>
-0.459201

>  <SCORE.SYSTEM.CONST>
0

>  <SCORE.SYSTEM.DIHEDRAL>
0.0834164

>  <SCORE.SYSTEM.REPUL>
0.0861693

>  <SCORE.SYSTEM.VDW>
-0.931756

>  <SCORE.SYSTEM.norm>
-0.0382668

>  <SCORE.heavy>
12

>  <SCORE.norm>
-1.95687

>  <SMILES>
N[C@@H]1[C@@H](O)O[C@@H](CO)[C@H](O)[C@H]1O

>  <UniqueID>
72

$$$$
45357367
  rDOCK(R)          3D
libRbt.so/2013.1/901 2013/11/27
 23 23  0  0  0  0  0  0  0  0999 V2000
   34.2296    5.2513  -61.1204 H   0  0  0  0  0  0
   33.3008    5.0098  -60.8013 O   0  0  0  0  0  0
   32.8064    3.7021  -60.8261 C   0  0  0  0  0  0
   33.5841    2.7264  -61.1921 N   0  0  0  0  0  0
   34.9886    2.8832  -61.5806 C   0  0  0  0  0  0
   35.9141    2.0349  -60.6497 C   0  0  0  0  0  0
   36.9375    2.8492  -60.1410 O   0  0  0  0  0  0
   36.5012    3.5611  -59.6035 H   0  0  0  0  0  0
   36.5224    0.9516  -61.3354 O   0  0  0  0  0  0
   35.5450    0.1622  -61.9895 C   0  0  0  0  0  0
   36.2014   -1.1593  -62.4130 C   0  0  0  0  0  0
   37.5581   -0.9687  -62.7155 O   0  0  0  0  0  0
   38.0354   -0.8631  -61.8517 H   0  0  0  0  0  0
   34.9557    0.9314  -63.2085 C   0  0  0  0  0  0
   33.5813    0.6591  -63.3243 O   0  0  0  0  0  0
   33.1347    1.0694  -62.5394 H   0  0  0  0  0  0
   35.1539    2.4554  -63.0531 C   0  0  0  0  0  0
   36.4383    2.8034  -63.5079 O   0  0  0  0  0  0
   36.4820    3.7953  -63.5188 H   0  0  0  0  0  0
   31.4435    3.4158  -60.4608 N   0  0  0  0  0  0
   30.9252    2.1402  -60.7545 N   0  0  0  0  0  0
   31.5678    1.3074  -61.4271 O   0  0  0  0  0  0
   30.5942    4.4495  -59.8619 C   0  0  0  0  0  0
  1  2  1  0  0  0
  2  3  1  0  0  0
  3  4  2  0  0  0
  3 20  1  0  0  0
  4  5  1  0  0  0
  5  6  1  0  0  0
  6  7  1  0  0  0
  6  9  1  0  0  0
  7  8  1  0  0  0
  9 10  1  0  0  0
 10 11  1  0  0  0
 10 14  1  0  0  0
 11 12  1  0  0  0
 12 13  1  0  0  0
 14 15  1  0  0  0
 14 17  1  0  0  0
 15 16  1  0  0  0
 17 18  1  0  0  0
 17  5  1  0  0  0
 18 19  1  0  0  0
 20 21  1  0  0  0
 20 23  1  0  0  0
 21 22  2  0  0  0
M  END
>  <CHROM.0>
-81.25790894,-60.90245369,-178.43647589

>  <CHROM.1>
4.47709407,120.76326719,61.96337056,-31.80521646,75.09271634,67.45865359
-66.41934000,-6.83263626,34.38062732,2.02110206,-61.63109546,-2.50317019
-0.06257111,-2.71577375

>  <Energy>
37.95650000389406

>  <Genealogy>
CN(N=O)C(O)=NC1[C@H](O)O[C@H](CO)[C@@H](O)[C@@H]1O (tautomer)
CN(N=O)C(O)=N[C@H]1[C@H](O)O[C@H](CO)[C@@H](O)[C@@H]1O (chirality)
CN(N=O)/C(O)=N/[C@H]1[C@H](O)O[C@H](CO)[C@@H](O)[C@@H]1O (cis-trans isomerization)
CN(N=O)/C(O)=N/[C@H]1[C@H](O)O[C@H](CO)[C@@H](O)[C@@H]1O (3D coordinates assigned)
CN(N=O)/C(O)=N/[C@H]1[C@H](O)O[C@H](CO)[C@@H](O)[C@@H]1O (nonaromatic ring conformer: 37.95650000389406 kcal/mol)

>  <Name>
45357367

>  <RI>
1.63646e+07

>  <Rbt.Current_Directory>
/home/edward/Documentos/Virtual_Screening/rDock/N-terminal/3

>  <Rbt.Executable>
rbdock ($Id: //depot/dev/client3/rdock/2013.1/src/exe/rbdock.cxx#4 $)

>  <Rbt.Library>
libRbt.so (2013.1, Build901 2013/11/27)

>  <Rbt.Parameter_File>
/home/edward/anaconda3/envs/MD/share/rdock-2013.1-1/data/scripts/dock.prm

>  <Rbt.Receptor>
parameters.prm

>  <SCORE>
-29.4513

>  <SCORE.INTER>
-21.573

>  <SCORE.INTER.CONST>
1

>  <SCORE.INTER.POLAR>
-4.17111

>  <SCORE.INTER.REPUL>
0

>  <SCORE.INTER.ROT>
3

>  <SCORE.INTER.VDW>
-15.7913

>  <SCORE.INTER.norm>
-1.1985

>  <SCORE.INTRA>
-8.0269

>  <SCORE.INTRA.DIHEDRAL>
-7.0425

>  <SCORE.INTRA.DIHEDRAL.0>
11.3241

>  <SCORE.INTRA.POLAR>
-0.704437

>  <SCORE.INTRA.POLAR.0>
0

>  <SCORE.INTRA.REPUL>
-0.437523

>  <SCORE.INTRA.REPUL.0>
0.437523

>  <SCORE.INTRA.VDW>
0.0770487

>  <SCORE.INTRA.VDW.0>
-0.835552

>  <SCORE.INTRA.norm>
-0.445939

>  <SCORE.RESTR>
0

>  <SCORE.RESTR.CAVITY>
0

>  <SCORE.RESTR.norm>
0

>  <SCORE.SYSTEM>
0.148637

>  <SCORE.SYSTEM.CONST>
0

>  <SCORE.SYSTEM.DIHEDRAL>
2.02517

>  <SCORE.SYSTEM.VDW>
-0.86395

>  <SCORE.SYSTEM.norm>
0.0082576

>  <SCORE.heavy>
18

>  <SCORE.norm>
-1.63618

>  <SMILES>
CN(N=O)/C(O)=N/[C@H]1[C@H](O)O[C@H](CO)[C@@H](O)[C@@H]1O

>  <UniqueID>
75

$$$$
45266822
  rDOCK(R)          3D
libRbt.so/2013.1/901 2013/11/27
 29 29  0  0  0  0  0  0  0  0999 V2000
   31.1606   -1.0094  -63.9249 C   0  0  0  0  0  0
   32.6485   -0.8938  -63.8489 C   0  0  0  0  0  0
   33.3451   -1.9407  -63.7516 O   0  0  0  0  0  0
   33.2717    0.3996  -63.8338 N   0  0  0  0  0  0
   34.7251    0.5695  -63.7001 C   0  0  0  0  0  0
   35.1502    2.0359  -64.0426 C   0  0  0  0  0  0
   36.1662    2.0238  -65.0109 O   0  0  0  0  0  0
   35.6074    2.7586  -62.9060 O   0  0  0  0  0  0
   34.6645    2.6744  -61.8529 C   0  0  0  0  0  0
   34.9766    3.7619  -60.8169 C   0  0  0  0  0  0
   33.8328    3.9800  -60.0253 O   0  0  0  0  0  0
   34.2286    5.0903  -58.7911 P   0  0  0  0  0  0
   34.8471    6.3389  -59.3833 O   0  0  0  0  0  0
   35.3283    4.3827  -57.7180 O   0  5  0  0  0  0
   32.8171    5.5015  -57.9279 O   0  0  0  0  0  0
   33.1548    6.4530  -56.9447 C   0  0  0  0  0  0
   31.8963    6.8583  -56.1469 C   0  0  0  0  0  0
   32.0839    7.9564  -55.1463 N   0  3  0  0  0  0
   30.8056    8.1250  -54.4114 C   0  0  0  0  0  0
   33.1396    7.6133  -54.1616 C   0  0  0  0  0  0
   32.4158    9.2434  -55.8020 C   0  0  0  0  0  0
   34.6505    1.2379  -61.2470 C   0  0  0  0  0  0
   35.4156    1.1681  -60.0680 O   0  0  0  0  0  0
   35.1657    0.1950  -62.2688 C   0  0  0  0  0  0
   36.5693    0.1275  -62.2095 O   0  0  0  0  0  0
   32.6537    1.2431  -63.8538 H   0  0  0  0  0  0
   35.8121    1.5330  -65.7982 H   0  0  0  0  0  0
   35.3720    0.2274  -59.7530 H   0  0  0  0  0  0
   36.8522   -0.5634  -62.8627 H   0  0  0  0  0  0
  1  2  1  0  0  0
  2  3  2  0  0  0
  2  4  1  0  0  0
  4  5  1  0  0  0
  4 26  1  0  0  0
  5  6  1  0  0  0
  6  7  1  0  0  0
  6  8  1  0  0  0
  7 27  1  0  0  0
  8  9  1  0  0  0
  9 10  1  0  0  0
  9 22  1  0  0  0
 10 11  1  0  0  0
 11 12  1  0  0  0
 12 13  2  0  0  0
 12 14  1  0  0  0
 12 15  1  0  0  0
 15 16  1  0  0  0
 16 17  1  0  0  0
 17 18  1  0  0  0
 18 19  1  0  0  0
 18 20  1  0  0  0
 18 21  1  0  0  0
 22 23  1  0  0  0
 22 24  1  0  0  0
 23 28  1  0  0  0
 24 25  1  0  0  0
 24  5  1  0  0  0
 25 29  1  0  0  0
M  END
>  <CHROM.0>
-171.16267700,-176.89365264,63.92805460

>  <CHROM.1>
166.91882402,57.28197570,160.71889061,175.13300335,52.95756190,-177.98024428
179.59496173,-174.75532077,-175.46300736,-179.01597588,-59.50039275,33.96627154
3.47663546,-60.15585051,1.39414463,-0.36582178,-2.38992925

>  <Energy>
59.860815608659586

>  <Genealogy>
CC(=O)N[C@H]1C(O)O[C@H](COP(=O)([O-])OCC[N+](C)(C)C)[C@H](O)[C@@H]1O (protonated)
CC(=O)N[C@H]1[C@H](O)O[C@H](CO[P@](=O)([O-])OCC[N+](C)(C)C)[C@H](O)[C@@H]1O (chirality)
CC(=O)N[C@H]1[C@H](O)O[C@H](CO[P@](=O)([O-])OCC[N+](C)(C)C)[C@H](O)[C@@H]1O (3D coordinates assigned)
CC(=O)N[C@H]1[C@H](O)O[C@H](CO[P@](=O)([O-])OCC[N+](C)(C)C)[C@H](O)[C@@H]1O (nonaromatic ring conformer: 59.860815608659586 kcal/mol)

>  <Name>
45266822

>  <RI>
1.63646e+07

>  <Rbt.Current_Directory>
/home/edward/Documentos/Virtual_Screening/rDock/N-terminal/3

>  <Rbt.Executable>
rbdock ($Id: //depot/dev/client3/rdock/2013.1/src/exe/rbdock.cxx#4 $)

>  <Rbt.Library>
libRbt.so (2013.1, Build901 2013/11/27)

>  <Rbt.Parameter_File>
/home/edward/anaconda3/envs/MD/share/rdock-2013.1-1/data/scripts/dock.prm

>  <Rbt.Receptor>
parameters.prm

>  <SCORE>
-17.9947

>  <SCORE.INTER>
-16.7182

>  <SCORE.INTER.CONST>
1

>  <SCORE.INTER.POLAR>
-2.64307

>  <SCORE.INTER.REPUL>
0.0087847

>  <SCORE.INTER.ROT>
8

>  <SCORE.INTER.VDW>
-21.1757

>  <SCORE.INTER.norm>
-0.668729

>  <SCORE.INTRA>
-0.831019

>  <SCORE.INTRA.DIHEDRAL>
-2.42197

>  <SCORE.INTRA.DIHEDRAL.0>
5.30025

>  <SCORE.INTRA.POLAR>
0

>  <SCORE.INTRA.POLAR.0>
0

>  <SCORE.INTRA.REPUL>
0

>  <SCORE.INTRA.REPUL.0>
0

>  <SCORE.INTRA.VDW>
0.379966

>  <SCORE.INTRA.VDW.0>
-0.595229

>  <SCORE.INTRA.norm>
-0.0332407

>  <SCORE.RESTR>
0

>  <SCORE.RESTR.CAVITY>
0

>  <SCORE.RESTR.norm>
0

>  <SCORE.SYSTEM>
-0.445474

>  <SCORE.SYSTEM.CONST>
0

>  <SCORE.SYSTEM.DIHEDRAL>
0.501959

>  <SCORE.SYSTEM.REPUL>
0.0683571

>  <SCORE.SYSTEM.VDW>
-1.03824

>  <SCORE.SYSTEM.norm>
-0.017819

>  <SCORE.heavy>
25

>  <SCORE.norm>
-0.719789

>  <SMILES>
CC(=O)N[C@H]1[C@H](O)O[C@H](CO[P@](=O)([O-])OCC[N+](C)(C)C)[C@H](O)[C@@H]1O

>  <UniqueID>
78

$$$$
45266741
  rDOCK(R)          3D
libRbt.so/2013.1/901 2013/11/27
 19 19  0  0  0  0  0  0  0  0999 V2000
   33.9886   -0.8737  -63.6956 N   0  3  0  0  0  0
   34.2437    0.4595  -63.1307 C   0  0  0  0  0  0
   34.7911    0.3538  -61.6859 C   0  0  0  0  0  0
   33.8360   -0.2674  -60.8650 O   0  0  0  0  0  0
   35.0373    1.6462  -61.1630 O   0  0  0  0  0  0
   36.0839    2.2865  -61.8733 C   0  0  0  0  0  0
   36.4321    3.5964  -61.1505 C   0  0  0  0  0  0
   37.1458    3.3294  -59.9728 O   0  0  0  0  0  0
   35.6450    2.5594  -63.3305 C   0  0  0  0  0  0
   36.7004    3.1425  -64.0538 O   0  0  0  0  0  0
   35.2471    1.2371  -64.0094 C   0  0  0  0  0  0
   34.6640    1.5042  -65.2596 O   0  0  0  0  0  0
   33.2997   -0.8069  -64.4794 H   0  0  0  0  0  0
   33.5771   -1.4997  -62.9663 H   0  0  0  0  0  0
   34.8751   -1.2978  -64.0544 H   0  0  0  0  0  0
   34.2138   -0.3066  -59.9476 H   0  0  0  0  0  0
   38.0002    2.9036  -60.2451 H   0  0  0  0  0  0
   36.7821    4.0833  -63.7475 H   0  0  0  0  0  0
   35.3661    1.9238  -65.8222 H   0  0  0  0  0  0
  1  2  1  0  0  0
  1 13  1  0  0  0
  1 14  1  0  0  0
  1 15  1  0  0  0
  2  3  1  0  0  0
  3  4  1  0  0  0
  3  5  1  0  0  0
  4 16  1  0  0  0
  5  6  1  0  0  0
  6  7  1  0  0  0
  6  9  1  0  0  0
  7  8  1  0  0  0
  8 17  1  0  0  0
  9 10  1  0  0  0
  9 11  1  0  0  0
 10 18  1  0  0  0
 11 12  1  0  0  0
 11  2  1  0  0  0
 12 19  1  0  0  0
M  END
>  <CHROM.0>
-174.10634001,60.65809602,179.09478333

>  <CHROM.1>
158.08773266,-179.21866030,74.26227048,63.49487763,-73.87418116,-174.61539949
35.32377844,1.56900218,-62.51417148,2.65752785,-0.94163798,-1.47827948

>  <Energy>
23.063500083854002

>  <Genealogy>
[NH3+][C@H]1[C@H](O)O[C@H](CO)[C@@H](O)[C@@H]1O (chirality)
[NH3+][C@H]1[C@H](O)O[C@H](CO)[C@@H](O)[C@@H]1O (3D coordinates assigned)
[NH3+][C@H]1[C@H](O)O[C@H](CO)[C@@H](O)[C@@H]1O (nonaromatic ring conformer: 23.063500083854002 kcal/mol)

>  <Name>
45266741

>  <RI>
1.63646e+07

>  <Rbt.Current_Directory>
/home/edward/Documentos/Virtual_Screening/rDock/N-terminal/3

>  <Rbt.Executable>
rbdock ($Id: //depot/dev/client3/rdock/2013.1/src/exe/rbdock.cxx#4 $)

>  <Rbt.Library>
libRbt.so (2013.1, Build901 2013/11/27)

>  <Rbt.Parameter_File>
/home/edward/anaconda3/envs/MD/share/rdock-2013.1-1/data/scripts/dock.prm

>  <Rbt.Receptor>
parameters.prm

>  <SCORE>
-33.6365

>  <SCORE.INTER>
-28.8383

>  <SCORE.INTER.CONST>
1

>  <SCORE.INTER.POLAR>
-6.23854

>  <SCORE.INTER.REPUL>
0

>  <SCORE.INTER.ROT>
1

>  <SCORE.INTER.VDW>
-14.0273

>  <SCORE.INTER.norm>
-2.40319

>  <SCORE.INTRA>
-4.59718

>  <SCORE.INTRA.DIHEDRAL>
-10.3035

>  <SCORE.INTRA.DIHEDRAL.0>
13.1236

>  <SCORE.INTRA.POLAR>
-0.0123679

>  <SCORE.INTRA.POLAR.0>
0

>  <SCORE.INTRA.REPUL>
0

>  <SCORE.INTRA.REPUL.0>
0

>  <SCORE.INTRA.VDW>
0.596615

>  <SCORE.INTRA.VDW.0>
-1.1193

>  <SCORE.INTRA.norm>
-0.383098

>  <SCORE.RESTR>
0

>  <SCORE.RESTR.CAVITY>
0

>  <SCORE.RESTR.norm>
0

>  <SCORE.SYSTEM>
-0.200991

>  <SCORE.SYSTEM.CONST>
0

>  <SCORE.SYSTEM.DIHEDRAL>
0.176235

>  <SCORE.SYSTEM.REPUL>
0.163757

>  <SCORE.SYSTEM.VDW>
-1.10789

>  <SCORE.SYSTEM.norm>
-0.0167493

>  <SCORE.heavy>
12

>  <SCORE.norm>
-2.80304

>  <SMILES>
[NH3+][C@H]1[C@H](O)O[C@H](CO)[C@@H](O)[C@@H]1O

>  <UniqueID>
80

$$$$
44630437
  rDOCK(R)          3D
libRbt.so/2013.1/901 2013/11/27
 22 22  0  0  0  0  0  0  0  0999 V2000
   31.7280    1.0280  -63.4541 H   0  0  0  0  0  0
   31.6912    0.0638  -63.7650 O   0  0  0  0  0  0
   32.8447   -0.6721  -64.0453 C   0  0  0  0  0  0
   32.7279   -1.8798  -64.6227 C   0  0  0  0  0  0
   33.8950   -2.7554  -64.9616 C   0  0  0  0  0  0
   34.1293   -0.1154  -63.7082 N   0  0  0  0  0  0
   35.0042   -0.6338  -63.9474 H   0  0  0  0  0  0
   34.2506    1.1668  -63.0044 C   0  0  0  0  0  0
   34.1092    0.9603  -61.4795 C   0  0  0  0  0  0
   35.0302    0.0100  -60.9977 O   0  0  0  0  0  0
   34.7919   -0.1742  -60.0517 H   0  0  0  0  0  0
   34.2506    2.1888  -60.7846 O   0  0  0  0  0  0
   35.5368    2.7606  -60.9752 C   0  0  0  0  0  0
   35.6305    4.0096  -60.0869 C   0  0  0  0  0  0
   34.5633    4.8791  -60.3488 O   0  0  0  0  0  0
   34.7188    5.2396  -61.2602 H   0  0  0  0  0  0
   35.7601    3.1090  -62.4679 C   0  0  0  0  0  0
   37.0552    3.6203  -62.6641 O   0  0  0  0  0  0
   36.9923    4.3198  -63.3658 H   0  0  0  0  0  0
   35.5959    1.8467  -63.3250 C   0  0  0  0  0  0
   35.6410    2.2070  -64.6824 O   0  0  0  0  0  0
   34.8970    2.8452  -64.8392 H   0  0  0  0  0  0
  1  2  1  0  0  0
  2  3  1  0  0  0
  3  4  2  0  0  0
  3  6  1  0  0  0
  4  5  1  0  0  0
  6  7  1  0  0  0
  6  8  1  0  0  0
  8  9  1  0  0  0
  9 10  1  0  0  0
  9 12  1  0  0  0
 10 11  1  0  0  0
 12 13  1  0  0  0
 13 14  1  0  0  0
 13 17  1  0  0  0
 14 15  1  0  0  0
 15 16  1  0  0  0
 17 18  1  0  0  0
 17 20  1  0  0  0
 18 19  1  0  0  0
 20 21  1  0  0  0
 20  8  1  0  0  0
 21 22  1  0  0  0
M  END
>  <CHROM.0>
73.36751589,-60.98959993,63.95818596

>  <CHROM.1>
-171.11077796,83.88511392,-171.44025920,-54.21236010,-68.93297883,-144.32151209
60.80519094,34.56503189,1.39870266,-62.60137104,2.11022391,-0.77000327,-2.18389908

>  <Energy>
27.978014739018878

>  <Genealogy>
CC=C(O)N[C@H]1C(O)O[C@H](CO)[C@@H](O)[C@@H]1O (tautomer)
CC=C(O)N[C@H]1[C@@H](O)O[C@H](CO)[C@@H](O)[C@@H]1O (chirality)
C/C=C(/O)N[C@H]1[C@@H](O)O[C@H](CO)[C@@H](O)[C@@H]1O (cis-trans isomerization)
C/C=C(/O)N[C@H]1[C@@H](O)O[C@H](CO)[C@@H](O)[C@@H]1O (3D coordinates assigned)
C/C=C(/O)N[C@H]1[C@@H](O)O[C@H](CO)[C@@H](O)[C@@H]1O (nonaromatic ring conformer: 27.978014739018878 kcal/mol)

>  <Name>
44630437

>  <RI>
1.63646e+07

>  <Rbt.Current_Directory>
/home/edward/Documentos/Virtual_Screening/rDock/N-terminal/3

>  <Rbt.Executable>
rbdock ($Id: //depot/dev/client3/rdock/2013.1/src/exe/rbdock.cxx#4 $)

>  <Rbt.Library>
libRbt.so (2013.1, Build901 2013/11/27)

>  <Rbt.Parameter_File>
/home/edward/anaconda3/envs/MD/share/rdock-2013.1-1/data/scripts/dock.prm

>  <Rbt.Receptor>
parameters.prm

>  <SCORE>
-30.4841

>  <SCORE.INTER>
-28.9403

>  <SCORE.INTER.CONST>
1

>  <SCORE.INTER.POLAR>
-6.20514

>  <SCORE.INTER.REPUL>
0

>  <SCORE.INTER.ROT>
2

>  <SCORE.INTER.VDW>
-15.2429

>  <SCORE.INTER.norm>
-1.80877

>  <SCORE.INTRA>
-1.4654

>  <SCORE.INTRA.DIHEDRAL>
-3.858

>  <SCORE.INTRA.DIHEDRAL.0>
12.4527

>  <SCORE.INTRA.POLAR>
0

>  <SCORE.INTRA.POLAR.0>
0

>  <SCORE.INTRA.REPUL>
0

>  <SCORE.INTRA.REPUL.0>
0

>  <SCORE.INTRA.VDW>
0.463599

>  <SCORE.INTRA.VDW.0>
-1.94967

>  <SCORE.INTRA.norm>
-0.0915876

>  <SCORE.RESTR>
0

>  <SCORE.RESTR.CAVITY>
0

>  <SCORE.RESTR.norm>
0

>  <SCORE.SYSTEM>
-0.0783435

>  <SCORE.SYSTEM.CONST>
0

>  <SCORE.SYSTEM.DIHEDRAL>
0.928256

>  <SCORE.SYSTEM.POLAR>
-0.0151842

>  <SCORE.SYSTEM.REPUL>
0.00938996

>  <SCORE.SYSTEM.VDW>
-0.537795

>  <SCORE.SYSTEM.norm>
-0.00489647

>  <SCORE.heavy>
16

>  <SCORE.norm>
-1.90525

>  <SMILES>
C/C=C(/O)N[C@H]1[C@@H](O)O[C@H](CO)[C@@H](O)[C@@H]1O

>  <UniqueID>
84

$$$$
44341508
  rDOCK(R)          3D
libRbt.so/2013.1/901 2013/11/27
 31 33  0  0  0  0  0  0  0  0999 V2000
   31.3964    8.1758  -54.2398 C   0  0  0  0  0  0
   31.3329    7.9957  -55.6508 O   0  0  0  0  0  0
   31.8695    6.8942  -56.3340 C   0  0  0  0  0  0
   33.1545    6.3892  -56.0584 C   0  0  0  0  0  0
   33.6490    5.2893  -56.7645 C   0  0  0  0  0  0
   32.8698    4.6773  -57.7568 C   0  0  0  0  0  0
   33.3631    3.5776  -58.4763 C   0  0  0  0  0  0
   32.5856    2.9838  -59.4911 C   0  0  0  0  0  0
   33.0355    1.9052  -60.2724 O   0  0  0  0  0  0
   34.3544    1.7145  -60.7936 C   0  0  0  0  0  0
   34.4286    0.3833  -61.2769 O   0  0  0  0  0  0
   35.7387    0.0799  -61.7261 C   0  0  0  0  0  0
   35.8197   -1.4261  -62.0213 C   0  0  0  0  0  0
   37.0912   -1.7787  -62.4969 O   0  0  0  0  0  0
   36.0798    0.9241  -62.9736 C   0  0  0  0  0  0
   35.1908    0.6125  -64.0184 O   0  0  0  0  0  0
   35.9722    2.4173  -62.6096 C   0  0  0  0  0  0
   36.1231    3.2158  -63.7551 O   0  0  0  0  0  0
   34.6118    2.7123  -61.9517 C   0  0  0  0  0  0
   34.5964    4.0947  -61.4618 N   0  0  0  0  0  0
   35.3315    4.5259  -60.3066 C   0  0  0  0  0  0
   35.3513    5.9715  -59.9287 C   0  0  0  0  0  0
   35.9378    3.6903  -59.5832 O   0  0  0  0  0  0
   31.3016    3.4795  -59.7452 C   0  0  0  0  0  0
   30.8003    4.5696  -59.0307 C   0  0  0  0  0  0
   31.5790    5.1798  -58.0386 C   0  0  0  0  0  0
   31.0900    6.2836  -57.3236 C   0  0  0  0  0  0
   37.0653   -2.7539  -62.6817 H   0  0  0  0  0  0
   35.4347   -0.2925  -64.3455 H   0  0  0  0  0  0
   36.1229    4.1597  -63.4471 H   0  0  0  0  0  0
   34.0940    4.8160  -62.0279 H   0  0  0  0  0  0
  1  2  1  0  0  0
  2  3  1  0  0  0
  3  4  2  0  0  0
  4  5  1  0  0  0
  5  6  2  0  0  0
  6  7  1  0  0  0
  7  8  2  0  0  0
  8  9  1  0  0  0
  8 24  1  0  0  0
  9 10  1  0  0  0
 10 11  1  0  0  0
 11 12  1  0  0  0
 12 13  1  0  0  0
 12 15  1  0  0  0
 13 14  1  0  0  0
 14 28  1  0  0  0
 15 16  1  0  0  0
 15 17  1  0  0  0
 16 29  1  0  0  0
 17 18  1  0  0  0
 17 19  1  0  0  0
 18 30  1  0  0  0
 19 20  1  0  0  0
 19 10  1  0  0  0
 20 21  1  0  0  0
 20 31  1  0  0  0
 21 22  1  0  0  0
 21 23  2  0  0  0
 24 25  2  0  0  0
 25 26  1  0  0  0
 26 27  2  0  0  0
 26  6  1  0  0  0
 27  3  1  0  0  0
M  END
>  <CHROM.0>
-169.09932482,-64.94636617,60.85498777

>  <CHROM.1>
-45.11739553,-39.37540307,168.23918416,178.79471160,-178.91977950,-72.08854519
-175.23821445,48.65698023,33.95826355,3.42132557,-59.88471896,2.13561775
0.70889317,0.39248255

>  <Energy>
50.97547565806083

>  <Genealogy>
COc1ccc2cc(O[C@H]3O[C@@H](CO)[C@@H](O)[C@@H](O)[C@@H]3NC(C)=O)ccc2c1 (chirality)
COc1ccc2cc(O[C@H]3O[C@@H](CO)[C@@H](O)[C@@H](O)[C@@H]3NC(C)=O)ccc2c1 (3D coordinates assigned)
COc1ccc2cc(O[C@H]3O[C@@H](CO)[C@@H](O)[C@@H](O)[C@@H]3NC(C)=O)ccc2c1 (nonaromatic ring conformer: 50.97547565806083 kcal/mol)

>  <Name>
44341508

>  <RI>
1.63646e+07

>  <Rbt.Current_Directory>
/home/edward/Documentos/Virtual_Screening/rDock/N-terminal/3

>  <Rbt.Executable>
rbdock ($Id: //depot/dev/client3/rdock/2013.1/src/exe/rbdock.cxx#4 $)

>  <Rbt.Library>
libRbt.so (2013.1, Build901 2013/11/27)

>  <Rbt.Parameter_File>
/home/edward/anaconda3/envs/MD/share/rdock-2013.1-1/data/scripts/dock.prm

>  <Rbt.Receptor>
parameters.prm

>  <SCORE>
-18.9687

>  <SCORE.INTER>
-18.2794

>  <SCORE.INTER.CONST>
1

>  <SCORE.INTER.POLAR>
-3.46606

>  <SCORE.INTER.REPUL>
0.041879

>  <SCORE.INTER.ROT>
5

>  <SCORE.INTER.VDW>
-17.1042

>  <SCORE.INTER.norm>
-0.677014

>  <SCORE.INTRA>
0.246879

>  <SCORE.INTRA.DIHEDRAL>
-0.703426

>  <SCORE.INTRA.DIHEDRAL.0>
7.62519

>  <SCORE.INTRA.POLAR>
0

>  <SCORE.INTRA.POLAR.0>
0

>  <SCORE.INTRA.REPUL>
0

>  <SCORE.INTRA.REPUL.0>
0

>  <SCORE.INTRA.VDW>
0.598592

>  <SCORE.INTRA.VDW.0>
-3.00263

>  <SCORE.INTRA.norm>
0.00914367

>  <SCORE.RESTR>
0

>  <SCORE.RESTR.CAVITY>
0

>  <SCORE.RESTR.norm>
0

>  <SCORE.SYSTEM>
-0.936184

>  <SCORE.SYSTEM.CONST>
0

>  <SCORE.SYSTEM.DIHEDRAL>
0.694301

>  <SCORE.SYSTEM.REPUL>
0.00928532

>  <SCORE.SYSTEM.VDW>
-1.32976

>  <SCORE.SYSTEM.norm>
-0.0346735

>  <SCORE.heavy>
27

>  <SCORE.norm>
-0.702544

>  <SMILES>
COc1ccc2cc(O[C@H]3O[C@@H](CO)[C@@H](O)[C@@H](O)[C@@H]3NC(C)=O)ccc2c1

>  <UniqueID>
86

$$$$
44229083
  rDOCK(R)          3D
libRbt.so/2013.1/901 2013/11/27
 23 23  0  0  0  0  0  0  0  0999 V2000
   38.4100    2.9589  -59.8242 H   0  0  0  0  0  0
   37.5801    3.3845  -59.4290 O   0  0  0  0  0  0
   36.3481    3.3232  -60.0753 C   0  0  0  0  0  0
   36.2717    2.6621  -61.1950 N   0  0  0  0  0  0
   35.0861    2.4814  -62.0436 C   0  0  0  0  0  0
   35.5037    1.9624  -63.4355 C   0  0  0  0  0  0
   36.3863    2.8732  -64.0355 O   0  0  0  0  0  0
   35.9863    3.7763  -63.9317 H   0  0  0  0  0  0
   36.1632    0.7110  -63.3332 O   0  0  0  0  0  0
   35.3228   -0.3102  -62.8082 C   0  0  0  0  0  0
   34.2676   -0.7898  -63.8283 C   0  0  0  0  0  0
   33.7857   -2.0536  -63.4340 O   0  0  0  0  0  0
   33.2208   -2.8749  -64.8180 P   0  0  0  0  0  0
   34.2951   -2.8950  -65.8821 O   0  0  0  0  0  0
   32.8371   -4.4655  -64.3925 O   0  5  0  0  0  0
   31.8346   -2.1195  -65.4277 O   0  5  0  0  0  0
   34.7532    0.0581  -61.4096 C   0  0  0  0  0  0
   33.8036   -0.8849  -60.9816 O   0  0  0  0  0  0
   34.2730   -1.7578  -60.9233 H   0  0  0  0  0  0
   34.1380    1.4683  -61.3793 C   0  0  0  0  0  0
   32.8904    1.4676  -62.0263 O   0  0  0  0  0  0
   32.6414    2.4171  -62.1750 H   0  0  0  0  0  0
   35.1545    3.9938  -59.4514 C   0  0  0  0  0  0
  1  2  1  0  0  0
  2  3  1  0  0  0
  3  4  2  0  0  0
  3 23  1  0  0  0
  4  5  1  0  0  0
  5  6  1  0  0  0
  6  7  1  0  0  0
  6  9  1  0  0  0
  7  8  1  0  0  0
  9 10  1  0  0  0
 10 11  1  0  0  0
 10 17  1  0  0  0
 11 12  1  0  0  0
 12 13  1  0  0  0
 13 14  2  0  0  0
 13 15  1  0  0  0
 13 16  1  0  0  0
 17 18  1  0  0  0
 17 20  1  0  0  0
 18 19  1  0  0  0
 20 21  1  0  0  0
 20  5  1  0  0  0
 21 22  1  0  0  0
M  END
>  <CHROM.0>
-177.32789661,-62.87643236,63.25220058

>  <CHROM.1>
2.13789064,165.12522097,-47.53043193,160.67066251,-154.40362961,52.94332889
60.94115081,-44.32138381,34.60869669,0.18233067,-62.76256442,-0.95913742
-0.86613257,-2.05411916

>  <Energy>
34.528340983039826

>  <Genealogy>
CC(O)=N[C@H]1C(O)O[C@H](COP(=O)([O-])[O-])[C@H](O)[C@@H]1O (tautomer)
CC(O)=N[C@H]1[C@@H](O)O[C@H](COP(=O)([O-])[O-])[C@H](O)[C@@H]1O (chirality)
C/C(O)=N/[C@H]1[C@@H](O)O[C@H](COP(=O)([O-])[O-])[C@H](O)[C@@H]1O (cis-trans isomerization)
C/C(O)=N/[C@H]1[C@@H](O)O[C@H](COP(=O)([O-])[O-])[C@H](O)[C@@H]1O (3D coordinates assigned)
C/C(O)=N/[C@H]1[C@@H](O)O[C@H](COP(=O)([O-])[O-])[C@H](O)[C@@H]1O (nonaromatic ring conformer: 34.528340983039826 kcal/mol)

>  <Name>
44229083

>  <RI>
1.63646e+07

>  <Rbt.Current_Directory>
/home/edward/Documentos/Virtual_Screening/rDock/N-terminal/3

>  <Rbt.Executable>
rbdock ($Id: //depot/dev/client3/rdock/2013.1/src/exe/rbdock.cxx#4 $)

>  <Rbt.Library>
libRbt.so (2013.1, Build901 2013/11/27)

>  <Rbt.Parameter_File>
/home/edward/anaconda3/envs/MD/share/rdock-2013.1-1/data/scripts/dock.prm

>  <Rbt.Receptor>
parameters.prm

>  <SCORE>
-21.9465

>  <SCORE.INTER>
-23.4509

>  <SCORE.INTER.CONST>
1

>  <SCORE.INTER.POLAR>
-5.08095

>  <SCORE.INTER.REPUL>
0

>  <SCORE.INTER.ROT>
4

>  <SCORE.INTER.VDW>
-15.5757

>  <SCORE.INTER.norm>
-1.23426

>  <SCORE.INTRA>
2.61976

>  <SCORE.INTRA.DIHEDRAL>
3.55531

>  <SCORE.INTRA.DIHEDRAL.0>
4.79614

>  <SCORE.INTRA.POLAR>
0

>  <SCORE.INTRA.POLAR.0>
0

>  <SCORE.INTRA.REPUL>
0

>  <SCORE.INTRA.REPUL.0>
0

>  <SCORE.INTRA.VDW>
0.842107

>  <SCORE.INTRA.VDW.0>
-2.13231

>  <SCORE.INTRA.norm>
0.137882

>  <SCORE.RESTR>
0

>  <SCORE.RESTR.CAVITY>
0

>  <SCORE.RESTR.norm>
0

>  <SCORE.SYSTEM>
-1.11533

>  <SCORE.SYSTEM.CONST>
0

>  <SCORE.SYSTEM.DIHEDRAL>
0.127999

>  <SCORE.SYSTEM.REPUL>
0.0326605

>  <SCORE.SYSTEM.VDW>
-1.34263

>  <SCORE.SYSTEM.norm>
-0.0587016

>  <SCORE.heavy>
19

>  <SCORE.norm>
-1.15508

>  <SMILES>
C/C(O)=N/[C@H]1[C@@H](O)O[C@H](COP(=O)([O-])[O-])[C@H](O)[C@@H]1O

>  <UniqueID>
90

$$$$
44119773
  rDOCK(R)          3D
libRbt.so/2013.1/901 2013/11/27
 20 20  0  0  0  0  0  0  0  0999 V2000
   35.5189    4.2072  -56.6592 H   0  0  0  0  0  0
   34.7192    4.6873  -57.0553 O   0  0  0  0  0  0
   34.3042    4.4382  -58.3604 C   0  0  0  0  0  0
   34.9822    3.5979  -59.0907 N   0  0  0  0  0  0
   34.7103    3.2283  -60.4842 C   0  0  0  0  0  0
   34.5621    1.6996  -60.5875 C   0  0  0  0  0  0
   33.4852    1.2937  -59.7869 O   0  0  0  0  0  0
   33.6412    0.3375  -59.5705 H   0  0  0  0  0  0
   34.3007    1.3237  -61.9289 O   0  0  0  0  0  0
   35.4158    1.6062  -62.7587 C   0  0  0  0  0  0
   35.1238    1.0240  -64.1501 C   0  0  0  0  0  0
   35.8572    1.6997  -65.1383 O   0  0  0  0  0  0
   35.6231    1.2873  -66.0104 H   0  0  0  0  0  0
   35.6582    3.1352  -62.8221 C   0  0  0  0  0  0
   36.7865    3.4170  -63.6100 O   0  0  0  0  0  0
   36.8876    4.4047  -63.6215 H   0  0  0  0  0  0
   35.8568    3.6989  -61.3995 C   0  0  0  0  0  0
   37.0896    3.2706  -60.8722 O   0  0  0  0  0  0
   37.8016    3.6538  -61.4482 H   0  0  0  0  0  0
   33.0743    5.1366  -58.8626 C   0  0  0  0  0  0
  1  2  1  0  0  0
  2  3  1  0  0  0
  3  4  2  0  0  0
  3 20  1  0  0  0
  4  5  1  0  0  0
  5  6  1  0  0  0
  6  7  1  0  0  0
  6  9  1  0  0  0
  7  8  1  0  0  0
  9 10  1  0  0  0
 10 11  1  0  0  0
 10 14  1  0  0  0
 11 12  1  0  0  0
 12 13  1  0  0  0
 14 15  1  0  0  0
 14 17  1  0  0  0
 15 16  1  0  0  0
 17 18  1  0  0  0
 17  5  1  0  0  0
 18 19  1  0  0  0
M  END
>  <CHROM.0>
-175.46191398,-60.51478479,-60.62558775

>  <CHROM.1>
-1.81770586,-124.59627869,-156.97628619,155.48851816,-179.53912280,179.49383412
-175.58031087,35.09114600,2.86783141,-61.15337158,-1.90657966,-0.76700195
-2.19261342

>  <Energy>
26.982286914189284

>  <Genealogy>
CC(O)=N[C@@H]1[C@@H](O)OC(CO)[C@H](O)[C@@H]1O (tautomer)
CC(O)=N[C@@H]1[C@@H](O)O[C@@H](CO)[C@H](O)[C@@H]1O (chirality)
C/C(O)=N\[C@@H]1[C@@H](O)O[C@@H](CO)[C@H](O)[C@@H]1O (cis-trans isomerization)
C/C(O)=N\[C@@H]1[C@@H](O)O[C@@H](CO)[C@H](O)[C@@H]1O (3D coordinates assigned)
C/C(O)=N\[C@@H]1[C@@H](O)O[C@@H](CO)[C@H](O)[C@@H]1O (nonaromatic ring conformer: 26.982286914189284 kcal/mol)

>  <Name>
44119773

>  <RI>
1.63646e+07

>  <Rbt.Current_Directory>
/home/edward/Documentos/Virtual_Screening/rDock/N-terminal/3

>  <Rbt.Executable>
rbdock ($Id: //depot/dev/client3/rdock/2013.1/src/exe/rbdock.cxx#4 $)

>  <Rbt.Library>
libRbt.so (2013.1, Build901 2013/11/27)

>  <Rbt.Parameter_File>
/home/edward/anaconda3/envs/MD/share/rdock-2013.1-1/data/scripts/dock.prm

>  <Rbt.Receptor>
parameters.prm

>  <SCORE>
-29.2141

>  <SCORE.INTER>
-25.5796

>  <SCORE.INTER.CONST>
1

>  <SCORE.INTER.POLAR>
-5.16405

>  <SCORE.INTER.REPUL>
0.010374

>  <SCORE.INTER.ROT>
2

>  <SCORE.INTER.VDW>
-15.4737

>  <SCORE.INTER.norm>
-1.70531

>  <SCORE.INTRA>
-2.64822

>  <SCORE.INTRA.DIHEDRAL>
-7.81167

>  <SCORE.INTRA.DIHEDRAL.0>
12.1969

>  <SCORE.INTRA.POLAR>
0

>  <SCORE.INTRA.POLAR.0>
0

>  <SCORE.INTRA.REPUL>
0

>  <SCORE.INTRA.REPUL.0>
0

>  <SCORE.INTRA.VDW>
1.25762

>  <SCORE.INTRA.VDW.0>
-1.65038

>  <SCORE.INTRA.norm>
-0.176548

>  <SCORE.RESTR>
0

>  <SCORE.RESTR.CAVITY>
0

>  <SCORE.RESTR.norm>
0

>  <SCORE.SYSTEM>
-0.986236

>  <SCORE.SYSTEM.CONST>
0

>  <SCORE.SYSTEM.DIHEDRAL>
0.10439

>  <SCORE.SYSTEM.REPUL>
0.0274651

>  <SCORE.SYSTEM.VDW>
-1.17576

>  <SCORE.SYSTEM.norm>
-0.065749

>  <SCORE.heavy>
15

>  <SCORE.norm>
-1.9476

>  <SMILES>
C/C(O)=N\[C@@H]1[C@@H](O)O[C@@H](CO)[C@H](O)[C@@H]1O

>  <UniqueID>
93

$$$$
42612215
  rDOCK(R)          3D
libRbt.so/2013.1/901 2013/11/27
 24 24  0  0  0  0  0  0  0  0999 V2000
   30.3105   -1.0850  -64.1224 H   0  0  0  0  0  0
   31.0505   -0.3957  -64.0677 O   0  0  0  0  0  0
   32.1874   -0.6208  -63.2949 C   0  0  0  0  0  0
   32.3126   -1.7497  -62.5729 C   0  0  0  0  0  0
   31.3529   -2.8195  -62.5724 N   0  0  0  0  0  0
   30.3126   -2.8020  -63.2322 N   0  3  0  0  0  0
   29.2726   -2.7909  -63.8894 N   0  5  0  0  0  0
   33.2004    0.3977  -63.2507 N   0  0  0  0  0  0
   32.8876    1.3793  -63.4250 H   0  0  0  0  0  0
   34.6407    0.1108  -63.3400 C   0  0  0  0  0  0
   35.2753    0.1270  -61.9377 C   0  0  0  0  0  0
   34.5869   -0.7731  -61.1124 O   0  0  0  0  0  0
   34.7377   -1.6764  -61.4955 H   0  0  0  0  0  0
   35.1996    1.4260  -61.3750 O   0  0  0  0  0  0
   36.0061    2.3336  -62.1090 C   0  0  0  0  0  0
   36.0274    3.6734  -61.3645 C   0  0  0  0  0  0
   36.6307    3.5065  -60.1111 O   0  0  0  0  0  0
   36.1150    2.7951  -59.6497 H   0  0  0  0  0  0
   35.4528    2.5139  -63.5426 C   0  0  0  0  0  0
   36.3105    3.3520  -64.2752 O   0  0  0  0  0  0
   36.2849    4.2433  -63.8388 H   0  0  0  0  0  0
   35.3501    1.1442  -64.2412 C   0  0  0  0  0  0
   34.6663    1.2861  -65.4599 O   0  0  0  0  0  0
   35.2190    1.8821  -66.0301 H   0  0  0  0  0  0
  1  2  1  0  0  0
  2  3  1  0  0  0
  3  4  2  0  0  0
  3  8  1  0  0  0
  4  5  1  0  0  0
  5  6  2  0  0  0
  6  7  2  0  0  0
  8  9  1  0  0  0
  8 10  1  0  0  0
 10 11  1  0  0  0
 11 12  1  0  0  0
 11 14  1  0  0  0
 12 13  1  0  0  0
 14 15  1  0  0  0
 15 16  1  0  0  0
 15 19  1  0  0  0
 16 17  1  0  0  0
 17 18  1  0  0  0
 19 20  1  0  0  0
 19 22  1  0  0  0
 20 21  1  0  0  0
 22 23  1  0  0  0
 22 10  1  0  0  0
 23 24  1  0  0  0
M  END
>  <CHROM.0>
-176.12120290,63.17237057,-60.94423223

>  <CHROM.1>
-1.74627079,-0.40659714,-99.96972913,64.45136336,63.37282210,-56.35607527
-64.32652188,-173.96170033,33.91909630,0.50398814,-62.86836068,3.07368534
0.76269841,1.89555988

>  <Energy>
31.188968641541038

>  <Genealogy>
[N-]=[N+]=NC=C(O)N[C@@H]1C(O)O[C@H](CO)[C@@H](O)[C@@H]1O (tautomer)
[N-]=[N+]=NC=C(O)N[C@@H]1[C@H](O)O[C@H](CO)[C@@H](O)[C@@H]1O (chirality)
[N-]=[N+]=N/C=C(\O)N[C@@H]1[C@H](O)O[C@H](CO)[C@@H](O)[C@@H]1O (cis-trans isomerization)
[N-]=[N+]=N/C=C(\O)N[C@@H]1[C@H](O)O[C@H](CO)[C@@H](O)[C@@H]1O (3D coordinates assigned)
[N-]=[N+]=N/C=C(\O)N[C@@H]1[C@H](O)O[C@H](CO)[C@@H](O)[C@@H]1O (nonaromatic ring conformer: 31.188968641541038 kcal/mol)

>  <Name>
42612215

>  <RI>
1.63646e+07

>  <Rbt.Current_Directory>
/home/edward/Documentos/Virtual_Screening/rDock/N-terminal/3

>  <Rbt.Executable>
rbdock ($Id: //depot/dev/client3/rdock/2013.1/src/exe/rbdock.cxx#4 $)

>  <Rbt.Library>
libRbt.so (2013.1, Build901 2013/11/27)

>  <Rbt.Parameter_File>
/home/edward/anaconda3/envs/MD/share/rdock-2013.1-1/data/scripts/dock.prm

>  <Rbt.Receptor>
parameters.prm

>  <SCORE>
-26.5435

>  <SCORE.INTER>
-22.1971

>  <SCORE.INTER.CONST>
1

>  <SCORE.INTER.POLAR>
-5.03173

>  <SCORE.INTER.REPUL>
0.00389273

>  <SCORE.INTER.ROT>
3

>  <SCORE.INTER.VDW>
-13.5087

>  <SCORE.INTER.norm>
-1.23317

>  <SCORE.INTRA>
-4.16647

>  <SCORE.INTRA.DIHEDRAL>
-4.23127

>  <SCORE.INTRA.DIHEDRAL.0>
6.11272

>  <SCORE.INTRA.POLAR>
-0.545952

>  <SCORE.INTRA.POLAR.0>
0

>  <SCORE.INTRA.REPUL>
-0.305949

>  <SCORE.INTRA.REPUL.0>
0.305949

>  <SCORE.INTRA.VDW>
1.33515

>  <SCORE.INTRA.VDW.0>
-2.23946

>  <SCORE.INTRA.norm>
-0.23147

>  <SCORE.RESTR>
0

>  <SCORE.RESTR.CAVITY>
0

>  <SCORE.RESTR.norm>
0

>  <SCORE.SYSTEM>
-0.179929

>  <SCORE.SYSTEM.CONST>
0

>  <SCORE.SYSTEM.DIHEDRAL>
0.127938

>  <SCORE.SYSTEM.REPUL>
0.169417

>  <SCORE.SYSTEM.VDW>
-1.09098

>  <SCORE.SYSTEM.norm>
-0.00999603

>  <SCORE.heavy>
18

>  <SCORE.norm>
-1.47464

>  <SMILES>
[N-]=[N+]=N/C=C(\O)N[C@@H]1[C@H](O)O[C@H](CO)[C@@H](O)[C@@H]1O

>  <UniqueID>
95

$$$$
25243963
  rDOCK(R)          3D
libRbt.so/2013.1/901 2013/11/27
 23 23  0  0  0  0  0  0  0  0999 V2000
   33.0568   -3.3165  -64.6822 C   0  0  0  0  0  0
   32.9780   -1.9935  -63.9930 C   0  0  0  0  0  0
   31.9270   -1.6777  -63.3723 O   0  0  0  0  0  0
   34.1075   -1.1093  -64.0145 N   0  0  0  0  0  0
   34.1322    0.1706  -63.2988 C   0  0  0  0  0  0
   34.5997   -0.0446  -61.8479 C   0  0  0  0  0  0
   33.6869   -0.8852  -61.1960 O   0  0  0  0  0  0
   34.6505    1.1951  -61.1615 O   0  0  0  0  0  0
   35.6505    2.0357  -61.7158 C   0  0  0  0  0  0
   35.7839    3.2782  -60.8271 C   0  0  0  0  0  0
   34.5000    3.7864  -60.5495 O   0  0  0  0  0  0
   34.6467    4.9838  -59.3450 P   0  0  0  0  0  0
   33.2655    5.4064  -58.9008 O   0  0  0  0  0  0
   35.4910    4.3707  -58.0129 O   0  5  0  0  0  0
   35.4645    6.3313  -59.9603 O   0  5  0  0  0  0
   35.2760    2.4268  -63.1666 C   0  0  0  0  0  0
   36.2965    3.2033  -63.7428 O   0  0  0  0  0  0
   35.0881    1.1507  -64.0073 C   0  0  0  0  0  0
   34.6231    1.4633  -65.2974 O   0  0  0  0  0  0
   34.9886   -1.4442  -64.4673 H   0  0  0  0  0  0
   33.8566   -1.8019  -61.5373 H   0  0  0  0  0  0
   36.1842    4.1308  -63.4073 H   0  0  0  0  0  0
   35.3279    1.9942  -65.7527 H   0  0  0  0  0  0
  1  2  1  0  0  0
  2  3  2  0  0  0
  2  4  1  0  0  0
  4  5  1  0  0  0
  4 20  1  0  0  0
  5  6  1  0  0  0
  6  7  1  0  0  0
  6  8  1  0  0  0
  7 21  1  0  0  0
  8  9  1  0  0  0
  9 10  1  0  0  0
  9 16  1  0  0  0
 10 11  1  0  0  0
 11 12  1  0  0  0
 12 13  2  0  0  0
 12 14  1  0  0  0
 12 15  1  0  0  0
 16 17  1  0  0  0
 16 18  1  0  0  0
 17 22  1  0  0  0
 18 19  1  0  0  0
 18  5  1  0  0  0
 19 23  1  0  0  0
M  END
>  <CHROM.0>
-73.62703196,-58.82897697,178.03455125

>  <CHROM.1>
86.52696186,75.00977210,-47.26208153,169.94106154,-172.38397786,-79.96368539
-172.53331759,34.49726097,1.87084028,-61.86850673,1.90420312,-1.01389776
-2.24755046

>  <Energy>
25.5067975999961

>  <Genealogy>
CC(=O)N[C@H]1[C@H](O)O[C@H](COP(=O)([O-])[O-])[C@@H](O)[C@@H]1O (chirality)
CC(=O)N[C@H]1[C@H](O)O[C@H](COP(=O)([O-])[O-])[C@@H](O)[C@@H]1O (3D coordinates assigned)
CC(=O)N[C@H]1[C@H](O)O[C@H](COP(=O)([O-])[O-])[C@@H](O)[C@@H]1O (nonaromatic ring conformer: 25.5067975999961 kcal/mol)

>  <Name>
25243963

>  <RI>
1.63646e+07

>  <Rbt.Current_Directory>
/home/edward/Documentos/Virtual_Screening/rDock/N-terminal/3

>  <Rbt.Executable>
rbdock ($Id: //depot/dev/client3/rdock/2013.1/src/exe/rbdock.cxx#4 $)

>  <Rbt.Library>
libRbt.so (2013.1, Build901 2013/11/27)

>  <Rbt.Parameter_File>
/home/edward/anaconda3/envs/MD/share/rdock-2013.1-1/data/scripts/dock.prm

>  <Rbt.Receptor>
parameters.prm

>  <SCORE>
-23.5347

>  <SCORE.INTER>
-23.1811

>  <SCORE.INTER.CONST>
1

>  <SCORE.INTER.POLAR>
-4.76859

>  <SCORE.INTER.REPUL>
0.0172235

>  <SCORE.INTER.ROT>
4

>  <SCORE.INTER.VDW>
-16.454

>  <SCORE.INTER.norm>
-1.22006

>  <SCORE.INTRA>
-0.298685

>  <SCORE.INTRA.DIHEDRAL>
-0.637959

>  <SCORE.INTRA.DIHEDRAL.0>
5.90998

>  <SCORE.INTRA.POLAR>
0

>  <SCORE.INTRA.POLAR.0>
0

>  <SCORE.INTRA.REPUL>
0

>  <SCORE.INTRA.REPUL.0>
0

>  <SCORE.INTRA.VDW>
0.0202951

>  <SCORE.INTRA.VDW.0>
-2.03161

>  <SCORE.INTRA.norm>
-0.0157202

>  <SCORE.RESTR>
0

>  <SCORE.RESTR.CAVITY>
0

>  <SCORE.RESTR.norm>
0

>  <SCORE.SYSTEM>
-0.0548987

>  <SCORE.SYSTEM.CONST>
0

>  <SCORE.SYSTEM.DIHEDRAL>
0.903961

>  <SCORE.SYSTEM.VDW>
-0.506879

>  <SCORE.SYSTEM.norm>
-0.00288941

>  <SCORE.heavy>
19

>  <SCORE.norm>
-1.23867

>  <SMILES>
CC(=O)N[C@H]1[C@H](O)O[C@H](COP(=O)([O-])[O-])[C@@H](O)[C@@H]1O

>  <UniqueID>
97

$$$$
25243937
  rDOCK(R)          3D
libRbt.so/2013.1/901 2013/11/27
 23 23  0  0  0  0  0  0  0  0999 V2000
   34.9814    3.3734  -62.3191 C   0  0  0  0  0  0
   35.4280    3.9805  -61.0294 C   0  0  0  0  0  0
   36.5299    3.6318  -60.5255 O   0  0  0  0  0  0
   34.5893    4.9316  -60.3592 N   0  0  0  0  0  0
   35.0004    5.6079  -59.1228 C   0  0  0  0  0  0
   35.1975    7.1159  -59.3841 C   0  0  0  0  0  0
   34.0241    7.6677  -59.9548 O   0  0  0  0  0  0
   34.3129    9.2952  -60.3794 P   0  0  0  0  0  0
   33.2242    9.7571  -61.3201 O   0  0  0  0  0  0
   34.3044   10.2789  -59.0026 O   0  5  0  0  0  0
   35.8081    9.4293  -61.1594 O   0  5  0  0  0  0
   35.5629    7.7901  -58.1880 O   0  0  0  0  0  0
   34.5455    7.7031  -57.2016 C   0  0  0  0  0  0
   34.9668    8.5567  -55.9997 C   0  0  0  0  0  0
   35.6189    9.7127  -56.4481 O   0  0  0  0  0  0
   34.3230    6.2348  -56.7768 C   0  0  0  0  0  0
   33.2820    6.1678  -55.8350 O   0  0  0  0  0  0
   33.9597    5.3878  -58.0068 C   0  0  0  0  0  0
   33.9322    4.0318  -57.6394 O   0  0  0  0  0  0
   33.6628    5.1586  -60.7873 H   0  0  0  0  0  0
   35.0094   10.1347  -57.1078 H   0  0  0  0  0  0
   33.3163    5.2618  -55.4309 H   0  0  0  0  0  0
   33.2434    3.9360  -56.9313 H   0  0  0  0  0  0
  1  2  1  0  0  0
  2  3  2  0  0  0
  2  4  1  0  0  0
  4  5  1  0  0  0
  4 20  1  0  0  0
  5  6  1  0  0  0
  6  7  1  0  0  0
  6 12  1  0  0  0
  7  8  1  0  0  0
  8  9  2  0  0  0
  8 10  1  0  0  0
  8 11  1  0  0  0
 12 13  1  0  0  0
 13 14  1  0  0  0
 13 16  1  0  0  0
 14 15  1  0  0  0
 15 21  1  0  0  0
 16 17  1  0  0  0
 16 18  1  0  0  0
 17 22  1  0  0  0
 18 19  1  0  0  0
 18  5  1  0  0  0
 19 23  1  0  0  0
M  END
>  <CHROM.0>
-173.94986472,-60.43947072,-177.75436956

>  <CHROM.1>
113.03133794,-174.40533002,164.26275375,37.23067019,52.82988392,-166.68750724
-179.25166551,34.67725631,7.06247328,-59.04894978,-0.80032270,1.46191455
-0.47941522

>  <Energy>
26.201436283868297

>  <Genealogy>
CC(=O)N[C@H]1[C@@H](OP(=O)([O-])[O-])O[C@H](CO)[C@@H](O)[C@@H]1O (3D coordinates assigned)
CC(=O)N[C@H]1[C@@H](OP(=O)([O-])[O-])O[C@H](CO)[C@@H](O)[C@@H]1O (nonaromatic ring conformer: 26.201436283868297 kcal/mol)

>  <Name>
25243937

>  <RI>
1.63646e+07

>  <Rbt.Current_Directory>
/home/edward/Documentos/Virtual_Screening/rDock/N-terminal/3

>  <Rbt.Executable>
rbdock ($Id: //depot/dev/client3/rdock/2013.1/src/exe/rbdock.cxx#4 $)

>  <Rbt.Library>
libRbt.so (2013.1, Build901 2013/11/27)

>  <Rbt.Parameter_File>
/home/edward/anaconda3/envs/MD/share/rdock-2013.1-1/data/scripts/dock.prm

>  <Rbt.Receptor>
parameters.prm

>  <SCORE>
-20.0125

>  <SCORE.INTER>
-12.9609

>  <SCORE.INTER.CONST>
1

>  <SCORE.INTER.POLAR>
-2.35929

>  <SCORE.INTER.REPUL>
0.0728373

>  <SCORE.INTER.ROT>
4

>  <SCORE.INTER.VDW>
-14.7035

>  <SCORE.INTER.norm>
-0.682152

>  <SCORE.INTRA>
-6.04425

>  <SCORE.INTRA.DIHEDRAL>
-2.9248

>  <SCORE.INTRA.DIHEDRAL.0>
7.44749

>  <SCORE.INTRA.POLAR>
-1.33119

>  <SCORE.INTRA.POLAR.0>
0

>  <SCORE.INTRA.REPUL>
-0.205656

>  <SCORE.INTRA.REPUL.0>
0.205656

>  <SCORE.INTRA.VDW>
0.972476

>  <SCORE.INTRA.VDW.0>
-3.32179

>  <SCORE.INTRA.norm>
-0.318118

>  <SCORE.RESTR>
0

>  <SCORE.RESTR.CAVITY>
0

>  <SCORE.RESTR.norm>
0

>  <SCORE.SYSTEM>
-1.0074

>  <SCORE.SYSTEM.CONST>
0

>  <SCORE.SYSTEM.DIHEDRAL>
0.204939

>  <SCORE.SYSTEM.REPUL>
0.0232058

>  <SCORE.SYSTEM.VDW>
-1.2259

>  <SCORE.SYSTEM.norm>
-0.0530213

>  <SCORE.heavy>
19

>  <SCORE.norm>
-1.05329

>  <SMILES>
CC(=O)N[C@H]1[C@@H](OP(=O)([O-])[O-])O[C@H](CO)[C@@H](O)[C@@H]1O

>  <UniqueID>
100

$$$$
24847493
  rDOCK(R)          3D
libRbt.so/2013.1/901 2013/11/27
 25 25  0  0  0  0  0  0  0  0999 V2000
   29.9899   -2.4499  -63.0307 O   0  0  0  0  0  0
   31.2048   -2.1658  -62.9828 N   0  0  0  0  0  0
   31.6476   -0.8436  -62.7917 N   0  0  0  0  0  0
   30.6891    0.2063  -62.4189 C   0  0  0  0  0  0
   30.7014    0.4256  -60.9075 C   0  0  0  0  0  0
   32.3037    1.0010  -60.3846 Cl  0  0  0  0  0  0
   33.0428   -0.5613  -63.0176 C   0  0  0  0  0  0
   33.8472   -1.5240  -63.1512 O   0  0  0  0  0  0
   33.5320    0.7895  -63.1118 N   0  0  0  0  0  0
   34.9475    1.0965  -63.3562 C   0  0  0  0  0  0
   35.8423    0.4195  -62.2662 C   0  0  0  0  0  0
   36.8277   -0.3631  -62.8874 O   0  0  0  0  0  0
   36.4983    1.3629  -61.4344 O   0  0  0  0  0  0
   35.5683    2.2785  -60.8879 C   0  0  0  0  0  0
   36.2394    3.0345  -59.7327 C   0  0  0  0  0  0
   37.4306    3.6339  -60.1663 O   0  0  0  0  0  0
   35.0721    3.2639  -61.9824 C   0  0  0  0  0  0
   33.7440    3.6374  -61.7137 O   0  0  0  0  0  0
   35.1448    2.6295  -63.3950 C   0  0  0  0  0  0
   36.3530    2.9587  -64.0396 O   0  0  0  0  0  0
   32.8487    1.5721  -63.1980 H   0  0  0  0  0  0
   36.3971   -0.8050  -63.6657 H   0  0  0  0  0  0
   38.0773    2.8978  -60.3271 H   0  0  0  0  0  0
   33.7481    4.1147  -60.8434 H   0  0  0  0  0  0
   36.4097    3.9458  -64.1118 H   0  0  0  0  0  0
  1  2  2  0  0  0
  2  3  1  0  0  0
  3  4  1  0  0  0
  3  7  1  0  0  0
  4  5  1  0  0  0
  5  6  1  0  0  0
  7  8  2  0  0  0
  7  9  1  0  0  0
  9 10  1  0  0  0
  9 21  1  0  0  0
 10 11  1  0  0  0
 11 12  1  0  0  0
 11 13  1  0  0  0
 12 22  1  0  0  0
 13 14  1  0  0  0
 14 15  1  0  0  0
 14 17  1  0  0  0
 15 16  1  0  0  0
 16 23  1  0  0  0
 17 18  1  0  0  0
 17 19  1  0  0  0
 18 24  1  0  0  0
 19 20  1  0  0  0
 19 10  1  0  0  0
 20 25  1  0  0  0
M  END
>  <CHROM.0>
-176.84878288,-57.40752439,62.52059777

>  <CHROM.1>
10.26764198,96.89893133,62.86373182,-56.18358921,-39.20739964,54.61761466
-70.32962837,62.81114840,175.41879040,33.96365253,0.96627839,-62.06262105
-2.57453388,0.33532406,0.70511015

>  <Energy>
39.33236186872171

>  <Genealogy>
O=NN(CCCl)C(=O)N[C@@H]1[C@@H](O)O[C@@H](CO)[C@H](O)[C@H]1O (chirality)
O=NN(CCCl)C(=O)N[C@@H]1[C@@H](O)O[C@@H](CO)[C@H](O)[C@H]1O (3D coordinates assigned)
O=NN(CCCl)C(=O)N[C@@H]1[C@@H](O)O[C@@H](CO)[C@H](O)[C@H]1O (nonaromatic ring conformer: 39.33236186872171 kcal/mol)

>  <Name>
24847493

>  <RI>
1.63646e+07

>  <Rbt.Current_Directory>
/home/edward/Documentos/Virtual_Screening/rDock/N-terminal/3

>  <Rbt.Executable>
rbdock ($Id: //depot/dev/client3/rdock/2013.1/src/exe/rbdock.cxx#4 $)

>  <Rbt.Library>
libRbt.so (2013.1, Build901 2013/11/27)

>  <Rbt.Parameter_File>
/home/edward/anaconda3/envs/MD/share/rdock-2013.1-1/data/scripts/dock.prm

>  <Rbt.Receptor>
parameters.prm

>  <SCORE>
-22.7472

>  <SCORE.INTER>
-20.8442

>  <SCORE.INTER.CONST>
1

>  <SCORE.INTER.POLAR>
-4.55554

>  <SCORE.INTER.REPUL>
0.0024347

>  <SCORE.INTER.ROT>
5

>  <SCORE.INTER.VDW>
-15.7676

>  <SCORE.INTER.norm>
-1.04221

>  <SCORE.INTRA>
-0.807239

>  <SCORE.INTRA.DIHEDRAL>
-0.376555

>  <SCORE.INTRA.DIHEDRAL.0>
5.75224

>  <SCORE.INTRA.POLAR>
0.00637295

>  <SCORE.INTRA.POLAR.0>
-0.00637295

>  <SCORE.INTRA.REPUL>
0

>  <SCORE.INTRA.REPUL.0>
0

>  <SCORE.INTRA.VDW>
-0.64063

>  <SCORE.INTRA.VDW.0>
-2.16536

>  <SCORE.INTRA.norm>
-0.040362

>  <SCORE.RESTR>
0

>  <SCORE.RESTR.CAVITY>
0

>  <SCORE.RESTR.norm>
0

>  <SCORE.SYSTEM>
-1.09576

>  <SCORE.SYSTEM.CONST>
0

>  <SCORE.SYSTEM.DIHEDRAL>
0.113315

>  <SCORE.SYSTEM.REPUL>
0.0313332

>  <SCORE.SYSTEM.VDW>
-1.30908

>  <SCORE.SYSTEM.norm>
-0.0547878

>  <SCORE.heavy>
20

>  <SCORE.norm>
-1.13736

>  <SMILES>
O=NN(CCCl)C(=O)N[C@@H]1[C@@H](O)O[C@@H](CO)[C@H](O)[C@H]1O

>  <UniqueID>
105

$$$$
24779679
  rDOCK(R)          3D
libRbt.so/2013.1/901 2013/11/27
 26 26  0  0  0  0  0  0  0  0999 V2000
   31.6260    0.9839  -63.7143 H   0  0  0  0  0  0
   31.2659    0.0912  -63.3995 O   0  0  0  0  0  0
   32.0602   -0.7922  -62.6700 C   0  0  0  0  0  0
   33.2986   -0.5055  -62.3993 N   0  0  0  0  0  0
   33.9742    0.7442  -62.7635 C   0  0  0  0  0  0
   33.7916    1.7998  -61.6524 C   0  0  0  0  0  0
   32.4037    2.0549  -61.4373 O   0  0  0  0  0  0
   31.9170    2.8934  -60.4277 C   0  0  0  0  0  0
   30.6863    3.1632  -60.3556 O   0  0  0  0  0  0
   32.8321    3.4319  -59.4674 N   0  0  0  0  0  0
   33.8332    3.1367  -59.5150 H   0  0  0  0  0  0
   32.4069    4.2966  -58.3687 C   0  0  0  0  0  0
   33.4718    5.3589  -58.0801 C   0  0  0  0  0  0
   33.0766    6.2265  -56.8890 C   0  0  0  0  0  0
   34.3498    1.3426  -60.4324 O   0  0  0  0  0  0
   35.7591    1.1648  -60.5094 C   0  0  0  0  0  0
   36.5179    2.5106  -60.5470 C   0  0  0  0  0  0
   35.9619    3.4145  -59.6286 O   0  0  0  0  0  0
   36.4271    4.2818  -59.7567 H   0  0  0  0  0  0
   36.1727    0.1665  -61.6281 C   0  0  0  0  0  0
   35.8427   -1.1417  -61.2327 O   0  0  0  0  0  0
   34.8548   -1.2234  -61.2927 H   0  0  0  0  0  0
   35.4755    0.4714  -62.9684 C   0  0  0  0  0  0
   36.0921    1.5754  -63.5817 O   0  0  0  0  0  0
   35.6192    1.7312  -64.4407 H   0  0  0  0  0  0
   31.4980   -2.1052  -62.2304 C   0  0  0  0  0  0
  1  2  1  0  0  0
  2  3  1  0  0  0
  3  4  2  0  0  0
  3 26  1  0  0  0
  4  5  1  0  0  0
  5  6  1  0  0  0
  6  7  1  0  0  0
  6 15  1  0  0  0
  7  8  1  0  0  0
  8  9  2  0  0  0
  8 10  1  0  0  0
 10 11  1  0  0  0
 10 12  1  0  0  0
 12 13  1  0  0  0
 13 14  1  0  0  0
 15 16  1  0  0  0
 16 17  1  0  0  0
 16 20  1  0  0  0
 17 18  1  0  0  0
 18 19  1  0  0  0
 20 21  1  0  0  0
 20 23  1  0  0  0
 21 22  1  0  0  0
 23 24  1  0  0  0
 23  5  1  0  0  0
 24 25  1  0  0  0
M  END
>  <CHROM.0>
70.80452523,62.85955680,179.55619277

>  <CHROM.1>
-1.56853690,89.02958294,175.25208026,174.28737764,-144.63211068,-177.10360521
42.29118352,-174.66879995,72.86296223,-57.78227266,33.76145533,1.73809421
-60.98527851,1.48018511,-0.00106697,-2.45976604

>  <Energy>
34.14668361648808

>  <Genealogy>
CCCNC(=O)O[C@H]1O[C@H](CO)[C@@H](O)[C@H](O)[C@H]1N=C(C)O (tautomer)
CCCNC(=O)O[C@H]1O[C@H](CO)[C@@H](O)[C@H](O)[C@H]1/N=C(/C)O (cis-trans isomerization)
CCCNC(=O)O[C@H]1O[C@H](CO)[C@@H](O)[C@H](O)[C@H]1/N=C(/C)O (3D coordinates assigned)
CCCNC(=O)O[C@H]1O[C@H](CO)[C@@H](O)[C@H](O)[C@H]1/N=C(/C)O (nonaromatic ring conformer: 34.14668361648808 kcal/mol)

>  <Name>
24779679

>  <RI>
1.63646e+07

>  <Rbt.Current_Directory>
/home/edward/Documentos/Virtual_Screening/rDock/N-terminal/3

>  <Rbt.Executable>
rbdock ($Id: //depot/dev/client3/rdock/2013.1/src/exe/rbdock.cxx#4 $)

>  <Rbt.Library>
libRbt.so (2013.1, Build901 2013/11/27)

>  <Rbt.Parameter_File>
/home/edward/anaconda3/envs/MD/share/rdock-2013.1-1/data/scripts/dock.prm

>  <Rbt.Receptor>
parameters.prm

>  <SCORE>
-18.5601

>  <SCORE.INTER>
-8.62725

>  <SCORE.INTER.CONST>
1

>  <SCORE.INTER.POLAR>
-1.68691

>  <SCORE.INTER.REPUL>
0.350624

>  <SCORE.INTER.ROT>
6

>  <SCORE.INTER.VDW>
-16.0449

>  <SCORE.INTER.norm>
-0.410821

>  <SCORE.INTRA>
-10.7394

>  <SCORE.INTRA.DIHEDRAL>
-6.95869

>  <SCORE.INTRA.DIHEDRAL.0>
11.9301

>  <SCORE.INTRA.POLAR>
-2.09703

>  <SCORE.INTRA.POLAR.0>
0

>  <SCORE.INTRA.REPUL>
-0.0505758

>  <SCORE.INTRA.REPUL.0>
0.0505758

>  <SCORE.INTRA.VDW>
0.122717

>  <SCORE.INTRA.VDW.0>
-3.31554

>  <SCORE.INTRA.norm>
-0.511401

>  <SCORE.RESTR>
0

>  <SCORE.RESTR.CAVITY>
0

>  <SCORE.RESTR.norm>
0

>  <SCORE.SYSTEM>
0.806569

>  <SCORE.SYSTEM.CONST>
0

>  <SCORE.SYSTEM.DIHEDRAL>
0.602125

>  <SCORE.SYSTEM.POLAR>
-0.0237143

>  <SCORE.SYSTEM.REPUL>
0.142011

>  <SCORE.SYSTEM.VDW>
-0.12392

>  <SCORE.SYSTEM.norm>
0.038408

>  <SCORE.heavy>
21

>  <SCORE.norm>
-0.883814

>  <SMILES>
CCCNC(=O)O[C@H]1O[C@H](CO)[C@@H](O)[C@H](O)[C@H]1/N=C(/C)O

>  <UniqueID>
108

$$$$
22833605
  rDOCK(R)          3D
libRbt.so/2013.1/901 2013/11/27
 23 23  0  0  0  0  0  0  0  0999 V2000
   31.0918    0.3774  -63.0146 C   0  0  0  0  0  0
   32.5782    0.0318  -62.9036 C   0  0  0  0  0  0
   33.2579    1.0339  -62.1655 O   0  0  0  0  0  0
   34.6290    0.7187  -61.9541 C   0  0  0  0  0  0
   35.1306    1.3945  -60.6588 C   0  0  0  0  0  0
   34.3041    1.0496  -59.5767 O   0  0  0  0  0  0
   35.1504    2.9312  -60.8382 C   0  0  0  0  0  0
   35.6821    3.6194  -59.5720 C   0  0  0  0  0  0
   36.9479    3.1178  -59.2367 O   0  0  0  0  0  0
   35.9873    3.2891  -61.9258 O   0  0  0  0  0  0
   35.4669    2.7907  -63.1476 C   0  0  0  0  0  0
   36.2472    3.2748  -64.2093 O   0  0  0  0  0  0
   35.4625    1.2404  -63.1467 C   0  0  0  0  0  0
   34.9568    0.7094  -64.4201 N   0  3  0  0  0  0
   32.7324   -1.2726  -62.1813 C   0  0  0  0  0  0
   32.4786   -2.3571  -62.7692 O   0  0  0  0  0  0
   33.1177   -1.2905  -60.8460 O   0  5  0  0  0  0
   34.2149    0.0608  -59.5892 H   0  0  0  0  0  0
   37.1512    3.4470  -58.3223 H   0  0  0  0  0  0
   36.2897    4.2625  -64.1148 H   0  0  0  0  0  0
   33.9547    0.9800  -64.5453 H   0  0  0  0  0  0
   35.4998    1.1175  -65.2150 H   0  0  0  0  0  0
   35.0328   -0.3335  -64.4469 H   0  0  0  0  0  0
  1  2  1  0  0  0
  2  3  1  0  0  0
  2 15  1  0  0  0
  3  4  1  0  0  0
  4  5  1  0  0  0
  5  6  1  0  0  0
  5  7  1  0  0  0
  6 18  1  0  0  0
  7  8  1  0  0  0
  7 10  1  0  0  0
  8  9  1  0  0  0
  9 19  1  0  0  0
 10 11  1  0  0  0
 11 12  1  0  0  0
 11 13  1  0  0  0
 12 20  1  0  0  0
 13 14  1  0  0  0
 13  4  1  0  0  0
 14 21  1  0  0  0
 14 22  1  0  0  0
 14 23  1  0  0  0
 15 16  2  0  0  0
 15 17  1  0  0  0
M  END
>  <CHROM.0>
-172.94027879,64.99039405,64.66522993

>  <CHROM.1>
176.04854853,75.64922979,-152.55973404,50.15226786,55.61210928,-168.11056605
-53.02364650,58.36770523,34.45064492,1.23049470,-61.91107241,-2.88650065
0.85523105,1.60746889

>  <Energy>
31.401402642261775

>  <Genealogy>
C[C@@H](O[C@@H]1[C@H](O)[C@@H](CO)O[C@@H](O)[C@@H]1[NH3+])C(=O)[O-] (protonated)
C[C@@H](O[C@@H]1[C@H](O)[C@@H](CO)O[C@@H](O)[C@@H]1[NH3+])C(=O)[O-] (3D coordinates assigned)
C[C@@H](O[C@@H]1[C@H](O)[C@@H](CO)O[C@@H](O)[C@@H]1[NH3+])C(=O)[O-] (nonaromatic ring conformer: 31.401402642261775 kcal/mol)

>  <Name>
22833605

>  <RI>
1.63646e+07

>  <Rbt.Current_Directory>
/home/edward/Documentos/Virtual_Screening/rDock/N-terminal/3

>  <Rbt.Executable>
rbdock ($Id: //depot/dev/client3/rdock/2013.1/src/exe/rbdock.cxx#4 $)

>  <Rbt.Library>
libRbt.so (2013.1, Build901 2013/11/27)

>  <Rbt.Parameter_File>
/home/edward/anaconda3/envs/MD/share/rdock-2013.1-1/data/scripts/dock.prm

>  <Rbt.Receptor>
parameters.prm

>  <SCORE>
-22.0073

>  <SCORE.INTER>
-17.4061

>  <SCORE.INTER.CONST>
1

>  <SCORE.INTER.POLAR>
-3.55622

>  <SCORE.INTER.REPUL>
0.114478

>  <SCORE.INTER.ROT>
4

>  <SCORE.INTER.VDW>
-15.2874

>  <SCORE.INTER.norm>
-1.02389

>  <SCORE.INTRA>
-4.36375

>  <SCORE.INTRA.DIHEDRAL>
-7.43866

>  <SCORE.INTRA.DIHEDRAL.0>
13.146

>  <SCORE.INTRA.POLAR>
-0.821543

>  <SCORE.INTRA.POLAR.0>
0

>  <SCORE.INTRA.REPUL>
0

>  <SCORE.INTRA.REPUL.0>
0

>  <SCORE.INTRA.VDW>
2.14883

>  <SCORE.INTRA.VDW.0>
-2.42186

>  <SCORE.INTRA.norm>
-0.256691

>  <SCORE.RESTR>
0

>  <SCORE.RESTR.CAVITY>
0

>  <SCORE.RESTR.norm>
0

>  <SCORE.SYSTEM>
-0.237459

>  <SCORE.SYSTEM.CONST>
0

>  <SCORE.SYSTEM.DIHEDRAL>
0.47223

>  <SCORE.SYSTEM.REPUL>
0.160448

>  <SCORE.SYSTEM.VDW>
-1.27581

>  <SCORE.SYSTEM.norm>
-0.0139682

>  <SCORE.heavy>
17

>  <SCORE.norm>
-1.29455

>  <SMILES>
C[C@@H](O[C@@H]1[C@H](O)[C@@H](CO)O[C@@H](O)[C@@H]1[NH3+])C(=O)[O-]

>  <UniqueID>
111

$$$$
16738680
  rDOCK(R)          3D
libRbt.so/2013.1/901 2013/11/27
 24 24  0  0  0  0  0  0  0  0999 V2000
   32.5913   -2.8800  -65.2328 C   0  0  0  0  0  0
   33.6154   -2.1110  -64.4642 C   0  0  0  0  0  0
   34.6895   -2.6755  -64.1215 O   0  0  0  0  0  0
   33.3642   -0.7425  -64.1143 N   0  0  0  0  0  0
   34.2642    0.0390  -63.2592 C   0  0  0  0  0  0
   35.2738    0.8233  -64.1212 C   0  0  0  0  0  0
   34.6184    1.6244  -65.0737 O   0  0  0  0  0  0
   36.1407    1.6000  -63.3084 O   0  0  0  0  0  0
   35.4249    2.5752  -62.5639 C   0  0  0  0  0  0
   36.4398    3.4363  -61.7968 C   0  0  0  0  0  0
   37.4182    3.9337  -62.6694 O   0  0  0  0  0  0
   34.4332    1.9027  -61.5864 C   0  0  0  0  0  0
   33.7101    2.8900  -60.8956 O   0  0  0  0  0  0
   33.4594    0.9988  -62.3635 C   0  0  0  0  0  0
   32.6976    0.2468  -61.4292 O   0  0  0  0  0  0
   31.5362    0.9375  -60.9989 C   0  0  0  0  0  0
   30.8463    0.1606  -59.8747 C   0  0  0  0  0  0
   30.5994    1.0616  -62.1628 C   0  0  0  0  0  0
   30.8180    0.4199  -63.2241 O   0  0  0  0  0  0
   29.5086    1.9201  -62.0935 O   0  5  0  0  0  0
   32.4339   -0.3365  -64.3651 H   0  0  0  0  0  0
   35.3288    2.1196  -65.5587 H   0  0  0  0  0  0
   36.9457    4.5042  -63.3305 H   0  0  0  0  0  0
   34.3631    3.3898  -60.3391 H   0  0  0  0  0  0
  1  2  1  0  0  0
  2  3  2  0  0  0
  2  4  1  0  0  0
  4  5  1  0  0  0
  4 21  1  0  0  0
  5  6  1  0  0  0
  6  7  1  0  0  0
  6  8  1  0  0  0
  7 22  1  0  0  0
  8  9  1  0  0  0
  9 10  1  0  0  0
  9 12  1  0  0  0
 10 11  1  0  0  0
 11 23  1  0  0  0
 12 13  1  0  0  0
 12 14  1  0  0  0
 13 24  1  0  0  0
 14 15  1  0  0  0
 14  5  1  0  0  0
 15 16  1  0  0  0
 16 17  1  0  0  0
 16 18  1  0  0  0
 18 19  2  0  0  0
 18 20  1  0  0  0
M  END
>  <CHROM.0>
-176.63191856,64.31746869,62.59646131

>  <CHROM.1>
93.34018025,177.78349308,52.33078465,61.77884693,-64.80194633,-153.65219259
-173.20778488,10.63551126,33.59308999,0.84903041,-62.77777198,-2.65246239
0.37372444,0.62415907

>  <Energy>
32.03776711549422

>  <Genealogy>
CC(=O)N[C@H]1[C@@H](O)O[C@H](CO)[C@@H](O)[C@@H]1O[C@H](C)C(=O)[O-] (chirality)
CC(=O)N[C@H]1[C@@H](O)O[C@H](CO)[C@@H](O)[C@@H]1O[C@H](C)C(=O)[O-] (3D coordinates assigned)
CC(=O)N[C@H]1[C@@H](O)O[C@H](CO)[C@@H](O)[C@@H]1O[C@H](C)C(=O)[O-] (nonaromatic ring conformer: 32.03776711549422 kcal/mol)

>  <Name>
16738680

>  <RI>
1.63646e+07

>  <Rbt.Current_Directory>
/home/edward/Documentos/Virtual_Screening/rDock/N-terminal/3

>  <Rbt.Executable>
rbdock ($Id: //depot/dev/client3/rdock/2013.1/src/exe/rbdock.cxx#4 $)

>  <Rbt.Library>
libRbt.so (2013.1, Build901 2013/11/27)

>  <Rbt.Parameter_File>
/home/edward/anaconda3/envs/MD/share/rdock-2013.1-1/data/scripts/dock.prm

>  <Rbt.Receptor>
parameters.prm

>  <SCORE>
-19.8444

>  <SCORE.INTER>
-14.2696

>  <SCORE.INTER.CONST>
1

>  <SCORE.INTER.POLAR>
-3.23627

>  <SCORE.INTER.REPUL>
0.0436097

>  <SCORE.INTER.ROT>
5

>  <SCORE.INTER.VDW>
-13.8843

>  <SCORE.INTER.norm>
-0.713478

>  <SCORE.INTRA>
-5.26697

>  <SCORE.INTRA.DIHEDRAL>
-8.92122

>  <SCORE.INTRA.DIHEDRAL.0>
15.0411

>  <SCORE.INTRA.POLAR>
-0.837569

>  <SCORE.INTRA.POLAR.0>
0

>  <SCORE.INTRA.REPUL>
0

>  <SCORE.INTRA.REPUL.0>
0

>  <SCORE.INTRA.VDW>
2.04138

>  <SCORE.INTRA.VDW.0>
-3.76321

>  <SCORE.INTRA.norm>
-0.263348

>  <SCORE.RESTR>
0

>  <SCORE.RESTR.CAVITY>
0

>  <SCORE.RESTR.norm>
0

>  <SCORE.SYSTEM>
-0.307896

>  <SCORE.SYSTEM.CONST>
0

>  <SCORE.SYSTEM.DIHEDRAL>
0.180649

>  <SCORE.SYSTEM.REPUL>
0.170839

>  <SCORE.SYSTEM.VDW>
-1.25242

>  <SCORE.SYSTEM.norm>
-0.0153948

>  <SCORE.heavy>
20

>  <SCORE.norm>
-0.992221

>  <SMILES>
CC(=O)N[C@H]1[C@@H](O)O[C@H](CO)[C@@H](O)[C@@H]1O[C@H](C)C(=O)[O-]

>  <UniqueID>
112

$$$$
12917651
  rDOCK(R)          3D
libRbt.so/2013.1/901 2013/11/27
 24 24  0  0  0  0  0  0  0  0999 V2000
   31.3447   -2.7923  -59.1820 C   0  0  0  0  0  0
   31.4739   -1.6952  -60.1886 C   0  0  0  0  0  0
   30.3982   -1.3886  -61.0214 O   0  0  0  0  0  0
   32.6020   -1.0598  -60.2997 N   0  0  0  0  0  0
   32.8609    0.0249  -61.2496 C   0  0  0  0  0  0
   34.1131    0.8261  -60.8299 C   0  0  0  0  0  0
   33.8915    1.4364  -59.5854 O   0  0  0  0  0  0
   34.3714    1.8478  -61.7748 O   0  0  0  0  0  0
   34.7295    1.2972  -63.0313 C   0  0  0  0  0  0
   35.1591    2.4556  -63.9446 C   0  0  0  0  0  0
   36.4642    2.8743  -63.6409 O   0  0  0  0  0  0
   33.5350    0.5152  -63.6300 C   0  0  0  0  0  0
   33.9151   -0.0769  -64.8459 O   0  0  0  0  0  0
   33.0801   -0.5806  -62.6456 C   0  0  0  0  0  0
   31.8521   -1.1381  -63.0948 O   0  0  0  0  0  0
   32.0244   -1.9489  -64.2443 C   0  0  0  0  0  0
   30.7147   -1.9688  -65.0281 C   0  0  0  0  0  0
   32.3902   -3.3487  -63.8375 C   0  0  0  0  0  0
   31.8129   -3.8955  -62.8613 O   0  0  0  0  0  0
   33.3744   -4.0437  -64.5301 O   0  5  0  0  0  0
   30.5117   -0.7751  -61.8194 H   0  0  0  0  0  0
   33.0983    2.0259  -59.6830 H   0  0  0  0  0  0
   36.5776    3.7824  -64.0254 H   0  0  0  0  0  0
   34.7258   -0.6199  -64.6625 H   0  0  0  0  0  0
  1  2  1  0  0  0
  2  3  1  0  0  0
  2  4  2  0  0  0
  3 21  1  0  0  0
  4  5  1  0  0  0
  5  6  1  0  0  0
  6  7  1  0  0  0
  6  8  1  0  0  0
  7 22  1  0  0  0
  8  9  1  0  0  0
  9 10  1  0  0  0
  9 12  1  0  0  0
 10 11  1  0  0  0
 11 23  1  0  0  0
 12 13  1  0  0  0
 12 14  1  0  0  0
 13 24  1  0  0  0
 14 15  1  0  0  0
 14  5  1  0  0  0
 15 16  1  0  0  0
 16 17  1  0  0  0
 16 18  1  0  0  0
 18 19  2  0  0  0
 18 20  1  0  0  0
M  END
>  <CHROM.0>
-172.30759122,64.68291945,-178.94324494

>  <CHROM.1>
-168.53141648,162.61878951,-58.69496217,78.24995812,-161.53108066,54.39061586
-168.08382215,-153.89444276,41.46473289,33.02234065,-0.60395786,-62.48612366
2.86006934,-0.92334567,-1.96701923

>  <Energy>
32.90985044117413

>  <Genealogy>
CC(=O)N[C@H]1[C@H](O)O[C@H](CO)[C@@H](O)[C@@H]1O[C@H](C)C(=O)[O-] (protonated)
CC(O)=N[C@H]1[C@H](O)O[C@H](CO)[C@@H](O)[C@@H]1O[C@H](C)C(=O)[O-] (tautomer)
CC(O)=N[C@H]1[C@H](O)O[C@H](CO)[C@@H](O)[C@@H]1O[C@H](C)C(=O)[O-] (3D coordinates assigned)
CC(O)=N[C@H]1[C@H](O)O[C@H](CO)[C@@H](O)[C@@H]1O[C@H](C)C(=O)[O-] (nonaromatic ring conformer: 32.90985044117413 kcal/mol)

>  <Name>
12917651

>  <RI>
1.63646e+07

>  <Rbt.Current_Directory>
/home/edward/Documentos/Virtual_Screening/rDock/N-terminal/3

>  <Rbt.Executable>
rbdock ($Id: //depot/dev/client3/rdock/2013.1/src/exe/rbdock.cxx#4 $)

>  <Rbt.Library>
libRbt.so (2013.1, Build901 2013/11/27)

>  <Rbt.Parameter_File>
/home/edward/anaconda3/envs/MD/share/rdock-2013.1-1/data/scripts/dock.prm

>  <Rbt.Receptor>
parameters.prm

>  <SCORE>
-21.3186

>  <SCORE.INTER>
-14.4336

>  <SCORE.INTER.CONST>
1

>  <SCORE.INTER.POLAR>
-3.58802

>  <SCORE.INTER.REPUL>
0

>  <SCORE.INTER.ROT>
5

>  <SCORE.INTER.VDW>
-12.6344

>  <SCORE.INTER.norm>
-0.721682

>  <SCORE.INTRA>
-6.72117

>  <SCORE.INTRA.DIHEDRAL>
-14.049

>  <SCORE.INTRA.DIHEDRAL.0>
24.2027

>  <SCORE.INTRA.POLAR>
-0.394613

>  <SCORE.INTRA.POLAR.0>
0

>  <SCORE.INTRA.REPUL>
0

>  <SCORE.INTRA.REPUL.0>
0

>  <SCORE.INTRA.VDW>
1.64504

>  <SCORE.INTRA.VDW.0>
-3.73153

>  <SCORE.INTRA.norm>
-0.336058

>  <SCORE.RESTR>
0

>  <SCORE.RESTR.CAVITY>
0

>  <SCORE.RESTR.norm>
0

>  <SCORE.SYSTEM>
-0.163796

>  <SCORE.SYSTEM.CONST>
0

>  <SCORE.SYSTEM.DIHEDRAL>
0.401269

>  <SCORE.SYSTEM.REPUL>
0.158642

>  <SCORE.SYSTEM.VDW>
-1.15764

>  <SCORE.SYSTEM.norm>
-0.00818981

>  <SCORE.heavy>
20

>  <SCORE.norm>
-1.06593

>  <SMILES>
CC(O)=N[C@H]1[C@H](O)O[C@H](CO)[C@@H](O)[C@@H]1O[C@H](C)C(=O)[O-]

>  <UniqueID>
115

$$$$
12600646
  rDOCK(R)          3D
libRbt.so/2013.1/901 2013/11/27
 25 25  0  0  0  0  0  0  0  0999 V2000
   34.6736   -3.5314  -64.3187 O   0  0  0  0  0  0
   33.4850   -3.8889  -64.4530 N   0  0  0  0  0  0
   32.4325   -2.9569  -64.5168 N   0  0  0  0  0  0
   31.1558   -3.3920  -65.0882 C   0  0  0  0  0  0
   31.1815   -3.3214  -66.6159 C   0  0  0  0  0  0
   32.3517   -4.4818  -67.2978 Cl  0  0  0  0  0  0
   32.5707   -1.6266  -63.9802 C   0  0  0  0  0  0
   31.5601   -1.0344  -63.5117 O   0  0  0  0  0  0
   33.8385   -0.9534  -64.0201 N   0  0  0  0  0  0
   34.0667    0.3476  -63.3833 C   0  0  0  0  0  0
   34.5359    0.1435  -61.9297 C   0  0  0  0  0  0
   33.5334   -0.5330  -61.2210 O   0  0  0  0  0  0
   34.7698    1.3963  -61.3083 O   0  0  0  0  0  0
   35.8609    2.0620  -61.9231 C   0  0  0  0  0  0
   36.1718    3.3297  -61.1198 C   0  0  0  0  0  0
   36.5937    2.9791  -59.8308 O   0  0  0  0  0  0
   35.5111    2.4145  -63.3914 C   0  0  0  0  0  0
   36.5758    3.0780  -64.0285 O   0  0  0  0  0  0
   35.1291    1.1408  -64.1675 C   0  0  0  0  0  0
   34.6293    1.5033  -65.4292 O   0  0  0  0  0  0
   34.5832   -1.3309  -64.6487 H   0  0  0  0  0  0
   33.8097   -0.5246  -60.2675 H   0  0  0  0  0  0
   36.7203    3.8328  -59.3406 H   0  0  0  0  0  0
   36.5983    4.0099  -63.6861 H   0  0  0  0  0  0
   35.3977    1.8427  -65.9581 H   0  0  0  0  0  0
  1  2  2  0  0  0
  2  3  1  0  0  0
  3  4  1  0  0  0
  3  7  1  0  0  0
  4  5  1  0  0  0
  5  6  1  0  0  0
  7  8  2  0  0  0
  7  9  1  0  0  0
  9 10  1  0  0  0
  9 21  1  0  0  0
 10 11  1  0  0  0
 11 12  1  0  0  0
 11 13  1  0  0  0
 12 22  1  0  0  0
 13 14  1  0  0  0
 14 15  1  0  0  0
 14 17  1  0  0  0
 15 16  1  0  0  0
 16 23  1  0  0  0
 17 18  1  0  0  0
 17 19  1  0  0  0
 18 24  1  0  0  0
 19 20  1  0  0  0
 19 10  1  0  0  0
 20 25  1  0  0  0
M  END
>  <CHROM.0>
-177.06155932,-178.67212197,178.56076487

>  <CHROM.1>
160.89698163,-82.48292206,65.48854032,89.76386939,-171.70160937,64.01778308
-176.25553733,-75.02032735,-168.75886715,33.95847846,-0.59288896,-63.79139226
2.48987714,-0.99664215,-1.71608607

>  <Energy>
31.022238213356104

>  <Genealogy>
O=NN(CCCl)C(=O)N[C@H]1[C@H](O)O[C@H](CO)[C@@H](O)[C@@H]1O (chirality)
O=NN(CCCl)C(=O)N[C@H]1[C@H](O)O[C@H](CO)[C@@H](O)[C@@H]1O (3D coordinates assigned)
O=NN(CCCl)C(=O)N[C@H]1[C@H](O)O[C@H](CO)[C@@H](O)[C@@H]1O (nonaromatic ring conformer: 31.022238213356104 kcal/mol)

>  <Name>
12600646

>  <RI>
1.63646e+07

>  <Rbt.Current_Directory>
/home/edward/Documentos/Virtual_Screening/rDock/N-terminal/3

>  <Rbt.Executable>
rbdock ($Id: //depot/dev/client3/rdock/2013.1/src/exe/rbdock.cxx#4 $)

>  <Rbt.Library>
libRbt.so (2013.1, Build901 2013/11/27)

>  <Rbt.Parameter_File>
/home/edward/anaconda3/envs/MD/share/rdock-2013.1-1/data/scripts/dock.prm

>  <Rbt.Receptor>
parameters.prm

>  <SCORE>
-23.9251

>  <SCORE.INTER>
-24.1379

>  <SCORE.INTER.CONST>
1

>  <SCORE.INTER.POLAR>
-5.25644

>  <SCORE.INTER.REPUL>
0

>  <SCORE.INTER.ROT>
5

>  <SCORE.INTER.VDW>
-16.666

>  <SCORE.INTER.norm>
-1.2069

>  <SCORE.INTRA>
0.670681

>  <SCORE.INTRA.DIHEDRAL>
0.716164

>  <SCORE.INTRA.DIHEDRAL.0>
5.10834

>  <SCORE.INTRA.POLAR>
0

>  <SCORE.INTRA.POLAR.0>
0

>  <SCORE.INTRA.REPUL>
0

>  <SCORE.INTRA.REPUL.0>
0

>  <SCORE.INTRA.VDW>
0.312599

>  <SCORE.INTRA.VDW.0>
-2.83253

>  <SCORE.INTRA.norm>
0.0335341

>  <SCORE.RESTR>
0

>  <SCORE.RESTR.CAVITY>
0

>  <SCORE.RESTR.norm>
0

>  <SCORE.SYSTEM>
-0.457821

>  <SCORE.SYSTEM.CONST>
0

>  <SCORE.SYSTEM.DIHEDRAL>
0.0614402

>  <SCORE.SYSTEM.REPUL>
0.0884561

>  <SCORE.SYSTEM.VDW>
-0.930822

>  <SCORE.SYSTEM.norm>
-0.0228911

>  <SCORE.heavy>
20

>  <SCORE.norm>
-1.19625

>  <SMILES>
O=NN(CCCl)C(=O)N[C@H]1[C@H](O)O[C@H](CO)[C@@H](O)[C@@H]1O

>  <UniqueID>
118

$$$$
12302999
  rDOCK(R)          3D
libRbt.so/2013.1/901 2013/11/27
 19 19  0  0  0  0  0  0  0  0999 V2000
   32.8025    0.4620  -63.5134 N   0  3  0  0  0  0
   34.1988    0.0146  -63.3825 C   0  0  0  0  0  0
   34.5979   -0.0893  -61.8944 C   0  0  0  0  0  0
   35.8060   -0.7953  -61.7562 O   0  0  0  0  0  0
   34.6760    1.1937  -61.2892 O   0  0  0  0  0  0
   35.6845    1.9995  -61.8821 C   0  0  0  0  0  0
   35.7754    3.3043  -61.0721 C   0  0  0  0  0  0
   36.7855    4.1426  -61.5662 O   0  0  0  0  0  0
   35.3593    2.2801  -63.3711 C   0  0  0  0  0  0
   36.4106    2.9965  -63.9709 O   0  0  0  0  0  0
   35.1830    0.9525  -64.1231 C   0  0  0  0  0  0
   34.7482    1.2081  -65.4341 O   0  0  0  0  0  0
   32.1989   -0.0762  -62.8500 H   0  0  0  0  0  0
   32.7079    1.4802  -63.2981 H   0  0  0  0  0  0
   32.4496    0.2774  -64.4797 H   0  0  0  0  0  0
   35.5943   -1.7491  -61.9320 H   0  0  0  0  0  0
   37.6460    3.6700  -61.4184 H   0  0  0  0  0  0
   36.3826    3.9212  -63.6103 H   0  0  0  0  0  0
   35.3815    1.8675  -65.8214 H   0  0  0  0  0  0
  1  2  1  0  0  0
  1 13  1  0  0  0
  1 14  1  0  0  0
  1 15  1  0  0  0
  2  3  1  0  0  0
  3  4  1  0  0  0
  3  5  1  0  0  0
  4 16  1  0  0  0
  5  6  1  0  0  0
  6  7  1  0  0  0
  6  9  1  0  0  0
  7  8  1  0  0  0
  8 17  1  0  0  0
  9 10  1  0  0  0
  9 11  1  0  0  0
 10 18  1  0  0  0
 11 12  1  0  0  0
 11  2  1  0  0  0
 12 19  1  0  0  0
M  END
>  <CHROM.0>
71.45568672,-176.13358895,61.64501437

>  <CHROM.1>
-45.88160010,-73.19083155,177.96211672,-64.87918384,-71.96666334,175.56368422
35.18073146,1.49490612,-62.79092415,-3.08588487,1.02771410,1.94005429

>  <Energy>
25.71619557247595

>  <Genealogy>
[NH3+][C@@H]1[C@@H](O)O[C@H](CO)[C@@H](O)[C@@H]1O (protonated)
[NH3+][C@@H]1[C@@H](O)O[C@H](CO)[C@@H](O)[C@@H]1O (3D coordinates assigned)
[NH3+][C@@H]1[C@@H](O)O[C@H](CO)[C@@H](O)[C@@H]1O (nonaromatic ring conformer: 25.71619557247595 kcal/mol)

>  <Name>
12302999

>  <RI>
1.63646e+07

>  <Rbt.Current_Directory>
/home/edward/Documentos/Virtual_Screening/rDock/N-terminal/3

>  <Rbt.Executable>
rbdock ($Id: //depot/dev/client3/rdock/2013.1/src/exe/rbdock.cxx#4 $)

>  <Rbt.Library>
libRbt.so (2013.1, Build901 2013/11/27)

>  <Rbt.Parameter_File>
/home/edward/anaconda3/envs/MD/share/rdock-2013.1-1/data/scripts/dock.prm

>  <Rbt.Receptor>
parameters.prm

>  <SCORE>
-24.72

>  <SCORE.INTER>
-22.3514

>  <SCORE.INTER.CONST>
1

>  <SCORE.INTER.POLAR>
-4.58856

>  <SCORE.INTER.REPUL>
0.0220466

>  <SCORE.INTER.ROT>
1

>  <SCORE.INTER.VDW>
-13.2605

>  <SCORE.INTER.norm>
-1.86262

>  <SCORE.INTRA>
-2.86682

>  <SCORE.INTRA.DIHEDRAL>
-5.53552

>  <SCORE.INTRA.DIHEDRAL.0>
7.88416

>  <SCORE.INTRA.POLAR>
-0.257312

>  <SCORE.INTRA.POLAR.0>
0

>  <SCORE.INTRA.REPUL>
0

>  <SCORE.INTRA.REPUL.0>
0

>  <SCORE.INTRA.VDW>
0.775798

>  <SCORE.INTRA.VDW.0>
-1.27835

>  <SCORE.INTRA.norm>
-0.238902

>  <SCORE.RESTR>
0

>  <SCORE.RESTR.CAVITY>
0

>  <SCORE.RESTR.norm>
0

>  <SCORE.SYSTEM>
0.498196

>  <SCORE.SYSTEM.CONST>
0

>  <SCORE.SYSTEM.DIHEDRAL>
0.715288

>  <SCORE.SYSTEM.POLAR>
-0.0214705

>  <SCORE.SYSTEM.REPUL>
0.0554665

>  <SCORE.SYSTEM.VDW>
-0.0637802

>  <SCORE.SYSTEM.norm>
0.0415164

>  <SCORE.heavy>
12

>  <SCORE.norm>
-2.06

>  <SMILES>
[NH3+][C@@H]1[C@@H](O)O[C@H](CO)[C@@H](O)[C@@H]1O

>  <UniqueID>
122

$$$$
11908605
  rDOCK(R)          3D
libRbt.so/2013.1/901 2013/11/27
 20 20  0  0  0  0  0  0  0  0999 V2000
   38.8806   -2.1767  -62.1530 H   0  0  0  0  0  0
   38.4888   -1.2692  -62.3764 O   0  0  0  0  0  0
   37.1567   -1.1349  -62.7569 C   0  0  0  0  0  0
   36.6813    0.0565  -62.9885 N   0  0  0  0  0  0
   35.3053    0.3888  -63.3775 C   0  0  0  0  0  0
   34.3410    0.1401  -62.2008 C   0  0  0  0  0  0
   33.0181    0.2012  -62.6755 O   0  0  0  0  0  0
   32.8839    1.1091  -63.0545 H   0  0  0  0  0  0
   34.5689    1.1905  -61.0898 C   0  0  0  0  0  0
   33.6061    1.0528  -60.0729 O   0  0  0  0  0  0
   33.7452    0.1720  -59.6373 H   0  0  0  0  0  0
   34.5949    2.6263  -61.6851 C   0  0  0  0  0  0
   34.9429    3.6728  -60.6158 C   0  0  0  0  0  0
   33.8869    3.8262  -59.7037 O   0  0  0  0  0  0
   33.6564    2.9212  -59.3675 H   0  0  0  0  0  0
   35.5747    2.7103  -62.7073 O   0  0  0  0  0  0
   35.2355    1.8692  -63.7972 C   0  0  0  0  0  0
   36.1397    2.0903  -64.8456 O   0  0  0  0  0  0
   35.8240    1.5401  -65.6093 H   0  0  0  0  0  0
   36.3304   -2.3783  -62.9134 C   0  0  0  0  0  0
  1  2  1  0  0  0
  2  3  1  0  0  0
  3  4  2  0  0  0
  3 20  1  0  0  0
  4  5  1  0  0  0
  5  6  1  0  0  0
  6  7  1  0  0  0
  6  9  1  0  0  0
  7  8  1  0  0  0
  9 10  1  0  0  0
  9 12  1  0  0  0
 10 11  1  0  0  0
 12 13  1  0  0  0
 12 16  1  0  0  0
 13 14  1  0  0  0
 14 15  1  0  0  0
 16 17  1  0  0  0
 17 18  1  0  0  0
 17  5  1  0  0  0
 18 19  1  0  0  0
M  END
>  <CHROM.0>
72.51674857,-176.78324381,-179.46672204

>  <CHROM.1>
177.54164689,69.63845886,-60.14329524,65.05980487,-70.44018531,52.52462006
63.76345154,35.30581132,1.01805508,-62.23132518,0.52085180,-0.90550454,2.74535229

>  <Energy>
28.45710391518813

>  <Genealogy>
CC(O)=N[C@H]1[C@H](O)[C@H](O)[C@@H](CO)O[C@H]1O (tautomer)
C/C(O)=N/[C@H]1[C@H](O)[C@H](O)[C@@H](CO)O[C@H]1O (cis-trans isomerization)
C/C(O)=N/[C@H]1[C@H](O)[C@H](O)[C@@H](CO)O[C@H]1O (3D coordinates assigned)
C/C(O)=N/[C@H]1[C@H](O)[C@H](O)[C@@H](CO)O[C@H]1O (nonaromatic ring conformer: 28.45710391518813 kcal/mol)

>  <Name>
11908605

>  <RI>
1.63646e+07

>  <Rbt.Current_Directory>
/home/edward/Documentos/Virtual_Screening/rDock/N-terminal/3

>  <Rbt.Executable>
rbdock ($Id: //depot/dev/client3/rdock/2013.1/src/exe/rbdock.cxx#4 $)

>  <Rbt.Library>
libRbt.so (2013.1, Build901 2013/11/27)

>  <Rbt.Parameter_File>
/home/edward/anaconda3/envs/MD/share/rdock-2013.1-1/data/scripts/dock.prm

>  <Rbt.Receptor>
parameters.prm

>  <SCORE>
-25.4466

>  <SCORE.INTER>
-20.1436

>  <SCORE.INTER.CONST>
1

>  <SCORE.INTER.POLAR>
-4.63299

>  <SCORE.INTER.REPUL>
0

>  <SCORE.INTER.ROT>
2

>  <SCORE.INTER.VDW>
-11.7914

>  <SCORE.INTER.norm>
-1.34291

>  <SCORE.INTRA>
-5.87858

>  <SCORE.INTRA.DIHEDRAL>
-9.27918

>  <SCORE.INTRA.DIHEDRAL.0>
12.5179

>  <SCORE.INTRA.POLAR>
-0.752912

>  <SCORE.INTRA.POLAR.0>
0

>  <SCORE.INTRA.REPUL>
0

>  <SCORE.INTRA.REPUL.0>
0

>  <SCORE.INTRA.VDW>
1.3209

>  <SCORE.INTRA.VDW.0>
-1.67316

>  <SCORE.INTRA.norm>
-0.391906

>  <SCORE.RESTR>
0

>  <SCORE.RESTR.CAVITY>
0

>  <SCORE.RESTR.norm>
0

>  <SCORE.SYSTEM>
0.575567

>  <SCORE.SYSTEM.CONST>
0

>  <SCORE.SYSTEM.DIHEDRAL>
0.798197

>  <SCORE.SYSTEM.POLAR>
-0.017919

>  <SCORE.SYSTEM.REPUL>
0.0598083

>  <SCORE.SYSTEM.VDW>
-0.0616478

>  <SCORE.SYSTEM.norm>
0.0383712

>  <SCORE.heavy>
15

>  <SCORE.norm>
-1.69644

>  <SMILES>
C/C(O)=N/[C@H]1[C@H](O)[C@H](O)[C@@H](CO)O[C@H]1O

>  <UniqueID>
126

$$$$
11096158
  rDOCK(R)          3D
libRbt.so/2013.1/901 2013/11/27
 20 20  0  0  0  0  0  0  0  0999 V2000
   33.2313   -2.7881  -64.1403 C   0  0  0  0  0  0
   33.0515   -1.3757  -63.6884 C   0  0  0  0  0  0
   31.8984   -0.9586  -63.3950 O   0  0  0  0  0  0
   34.1814   -0.4936  -63.6312 N   0  0  0  0  0  0
   34.0703    0.8958  -63.1681 C   0  0  0  0  0  0
   34.9284    1.8417  -64.0327 C   0  0  0  0  0  0
   36.2647    1.4139  -64.0901 O   0  0  0  0  0  0
   34.8381    3.1977  -63.6114 O   0  0  0  0  0  0
   35.1674    3.4137  -62.2410 C   0  0  0  0  0  0
   36.6889    3.4631  -61.9859 C   0  0  0  0  0  0
   37.3820    3.6407  -63.1919 O   0  0  0  0  0  0
   34.4006    2.4905  -61.2591 C   0  0  0  0  0  0
   33.0596    2.9105  -61.2017 O   0  0  0  0  0  0
   34.4593    1.0155  -61.6854 C   0  0  0  0  0  0
   35.7475    0.5017  -61.4566 O   0  0  0  0  0  0
   35.1001   -0.8543  -63.9759 H   0  0  0  0  0  0
   36.5164    1.1513  -63.1666 H   0  0  0  0  0  0
   37.0976    4.5168  -63.5601 H   0  0  0  0  0  0
   32.6992    2.8603  -62.1258 H   0  0  0  0  0  0
   35.9177    0.5657  -60.4806 H   0  0  0  0  0  0
  1  2  1  0  0  0
  2  3  2  0  0  0
  2  4  1  0  0  0
  4  5  1  0  0  0
  4 16  1  0  0  0
  5  6  1  0  0  0
  6  7  1  0  0  0
  6  8  1  0  0  0
  7 17  1  0  0  0
  8  9  1  0  0  0
  9 10  1  0  0  0
  9 12  1  0  0  0
 10 11  1  0  0  0
 11 18  1  0  0  0
 12 13  1  0  0  0
 12 14  1  0  0  0
 13 19  1  0  0  0
 14 15  1  0  0  0
 14  5  1  0  0  0
 15 20  1  0  0  0
M  END
>  <CHROM.0>
71.58911548,-58.88776462,-178.92845974

>  <CHROM.1>
-139.57330101,-43.58561803,15.77483850,62.31729607,58.50340393,-177.16537357
34.66512068,1.30437551,-62.85283493,-2.20704289,0.50110585,0.57176966

>  <Energy>
31.70961168976461

>  <Genealogy>
CC(=O)N[C@@H]1[C@H](O)O[C@H](CO)[C@@H](O)[C@@H]1O (3D coordinates assigned)
CC(=O)N[C@@H]1[C@H](O)O[C@H](CO)[C@@H](O)[C@@H]1O (nonaromatic ring conformer: 31.70961168976461 kcal/mol)

>  <Name>
11096158

>  <RI>
1.63646e+07

>  <Rbt.Current_Directory>
/home/edward/Documentos/Virtual_Screening/rDock/N-terminal/3

>  <Rbt.Executable>
rbdock ($Id: //depot/dev/client3/rdock/2013.1/src/exe/rbdock.cxx#4 $)

>  <Rbt.Library>
libRbt.so (2013.1, Build901 2013/11/27)

>  <Rbt.Parameter_File>
/home/edward/anaconda3/envs/MD/share/rdock-2013.1-1/data/scripts/dock.prm

>  <Rbt.Receptor>
parameters.prm

>  <SCORE>
-23.2833

>  <SCORE.INTER>
-21.1228

>  <SCORE.INTER.CONST>
1

>  <SCORE.INTER.POLAR>
-4.36098

>  <SCORE.INTER.REPUL>
0.0100466

>  <SCORE.INTER.ROT>
2

>  <SCORE.INTER.VDW>
-13.7457

>  <SCORE.INTER.norm>
-1.40819

>  <SCORE.INTRA>
-2.16307

>  <SCORE.INTRA.DIHEDRAL>
-1.66687

>  <SCORE.INTRA.DIHEDRAL.0>
8.65033

>  <SCORE.INTRA.POLAR>
-0.843915

>  <SCORE.INTRA.POLAR.0>
0

>  <SCORE.INTRA.REPUL>
0

>  <SCORE.INTRA.REPUL.0>
0

>  <SCORE.INTRA.VDW>
1.53968

>  <SCORE.INTRA.VDW.0>
-2.00685

>  <SCORE.INTRA.norm>
-0.144204

>  <SCORE.RESTR>
0

>  <SCORE.RESTR.CAVITY>
0

>  <SCORE.RESTR.norm>
0

>  <SCORE.SYSTEM>
0.00259927

>  <SCORE.SYSTEM.CONST>
0

>  <SCORE.SYSTEM.DIHEDRAL>
0.65446

>  <SCORE.SYSTEM.POLAR>
-0.0210163

>  <SCORE.SYSTEM.REPUL>
0.0042031

>  <SCORE.SYSTEM.VDW>
-0.274191

>  <SCORE.SYSTEM.norm>
0.000173285

>  <SCORE.heavy>
15

>  <SCORE.norm>
-1.55222

>  <SMILES>
CC(=O)N[C@@H]1[C@H](O)O[C@H](CO)[C@@H](O)[C@@H]1O

>  <UniqueID>
129

$$$$
9816401
  rDOCK(R)          3D
libRbt.so/2013.1/901 2013/11/27
 22 22  0  0  0  0  0  0  0  0999 V2000
   34.7285    5.1717  -59.6631 C   0  0  0  0  0  0
   35.0244    3.7406  -60.1065 C   0  0  0  0  0  0
   34.4972    3.5497  -61.4091 O   0  0  0  0  0  0
   34.8348    2.2752  -61.9400 C   0  0  0  0  0  0
   33.6741    1.2939  -61.6887 C   0  0  0  0  0  0
   33.5690    1.0467  -60.3087 O   0  0  0  0  0  0
   33.9313   -0.0318  -62.4435 C   0  0  0  0  0  0
   32.7575   -1.0046  -62.2530 C   0  0  0  0  0  0
   32.6879   -1.4337  -60.9198 O   0  0  0  0  0  0
   34.0915    0.2038  -63.8346 O   0  0  0  0  0  0
   35.2216    1.0169  -64.1029 C   0  0  0  0  0  0
   36.4033    0.3781  -63.6793 O   0  0  0  0  0  0
   35.0640    2.4135  -63.4571 C   0  0  0  0  0  0
   36.2458    3.2375  -63.7235 N   0  0  0  0  0  0
   36.5077    3.4991  -60.1083 C   0  0  0  0  0  0
   37.1149    3.2467  -59.0339 O   0  0  0  0  0  0
   37.2183    3.5556  -61.3005 O   0  5  0  0  0  0
   34.3273    0.4581  -60.0557 H   0  0  0  0  0  0
   32.6106   -0.6161  -60.3616 H   0  0  0  0  0  0
   36.3708   -0.5532  -64.0212 H   0  0  0  0  0  0
   35.9438    4.2370  -63.7877 H   0  0  0  0  0  0
   36.8752    3.1894  -62.8902 H   0  0  0  0  0  0
  1  2  1  0  0  0
  2  3  1  0  0  0
  2 15  1  0  0  0
  3  4  1  0  0  0
  4  5  1  0  0  0
  5  6  1  0  0  0
  5  7  1  0  0  0
  6 18  1  0  0  0
  7  8  1  0  0  0
  7 10  1  0  0  0
  8  9  1  0  0  0
  9 19  1  0  0  0
 10 11  1  0  0  0
 11 12  1  0  0  0
 11 13  1  0  0  0
 12 20  1  0  0  0
 13 14  1  0  0  0
 13  4  1  0  0  0
 14 21  1  0  0  0
 14 22  1  0  0  0
 15 16  2  0  0  0
 15 17  1  0  0  0
M  END
>  <CHROM.0>
-74.18973840,-58.08502761,58.91557792

>  <CHROM.1>
174.85806761,80.05315942,96.01088500,-73.64381311,-67.58008937,56.73923733
47.66135088,-89.54434146,34.92478705,1.86213851,-61.74970885,0.87944470,0.81079373
1.01326152

>  <Energy>
31.35027028672537

>  <Genealogy>
C[C@@H](O[C@H]1[C@H](O)[C@@H](CO)O[C@H](O)[C@@H]1N)C(=O)[O-] (protonated)
C[C@@H](O[C@H]1[C@H](O)[C@@H](CO)O[C@H](O)[C@@H]1N)C(=O)[O-] (3D coordinates assigned)
C[C@@H](O[C@H]1[C@H](O)[C@@H](CO)O[C@H](O)[C@@H]1N)C(=O)[O-] (nonaromatic ring conformer: 31.35027028672537 kcal/mol)

>  <Name>
9816401

>  <RI>
1.63646e+07

>  <Rbt.Current_Directory>
/home/edward/Documentos/Virtual_Screening/rDock/N-terminal/3

>  <Rbt.Executable>
rbdock ($Id: //depot/dev/client3/rdock/2013.1/src/exe/rbdock.cxx#4 $)

>  <Rbt.Library>
libRbt.so (2013.1, Build901 2013/11/27)

>  <Rbt.Parameter_File>
/home/edward/anaconda3/envs/MD/share/rdock-2013.1-1/data/scripts/dock.prm

>  <Rbt.Receptor>
parameters.prm

>  <SCORE>
-24.2956

>  <SCORE.INTER>
-16.8024

>  <SCORE.INTER.CONST>
1

>  <SCORE.INTER.POLAR>
-3.74258

>  <SCORE.INTER.REPUL>
0.185348

>  <SCORE.INTER.ROT>
5

>  <SCORE.INTER.VDW>
-15.4044

>  <SCORE.INTER.norm>
-0.988379

>  <SCORE.INTRA>
-7.38027

>  <SCORE.INTRA.DIHEDRAL>
-9.28759

>  <SCORE.INTRA.DIHEDRAL.0>
18.4386

>  <SCORE.INTRA.POLAR>
-1.41002

>  <SCORE.INTRA.POLAR.0>
0

>  <SCORE.INTRA.REPUL>
0

>  <SCORE.INTRA.REPUL.0>
0

>  <SCORE.INTRA.VDW>
2.05759

>  <SCORE.INTRA.VDW.0>
-2.37437

>  <SCORE.INTRA.norm>
-0.434133

>  <SCORE.RESTR>
0

>  <SCORE.RESTR.CAVITY>
0

>  <SCORE.RESTR.norm>
0

>  <SCORE.SYSTEM>
-0.112904

>  <SCORE.SYSTEM.CONST>
0

>  <SCORE.SYSTEM.DIHEDRAL>
0.972625

>  <SCORE.SYSTEM.VDW>
-0.599216

>  <SCORE.SYSTEM.norm>
-0.00664142

>  <SCORE.heavy>
17

>  <SCORE.norm>
-1.42915

>  <SMILES>
C[C@@H](O[C@H]1[C@H](O)[C@@H](CO)O[C@H](O)[C@@H]1N)C(=O)[O-]

>  <UniqueID>
130

$$$$
7067772
  rDOCK(R)          3D
libRbt.so/2013.1/901 2013/11/27
 24 24  0  0  0  0  0  0  0  0999 V2000
   35.5459   -2.3212  -63.5742 H   0  0  0  0  0  0
   35.0217   -1.6522  -63.0264 O   0  0  0  0  0  0
   33.9215   -0.9254  -63.5030 C   0  0  0  0  0  0
   33.9646    0.5120  -63.3952 N   0  0  0  0  0  0
   33.1158    1.0733  -63.6271 H   0  0  0  0  0  0
   35.1518    1.2070  -62.8764 C   0  0  0  0  0  0
   35.0530    2.7413  -63.1534 C   0  0  0  0  0  0
   36.2330    3.1641  -63.7825 O   0  0  0  0  0  0
   36.1250    4.1339  -63.9652 H   0  0  0  0  0  0
   34.8738    3.5056  -61.9688 O   0  0  0  0  0  0
   33.8175    2.9740  -61.1930 C   0  0  0  0  0  0
   33.3813    4.0307  -60.1671 C   0  0  0  0  0  0
   33.0949    5.2519  -60.7946 O   0  0  0  0  0  0
   33.8977    5.4931  -61.3267 H   0  0  0  0  0  0
   34.2854    1.6684  -60.5029 C   0  0  0  0  0  0
   33.1714    0.8430  -60.2749 O   0  0  0  0  0  0
   33.5063    0.0244  -59.8236 H   0  0  0  0  0  0
   35.3413    0.9251  -61.3678 C   0  0  0  0  0  0
   36.6327    1.3384  -60.9958 O   0  0  0  0  0  0
   36.6699    1.3134  -60.0038 H   0  0  0  0  0  0
   32.8807   -1.5278  -64.0350 N   0  3  0  0  0  0
   31.8136   -0.7494  -64.5281 N   0  0  0  0  0  0
   30.7340   -1.2570  -64.8969 O   0  0  0  0  0  0
   32.8223   -2.9943  -64.1380 C   0  0  0  0  0  0
  1  2  1  0  0  0
  2  3  1  0  0  0
  3  4  1  0  0  0
  3 21  2  0  0  0
  4  5  1  0  0  0
  4  6  1  0  0  0
  6  7  1  0  0  0
  7  8  1  0  0  0
  7 10  1  0  0  0
  8  9  1  0  0  0
 10 11  1  0  0  0
 11 12  1  0  0  0
 11 15  1  0  0  0
 12 13  1  0  0  0
 13 14  1  0  0  0
 15 16  1  0  0  0
 15 18  1  0  0  0
 16 17  1  0  0  0
 18 19  1  0  0  0
 18  6  1  0  0  0
 19 20  1  0  0  0
 21 22  1  0  0  0
 21 24  1  0  0  0
 22 23  2  0  0  0
M  END
>  <CHROM.0>
-173.92500334,63.87265952,-62.69269068

>  <CHROM.1>
-125.17096110,167.78249086,178.47124459,52.80931498,-54.22938178,-179.32719360
169.25962267,-171.26953890,34.02426928,1.08347679,-62.46688812,-1.87118540
-0.11499588,0.47619680

>  <Energy>
42.03550013587738

>  <Genealogy>
C[NH+](N=O)C(=O)N[C@H]1[C@H](O)O[C@H](CO)[C@@H](O)[C@@H]1O (protonated)
C[N+](N=O)=C(O)N[C@H]1[C@H](O)O[C@H](CO)[C@@H](O)[C@@H]1O (tautomer)
C/[N+](N=O)=C(\O)N[C@H]1[C@H](O)O[C@H](CO)[C@@H](O)[C@@H]1O (cis-trans isomerization)
C/[N+](N=O)=C(\O)N[C@H]1[C@H](O)O[C@H](CO)[C@@H](O)[C@@H]1O (3D coordinates assigned)
C/[N+](N=O)=C(\O)N[C@H]1[C@H](O)O[C@H](CO)[C@@H](O)[C@@H]1O (nonaromatic ring conformer: 42.03550013587738 kcal/mol)

>  <Name>
7067772

>  <RI>
1.63646e+07

>  <Rbt.Current_Directory>
/home/edward/Documentos/Virtual_Screening/rDock/N-terminal/3

>  <Rbt.Executable>
rbdock ($Id: //depot/dev/client3/rdock/2013.1/src/exe/rbdock.cxx#4 $)

>  <Rbt.Library>
libRbt.so (2013.1, Build901 2013/11/27)

>  <Rbt.Parameter_File>
/home/edward/anaconda3/envs/MD/share/rdock-2013.1-1/data/scripts/dock.prm

>  <Rbt.Receptor>
parameters.prm

>  <SCORE>
-27.5689

>  <SCORE.INTER>
-25.432

>  <SCORE.INTER.CONST>
1

>  <SCORE.INTER.POLAR>
-5.97518

>  <SCORE.INTER.REPUL>
0

>  <SCORE.INTER.ROT>
3

>  <SCORE.INTER.VDW>
-13.5164

>  <SCORE.INTER.norm>
-1.41289

>  <SCORE.INTRA>
-1.98317

>  <SCORE.INTRA.DIHEDRAL>
-3.15128

>  <SCORE.INTRA.DIHEDRAL.0>
7.27908

>  <SCORE.INTRA.POLAR>
-0.0709619

>  <SCORE.INTRA.POLAR.0>
0

>  <SCORE.INTRA.REPUL>
0

>  <SCORE.INTRA.REPUL.0>
0

>  <SCORE.INTRA.VDW>
-0.166263

>  <SCORE.INTRA.VDW.0>
-0.39738

>  <SCORE.INTRA.norm>
-0.110176

>  <SCORE.RESTR>
0

>  <SCORE.RESTR.CAVITY>
0

>  <SCORE.RESTR.norm>
0

>  <SCORE.SYSTEM>
-0.153675

>  <SCORE.SYSTEM.CONST>
0

>  <SCORE.SYSTEM.DIHEDRAL>
0.290069

>  <SCORE.SYSTEM.REPUL>
0.163244

>  <SCORE.SYSTEM.VDW>
-1.11493

>  <SCORE.SYSTEM.norm>
-0.00853751

>  <SCORE.heavy>
18

>  <SCORE.norm>
-1.5316

>  <SMILES>
C/[N+](N=O)=C(\O)N[C@H]1[C@H](O)O[C@H](CO)[C@@H](O)[C@@H]1O

>  <UniqueID>
133

$$$$
6971258
  rDOCK(R)          3D
libRbt.so/2013.1/901 2013/11/27
 20 20  0  0  0  0  0  0  0  0999 V2000
   32.4648   -2.0831  -64.4599 C   0  0  0  0  0  0
   32.7066   -0.8296  -63.6841 C   0  0  0  0  0  0
   31.7292   -0.2089  -63.1852 O   0  0  0  0  0  0
   34.0402   -0.3183  -63.5488 N   0  0  0  0  0  0
   34.3431    0.8926  -62.7742 C   0  0  0  0  0  0
   35.4005    0.6061  -61.6788 C   0  0  0  0  0  0
   36.5712    0.0401  -62.2188 O   0  0  0  0  0  0
   35.7081    1.7811  -60.9429 O   0  0  0  0  0  0
   36.2592    2.7932  -61.7728 C   0  0  0  0  0  0
   36.7075    3.9607  -60.8843 C   0  0  0  0  0  0
   37.3930    3.4801  -59.7605 O   0  0  0  0  0  0
   35.2328    3.2512  -62.8365 C   0  0  0  0  0  0
   34.1089    3.8133  -62.2061 O   0  0  0  0  0  0
   34.8065    2.0427  -63.6927 C   0  0  0  0  0  0
   35.8811    1.6219  -64.4963 O   0  0  0  0  0  0
   34.8044   -0.8091  -64.0663 H   0  0  0  0  0  0
   36.3131   -0.8247  -62.6323 H   0  0  0  0  0  0
   38.2017    3.0210  -60.1069 H   0  0  0  0  0  0
   34.3630    4.7337  -61.9339 H   0  0  0  0  0  0
   35.9303    2.2509  -65.2628 H   0  0  0  0  0  0
  1  2  1  0  0  0
  2  3  2  0  0  0
  2  4  1  0  0  0
  4  5  1  0  0  0
  4 16  1  0  0  0
  5  6  1  0  0  0
  6  7  1  0  0  0
  6  8  1  0  0  0
  7 17  1  0  0  0
  8  9  1  0  0  0
  9 10  1  0  0  0
  9 12  1  0  0  0
 10 11  1  0  0  0
 11 18  1  0  0  0
 12 13  1  0  0  0
 12 14  1  0  0  0
 13 19  1  0  0  0
 14 15  1  0  0  0
 14  5  1  0  0  0
 15 20  1  0  0  0
M  END
>  <CHROM.0>
-73.69683590,-61.99455222,179.42487939

>  <CHROM.1>
124.13257911,-61.77748462,44.62102175,62.78479585,78.32665119,160.49574575
34.93365880,1.40809881,-62.52488806,-2.33298208,-0.55635972,0.13050535

>  <Energy>
26.219222459118264

>  <Genealogy>
CC(=O)N[C@H]1[C@@H](O)O[C@H](CO)[C@H](O)[C@H]1O (3D coordinates assigned)
CC(=O)N[C@H]1[C@@H](O)O[C@H](CO)[C@H](O)[C@H]1O (nonaromatic ring conformer: 26.219222459118264 kcal/mol)

>  <Name>
6971258

>  <RI>
1.63646e+07

>  <Rbt.Current_Directory>
/home/edward/Documentos/Virtual_Screening/rDock/N-terminal/3

>  <Rbt.Executable>
rbdock ($Id: //depot/dev/client3/rdock/2013.1/src/exe/rbdock.cxx#4 $)

>  <Rbt.Library>
libRbt.so (2013.1, Build901 2013/11/27)

>  <Rbt.Parameter_File>
/home/edward/anaconda3/envs/MD/share/rdock-2013.1-1/data/scripts/dock.prm

>  <Rbt.Receptor>
parameters.prm

>  <SCORE>
-21.8913

>  <SCORE.INTER>
-22.1563

>  <SCORE.INTER.CONST>
1

>  <SCORE.INTER.POLAR>
-4.71538

>  <SCORE.INTER.REPUL>
0.0600038

>  <SCORE.INTER.ROT>
2

>  <SCORE.INTER.VDW>
-13.8241

>  <SCORE.INTER.norm>
-1.47709

>  <SCORE.INTRA>
0.33594

>  <SCORE.INTRA.DIHEDRAL>
-0.186199

>  <SCORE.INTRA.DIHEDRAL.0>
5.57709

>  <SCORE.INTRA.POLAR>
0

>  <SCORE.INTRA.POLAR.0>
0

>  <SCORE.INTRA.REPUL>
0

>  <SCORE.INTRA.REPUL.0>
0

>  <SCORE.INTRA.VDW>
0.429039

>  <SCORE.INTRA.VDW.0>
-1.61882

>  <SCORE.INTRA.norm>
0.022396

>  <SCORE.RESTR>
0

>  <SCORE.RESTR.CAVITY>
0

>  <SCORE.RESTR.norm>
0

>  <SCORE.SYSTEM>
-0.0708871

>  <SCORE.SYSTEM.CONST>
0

>  <SCORE.SYSTEM.DIHEDRAL>
0.908026

>  <SCORE.SYSTEM.VDW>
-0.5249

>  <SCORE.SYSTEM.norm>
-0.00472581

>  <SCORE.heavy>
15

>  <SCORE.norm>
-1.45942

>  <SMILES>
CC(=O)N[C@H]1[C@@H](O)O[C@H](CO)[C@H](O)[C@H]1O

>  <UniqueID>
136

$$$$
6713972
  rDOCK(R)          3D
libRbt.so/2013.1/901 2013/11/27
 24 24  0  0  0  0  0  0  0  0999 V2000
   28.4074    2.1858  -63.1058 H   0  0  0  0  0  0
   28.9948    1.7106  -63.7786 O   0  0  0  0  0  0
   30.2526    1.2260  -63.4723 N   0  0  0  0  0  0
   30.4894    0.0204  -63.1148 N   0  3  0  0  0  0
   31.8554   -0.3630  -62.8484 C   0  0  0  0  0  0
   32.1439   -1.5755  -62.6500 O   0  0  0  0  0  0
   32.8996    0.6267  -62.8093 N   0  0  0  0  0  0
   32.6403    1.6370  -62.8721 H   0  0  0  0  0  0
   34.3147    0.2668  -62.6423 C   0  0  0  0  0  0
   34.7612    0.5119  -61.1795 C   0  0  0  0  0  0
   36.0197   -0.0617  -60.9205 O   0  0  0  0  0  0
   36.2083    0.0802  -59.9561 H   0  0  0  0  0  0
   34.7678    1.8952  -60.8628 O   0  0  0  0  0  0
   35.6835    2.6205  -61.6706 C   0  0  0  0  0  0
   35.7057    4.0723  -61.1623 C   0  0  0  0  0  0
   34.4152    4.6208  -61.1285 O   0  0  0  0  0  0
   34.5118    5.5894  -61.3245 H   0  0  0  0  0  0
   35.2660    2.5487  -63.1610 C   0  0  0  0  0  0
   36.1904    3.2338  -63.9696 O   0  0  0  0  0  0
   36.1698    4.1887  -63.6985 H   0  0  0  0  0  0
   35.1894    1.0796  -63.6159 C   0  0  0  0  0  0
   36.4755    0.5120  -63.6684 O   0  0  0  0  0  0
   36.3721   -0.4167  -64.0040 H   0  0  0  0  0  0
   29.4031   -0.9634  -63.0001 C   0  0  0  0  0  0
  1  2  1  0  0  0
  2  3  1  0  0  0
  3  4  2  0  0  0
  4  5  1  0  0  0
  4 24  1  0  0  0
  5  6  2  0  0  0
  5  7  1  0  0  0
  7  8  1  0  0  0
  7  9  1  0  0  0
  9 10  1  0  0  0
 10 11  1  0  0  0
 10 13  1  0  0  0
 11 12  1  0  0  0
 13 14  1  0  0  0
 14 15  1  0  0  0
 14 18  1  0  0  0
 15 16  1  0  0  0
 16 17  1  0  0  0
 18 19  1  0  0  0
 18 21  1  0  0  0
 19 20  1  0  0  0
 21 22  1  0  0  0
 21  9  1  0  0  0
 22 23  1  0  0  0
M  END
>  <CHROM.0>
-177.18198346,62.19987815,-177.85562747

>  <CHROM.1>
94.81191775,-101.55735887,-176.14562738,-54.33340218,-147.47008699,-62.89281464
61.08144917,33.61050526,1.25729813,-62.53046462,2.73059039,0.16550257,-3.07421347

>  <Energy>
35.871442510631944

>  <Genealogy>
C[NH+](N=O)C(=O)NC1[C@@H](O)OC(CO)[C@@H](O)[C@H]1O (protonated)
C[N+](=NO)C(=O)NC1[C@@H](O)OC(CO)[C@@H](O)[C@H]1O (tautomer)
C[N+](=NO)C(=O)N[C@@H]1[C@@H](O)O[C@H](CO)[C@@H](O)[C@H]1O (chirality)
C/[N+](=N/O)C(=O)N[C@@H]1[C@@H](O)O[C@H](CO)[C@@H](O)[C@H]1O (cis-trans isomerization)
C/[N+](=N/O)C(=O)N[C@@H]1[C@@H](O)O[C@H](CO)[C@@H](O)[C@H]1O (3D coordinates assigned)
C/[N+](=N/O)C(=O)N[C@@H]1[C@@H](O)O[C@H](CO)[C@@H](O)[C@H]1O (nonaromatic ring conformer: 35.871442510631944 kcal/mol)

>  <Name>
6713972

>  <RI>
1.63646e+07

>  <Rbt.Current_Directory>
/home/edward/Documentos/Virtual_Screening/rDock/N-terminal/3

>  <Rbt.Executable>
rbdock ($Id: //depot/dev/client3/rdock/2013.1/src/exe/rbdock.cxx#4 $)

>  <Rbt.Library>
libRbt.so (2013.1, Build901 2013/11/27)

>  <Rbt.Parameter_File>
/home/edward/anaconda3/envs/MD/share/rdock-2013.1-1/data/scripts/dock.prm

>  <Rbt.Receptor>
parameters.prm

>  <SCORE>
-29.4075

>  <SCORE.INTER>
-25.1292

>  <SCORE.INTER.CONST>
1

>  <SCORE.INTER.POLAR>
-5.26536

>  <SCORE.INTER.REPUL>
0

>  <SCORE.INTER.ROT>
2

>  <SCORE.INTER.VDW>
-14.627

>  <SCORE.INTER.norm>
-1.39607

>  <SCORE.INTRA>
-4.05677

>  <SCORE.INTRA.DIHEDRAL>
-7.63721

>  <SCORE.INTRA.DIHEDRAL.0>
13.1973

>  <SCORE.INTRA.POLAR>
0

>  <SCORE.INTRA.POLAR.0>
0

>  <SCORE.INTRA.REPUL>
0

>  <SCORE.INTRA.REPUL.0>
0

>  <SCORE.INTRA.VDW>
-0.238165

>  <SCORE.INTRA.VDW.0>
-1.0711

>  <SCORE.INTRA.norm>
-0.225376

>  <SCORE.RESTR>
0

>  <SCORE.RESTR.CAVITY>
0

>  <SCORE.RESTR.norm>
0

>  <SCORE.SYSTEM>
-0.221515

>  <SCORE.SYSTEM.CONST>
0

>  <SCORE.SYSTEM.DIHEDRAL>
0.0856407

>  <SCORE.SYSTEM.REPUL>
0.172365

>  <SCORE.SYSTEM.VDW>
-1.12616

>  <SCORE.SYSTEM.norm>
-0.0123064

>  <SCORE.heavy>
18

>  <SCORE.norm>
-1.63375

>  <SMILES>
C/[N+](=N/O)C(=O)N[C@@H]1[C@@H](O)O[C@H](CO)[C@@H](O)[C@H]1O

>  <UniqueID>
140

$$$$
6420074
  rDOCK(R)          3D
libRbt.so/2013.1/901 2013/11/27
 24 24  0  0  0  0  0  0  0  0999 V2000
   33.8803   -5.3142  -65.4957 H   0  0  0  0  0  0
   34.1269   -4.4358  -65.9336 O   0  0  0  0  0  0
   34.0117   -3.2585  -65.2278 N   0  0  0  0  0  0
   32.9755   -2.9808  -64.5354 N   0  3  0  0  0  0
   32.8994   -1.7031  -63.8728 C   0  0  0  0  0  0
   31.8084   -1.3241  -63.3645 O   0  0  0  0  0  0
   34.0579   -0.8540  -63.7875 N   0  0  0  0  0  0
   34.9828   -1.2279  -64.0989 H   0  0  0  0  0  0
   34.0383    0.4519  -63.1192 C   0  0  0  0  0  0
   35.0667    1.3942  -63.7785 C   0  0  0  0  0  0
   34.6995    1.5999  -65.1156 O   0  0  0  0  0  0
   35.4103    2.1640  -65.5181 H   0  0  0  0  0  0
   35.0925    2.6468  -63.1124 O   0  0  0  0  0  0
   35.5556    2.4895  -61.7812 C   0  0  0  0  0  0
   35.7749    3.8762  -61.1599 C   0  0  0  0  0  0
   34.5500    4.5414  -61.0063 O   0  0  0  0  0  0
   34.3276    4.9363  -61.8897 H   0  0  0  0  0  0
   34.5457    1.6574  -60.9572 C   0  0  0  0  0  0
   33.3026    2.3146  -60.8958 O   0  0  0  0  0  0
   33.0038    2.4634  -61.8306 H   0  0  0  0  0  0
   34.3655    0.2828  -61.6212 C   0  0  0  0  0  0
   33.3352   -0.4173  -60.9713 O   0  0  0  0  0  0
   33.6112   -0.5251  -60.0239 H   0  0  0  0  0  0
   31.8355   -3.9060  -64.4954 C   0  0  0  0  0  0
  1  2  1  0  0  0
  2  3  1  0  0  0
  3  4  2  0  0  0
  4  5  1  0  0  0
  4 24  1  0  0  0
  5  6  2  0  0  0
  5  7  1  0  0  0
  7  8  1  0  0  0
  7  9  1  0  0  0
  9 10  1  0  0  0
 10 11  1  0  0  0
 10 13  1  0  0  0
 11 12  1  0  0  0
 13 14  1  0  0  0
 14 15  1  0  0  0
 14 18  1  0  0  0
 15 16  1  0  0  0
 16 17  1  0  0  0
 18 19  1  0  0  0
 18 21  1  0  0  0
 19 20  1  0  0  0
 21 22  1  0  0  0
 21  9  1  0  0  0
 22 23  1  0  0  0
M  END
>  <CHROM.0>
-176.09228052,-59.71668051,63.20136265

>  <CHROM.1>
-46.03105767,-150.43598351,-176.72562599,66.83712425,-81.50886785,56.93220265
178.02493012,33.98545006,0.14597559,-63.05042841,-1.94838462,0.91299336,0.77784684

>  <Energy>
29.696533932045597

>  <Genealogy>
C[NH+](N=O)C(=O)N[C@@H]1C(O)OC(CO)[C@@H](O)[C@H]1O (protonated)
C[N+](=NO)C(=O)N[C@@H]1C(O)OC(CO)[C@@H](O)[C@H]1O (tautomer)
C[N+](=NO)C(=O)N[C@@H]1[C@@H](O)O[C@@H](CO)[C@@H](O)[C@H]1O (chirality)
C/[N+](=N/O)C(=O)N[C@@H]1[C@@H](O)O[C@@H](CO)[C@@H](O)[C@H]1O (cis-trans isomerization)
C/[N+](=N/O)C(=O)N[C@@H]1[C@@H](O)O[C@@H](CO)[C@@H](O)[C@H]1O (3D coordinates assigned)
C/[N+](=N/O)C(=O)N[C@@H]1[C@@H](O)O[C@@H](CO)[C@@H](O)[C@H]1O (nonaromatic ring conformer: 29.696533932045597 kcal/mol)

>  <Name>
6420074

>  <RI>
1.63646e+07

>  <Rbt.Current_Directory>
/home/edward/Documentos/Virtual_Screening/rDock/N-terminal/3

>  <Rbt.Executable>
rbdock ($Id: //depot/dev/client3/rdock/2013.1/src/exe/rbdock.cxx#4 $)

>  <Rbt.Library>
libRbt.so (2013.1, Build901 2013/11/27)

>  <Rbt.Parameter_File>
/home/edward/anaconda3/envs/MD/share/rdock-2013.1-1/data/scripts/dock.prm

>  <Rbt.Receptor>
parameters.prm

>  <SCORE>
-27.4263

>  <SCORE.INTER>
-22.9327

>  <SCORE.INTER.CONST>
1

>  <SCORE.INTER.POLAR>
-4.75373

>  <SCORE.INTER.REPUL>
0

>  <SCORE.INTER.ROT>
2

>  <SCORE.INTER.VDW>
-14.1701

>  <SCORE.INTER.norm>
-1.27404

>  <SCORE.INTRA>
-3.37518

>  <SCORE.INTRA.DIHEDRAL>
-6.52854

>  <SCORE.INTRA.DIHEDRAL.0>
10.7982

>  <SCORE.INTRA.POLAR>
-0.354494

>  <SCORE.INTRA.POLAR.0>
0

>  <SCORE.INTRA.REPUL>
0

>  <SCORE.INTRA.REPUL.0>
0

>  <SCORE.INTRA.VDW>
1.09437

>  <SCORE.INTRA.VDW.0>
-1.8426

>  <SCORE.INTRA.norm>
-0.18751

>  <SCORE.RESTR>
0

>  <SCORE.RESTR.CAVITY>
0

>  <SCORE.RESTR.norm>
0

>  <SCORE.SYSTEM>
-1.11842

>  <SCORE.SYSTEM.CONST>
0

>  <SCORE.SYSTEM.DIHEDRAL>
0.125946

>  <SCORE.SYSTEM.REPUL>
0.029228

>  <SCORE.SYSTEM.VDW>
-1.32754

>  <SCORE.SYSTEM.norm>
-0.0621347

>  <SCORE.heavy>
18

>  <SCORE.norm>
-1.52369

>  <SMILES>
C/[N+](=N/O)C(=O)N[C@@H]1[C@@H](O)O[C@@H](CO)[C@@H](O)[C@H]1O

>  <UniqueID>
142

$$$$
6323218
  rDOCK(R)          3D
libRbt.so/2013.1/901 2013/11/27
 24 24  0  0  0  0  0  0  0  0999 V2000
   32.9335   -2.9707  -65.2680 C   0  0  0  0  0  0
   33.8388   -2.2351  -64.3350 C   0  0  0  0  0  0
   34.7912   -2.8469  -63.7799 O   0  0  0  0  0  0
   33.6397   -0.8340  -64.1040 N   0  0  0  0  0  0
   34.5349   -0.0395  -63.2568 C   0  0  0  0  0  0
   35.3382    0.9617  -64.1152 C   0  0  0  0  0  0
   34.4919    1.7791  -64.8895 O   0  0  0  0  0  0
   36.1917    1.7547  -63.3063 O   0  0  0  0  0  0
   35.4578    2.5317  -62.3710 C   0  0  0  0  0  0
   36.4372    3.4558  -61.6284 C   0  0  0  0  0  0
   37.3682    4.0251  -62.5107 O   0  0  0  0  0  0
   34.6793    1.6274  -61.3863 C   0  0  0  0  0  0
   33.9357    2.4275  -60.5026 O   0  0  0  0  0  0
   33.7334    0.6971  -62.1694 C   0  0  0  0  0  0
   33.1796   -0.2679  -61.2851 O   0  0  0  0  0  0
   32.0929   -0.9650  -61.8699 C   0  0  0  0  0  0
   30.8627   -0.0617  -61.8428 C   0  0  0  0  0  0
   31.8119   -2.2213  -61.0955 C   0  0  0  0  0  0
   31.9491   -2.2377  -59.8440 O   0  0  0  0  0  0
   31.4120   -3.3761  -61.7575 O   0  5  0  0  0  0
   32.9048   -0.3427  -64.6623 H   0  0  0  0  0  0
   35.0746    2.3660  -65.4386 H   0  0  0  0  0  0
   36.8492    4.5426  -63.1801 H   0  0  0  0  0  0
   33.5060    1.8155  -59.8497 H   0  0  0  0  0  0
  1  2  1  0  0  0
  2  3  2  0  0  0
  2  4  1  0  0  0
  4  5  1  0  0  0
  4 21  1  0  0  0
  5  6  1  0  0  0
  6  7  1  0  0  0
  6  8  1  0  0  0
  7 22  1  0  0  0
  8  9  1  0  0  0
  9 10  1  0  0  0
  9 12  1  0  0  0
 10 11  1  0  0  0
 11 23  1  0  0  0
 12 13  1  0  0  0
 12 14  1  0  0  0
 13 24  1  0  0  0
 14 15  1  0  0  0
 14  5  1  0  0  0
 15 16  1  0  0  0
 16 17  1  0  0  0
 16 18  1  0  0  0
 18 19  2  0  0  0
 18 20  1  0  0  0
M  END
>  <CHROM.0>
-71.36669841,-57.73802459,-178.51159470

>  <CHROM.1>
111.12128157,-177.69046901,42.62882674,59.70941930,-175.96723306,-73.66497793
-77.04195930,35.74683170,33.94899394,0.09892987,-62.56333535,-2.60526356
0.82321135,0.84515088

>  <Energy>
33.117684029864414

>  <Genealogy>
CC(=O)N[C@H]1[C@@H](O)O[C@H](CO)[C@@H](O)[C@@H]1O[C@H](C)C(=O)[O-] (protonated)
CC(=O)N[C@H]1[C@@H](O)O[C@H](CO)[C@@H](O)[C@@H]1O[C@H](C)C(=O)[O-] (3D coordinates assigned)
CC(=O)N[C@H]1[C@@H](O)O[C@H](CO)[C@@H](O)[C@@H]1O[C@H](C)C(=O)[O-] (nonaromatic ring conformer: 33.117684029864414 kcal/mol)

>  <Name>
6323218

>  <RI>
1.63646e+07

>  <Rbt.Current_Directory>
/home/edward/Documentos/Virtual_Screening/rDock/N-terminal/3

>  <Rbt.Executable>
rbdock ($Id: //depot/dev/client3/rdock/2013.1/src/exe/rbdock.cxx#4 $)

>  <Rbt.Library>
libRbt.so (2013.1, Build901 2013/11/27)

>  <Rbt.Parameter_File>
/home/edward/anaconda3/envs/MD/share/rdock-2013.1-1/data/scripts/dock.prm

>  <Rbt.Receptor>
parameters.prm

>  <SCORE>
-19.549

>  <SCORE.INTER>
-15.8975

>  <SCORE.INTER.CONST>
1

>  <SCORE.INTER.POLAR>
-3.26664

>  <SCORE.INTER.REPUL>
0.000265831

>  <SCORE.INTER.ROT>
5

>  <SCORE.INTER.VDW>
-15.1922

>  <SCORE.INTER.norm>
-0.794874

>  <SCORE.INTRA>
-3.63833

>  <SCORE.INTRA.DIHEDRAL>
-11.7168

>  <SCORE.INTRA.DIHEDRAL.0>
17.3324

>  <SCORE.INTRA.POLAR>
0

>  <SCORE.INTRA.POLAR.0>
0

>  <SCORE.INTRA.REPUL>
0

>  <SCORE.INTRA.REPUL.0>
0

>  <SCORE.INTRA.VDW>
2.22005

>  <SCORE.INTRA.VDW.0>
-3.80164

>  <SCORE.INTRA.norm>
-0.181916

>  <SCORE.RESTR>
0

>  <SCORE.RESTR.CAVITY>
0

>  <SCORE.RESTR.norm>
0

>  <SCORE.SYSTEM>
-0.0131604

>  <SCORE.SYSTEM.CONST>
0

>  <SCORE.SYSTEM.DIHEDRAL>
0.655133

>  <SCORE.SYSTEM.VDW>
-0.340727

>  <SCORE.SYSTEM.norm>
-0.000658021

>  <SCORE.heavy>
20

>  <SCORE.norm>
-0.977449

>  <SMILES>
CC(=O)N[C@H]1[C@@H](O)O[C@H](CO)[C@@H](O)[C@@H]1O[C@H](C)C(=O)[O-]

>  <UniqueID>
145

$$$$
5462244
  rDOCK(R)          3D
libRbt.so/2013.1/901 2013/11/27
 24 24  0  0  0  0  0  0  0  0999 V2000
   35.0684    5.8199  -59.7332 C   0  0  0  0  0  0
   34.9583    4.4001  -60.1835 C   0  0  0  0  0  0
   35.3400    3.4732  -59.4188 O   0  0  0  0  0  0
   34.4146    4.1026  -61.4772 N   0  0  0  0  0  0
   34.3923    2.7481  -62.0382 C   0  0  0  0  0  0
   35.8326    2.2576  -62.2816 C   0  0  0  0  0  0
   36.4539    3.1143  -63.2009 O   0  0  0  0  0  0
   35.8210    0.9445  -62.8155 O   0  0  0  0  0  0
   35.2917    0.0273  -61.8724 C   0  0  0  0  0  0
   35.4817   -1.3961  -62.4178 C   0  0  0  0  0  0
   34.6711   -1.6170  -63.5422 O   0  0  0  0  0  0
   33.8024    0.3444  -61.5891 C   0  0  0  0  0  0
   33.2949   -0.5342  -60.6164 O   0  0  0  0  0  0
   33.6671    1.7872  -61.0752 C   0  0  0  0  0  0
   32.2866    2.1191  -61.0233 O   0  0  0  0  0  0
   32.0329    3.2471  -60.2013 C   0  0  0  0  0  0
   32.3565    2.9220  -58.7406 C   0  0  0  0  0  0
   30.5839    3.6129  -60.3221 C   0  0  0  0  0  0
   29.6898    2.7432  -60.1451 O   0  0  0  0  0  0
   30.2185    4.9265  -60.5893 O   0  5  0  0  0  0
   34.1501    4.9020  -62.0972 H   0  0  0  0  0  0
   36.3368    4.0353  -62.8494 H   0  0  0  0  0  0
   35.1379   -1.2124  -64.3190 H   0  0  0  0  0  0
   33.8780   -0.4558  -59.8169 H   0  0  0  0  0  0
  1  2  1  0  0  0
  2  3  2  0  0  0
  2  4  1  0  0  0
  4  5  1  0  0  0
  4 21  1  0  0  0
  5  6  1  0  0  0
  6  7  1  0  0  0
  6  8  1  0  0  0
  7 22  1  0  0  0
  8  9  1  0  0  0
  9 10  1  0  0  0
  9 12  1  0  0  0
 10 11  1  0  0  0
 11 23  1  0  0  0
 12 13  1  0  0  0
 12 14  1  0  0  0
 13 24  1  0  0  0
 14 15  1  0  0  0
 14  5  1  0  0  0
 15 16  1  0  0  0
 16 17  1  0  0  0
 16 18  1  0  0  0
 18 19  2  0  0  0
 18 20  1  0  0  0
M  END
>  <CHROM.0>
-169.98992199,-60.25421482,64.79424239

>  <CHROM.1>
-65.27082345,52.47956280,-68.16797586,80.58204716,55.80698036,-78.29158795
-66.07200154,52.02659356,33.78660111,2.22789989,-61.18531800,-2.24291889
-0.30472118,-2.81594641

>  <Energy>
31.046062265857554

>  <Genealogy>
CC(=O)N[C@H]1C(O)O[C@H](CO)[C@@H](O)[C@@H]1O[C@H](C)C(=O)[O-] (protonated)
CC(=O)N[C@H]1[C@H](O)O[C@H](CO)[C@@H](O)[C@@H]1O[C@H](C)C(=O)[O-] (chirality)
CC(=O)N[C@H]1[C@H](O)O[C@H](CO)[C@@H](O)[C@@H]1O[C@H](C)C(=O)[O-] (3D coordinates assigned)
CC(=O)N[C@H]1[C@H](O)O[C@H](CO)[C@@H](O)[C@@H]1O[C@H](C)C(=O)[O-] (nonaromatic ring conformer: 31.046062265857554 kcal/mol)

>  <Name>
5462244

>  <RI>
1.63646e+07

>  <Rbt.Current_Directory>
/home/edward/Documentos/Virtual_Screening/rDock/N-terminal/3

>  <Rbt.Executable>
rbdock ($Id: //depot/dev/client3/rdock/2013.1/src/exe/rbdock.cxx#4 $)

>  <Rbt.Library>
libRbt.so (2013.1, Build901 2013/11/27)

>  <Rbt.Parameter_File>
/home/edward/anaconda3/envs/MD/share/rdock-2013.1-1/data/scripts/dock.prm

>  <Rbt.Receptor>
parameters.prm

>  <SCORE>
-21.752

>  <SCORE.INTER>
-16.8981

>  <SCORE.INTER.CONST>
1

>  <SCORE.INTER.POLAR>
-4.63341

>  <SCORE.INTER.REPUL>
0

>  <SCORE.INTER.ROT>
5

>  <SCORE.INTER.VDW>
-11.5445

>  <SCORE.INTER.norm>
-0.844905

>  <SCORE.INTRA>
-3.86894

>  <SCORE.INTRA.DIHEDRAL>
-13.9475

>  <SCORE.INTRA.DIHEDRAL.0>
20.258

>  <SCORE.INTRA.POLAR>
0

>  <SCORE.INTRA.POLAR.0>
0

>  <SCORE.INTRA.REPUL>
0

>  <SCORE.INTRA.REPUL.0>
0

>  <SCORE.INTRA.VDW>
3.10482

>  <SCORE.INTRA.VDW.0>
-3.72145

>  <SCORE.INTRA.norm>
-0.193447

>  <SCORE.RESTR>
0

>  <SCORE.RESTR.CAVITY>
0

>  <SCORE.RESTR.norm>
0

>  <SCORE.SYSTEM>
-0.984955

>  <SCORE.SYSTEM.CONST>
0

>  <SCORE.SYSTEM.DIHEDRAL>
0.596409

>  <SCORE.SYSTEM.REPUL>
0.0118677

>  <SCORE.SYSTEM.VDW>
-1.3425

>  <SCORE.SYSTEM.norm>
-0.0492478

>  <SCORE.heavy>
20

>  <SCORE.norm>
-1.0876

>  <SMILES>
CC(=O)N[C@H]1[C@H](O)O[C@H](CO)[C@@H](O)[C@@H]1O[C@H](C)C(=O)[O-]

>  <UniqueID>
148

$$$$
5317448
  rDOCK(R)          3D
libRbt.so/2013.1/901 2013/11/27
 18 18  0  0  0  0  0  0  0  0999 V2000
   33.7044   -0.8023  -64.2844 N   0  0  0  0  0  0
   34.5566   -0.0690  -63.3435 C   0  0  0  0  0  0
   35.3786    1.0134  -64.0834 C   0  0  0  0  0  0
   34.5509    1.8773  -64.8273 O   0  0  0  0  0  0
   36.1851    1.7566  -63.1797 O   0  0  0  0  0  0
   35.3973    2.4398  -62.2138 C   0  0  0  0  0  0
   36.2971    3.3811  -61.3988 C   0  0  0  0  0  0
   37.2151    4.0460  -62.2278 O   0  0  0  0  0  0
   34.6363    1.4410  -61.3123 C   0  0  0  0  0  0
   35.5507    0.6344  -60.6109 O   0  0  0  0  0  0
   33.7289    0.5691  -62.2011 C   0  0  0  0  0  0
   33.0534   -0.4017  -61.4385 O   0  0  0  0  0  0
   33.0692   -0.1209  -64.7598 H   0  0  0  0  0  0
   34.2952   -1.2414  -65.0276 H   0  0  0  0  0  0
   35.1387    2.5583  -65.2472 H   0  0  0  0  0  0
   36.6913    4.5142  -62.9289 H   0  0  0  0  0  0
   35.0205   -0.0383  -60.1090 H   0  0  0  0  0  0
   32.4225   -0.8795  -62.0374 H   0  0  0  0  0  0
  1  2  1  0  0  0
  1 13  1  0  0  0
  1 14  1  0  0  0
  2  3  1  0  0  0
  3  4  1  0  0  0
  3  5  1  0  0  0
  4 15  1  0  0  0
  5  6  1  0  0  0
  6  7  1  0  0  0
  6  9  1  0  0  0
  7  8  1  0  0  0
  8 16  1  0  0  0
  9 10  1  0  0  0
  9 11  1  0  0  0
 10 17  1  0  0  0
 11 12  1  0  0  0
 11  2  1  0  0  0
 12 18  1  0  0  0
M  END
>  <CHROM.0>
71.56692351,-60.43130657,60.73856340

>  <CHROM.1>
-58.57011426,178.16737240,41.96994982,55.78792772,-175.23324114,-61.62931516
35.02559015,1.32745739,-62.61029152,-2.94492423,0.90041213,1.59321613

>  <Energy>
26.511424372767618

>  <Genealogy>
N[C@H]1[C@@H](O)O[C@H](CO)[C@H](O)[C@@H]1O (3D coordinates assigned)
N[C@H]1[C@@H](O)O[C@H](CO)[C@H](O)[C@@H]1O (nonaromatic ring conformer: 26.511424372767618 kcal/mol)

>  <Name>
5317448

>  <RI>
1.63646e+07

>  <Rbt.Current_Directory>
/home/edward/Documentos/Virtual_Screening/rDock/N-terminal/3

>  <Rbt.Executable>
rbdock ($Id: //depot/dev/client3/rdock/2013.1/src/exe/rbdock.cxx#4 $)

>  <Rbt.Library>
libRbt.so (2013.1, Build901 2013/11/27)

>  <Rbt.Parameter_File>
/home/edward/anaconda3/envs/MD/share/rdock-2013.1-1/data/scripts/dock.prm

>  <Rbt.Receptor>
parameters.prm

>  <SCORE>
-24.5146

>  <SCORE.INTER>
-18.8236

>  <SCORE.INTER.CONST>
1

>  <SCORE.INTER.POLAR>
-4.27956

>  <SCORE.INTER.REPUL>
0.0119842

>  <SCORE.INTER.ROT>
2

>  <SCORE.INTER.VDW>
-11.733

>  <SCORE.INTER.norm>
-1.56863

>  <SCORE.INTRA>
-5.59889

>  <SCORE.INTRA.DIHEDRAL>
-11.9051

>  <SCORE.INTRA.DIHEDRAL.0>
13.3802

>  <SCORE.INTRA.POLAR>
-0.0258666

>  <SCORE.INTRA.POLAR.0>
0

>  <SCORE.INTRA.REPUL>
0

>  <SCORE.INTRA.REPUL.0>
0

>  <SCORE.INTRA.VDW>
0.441613

>  <SCORE.INTRA.VDW.0>
-0.989155

>  <SCORE.INTRA.norm>
-0.466574

>  <SCORE.RESTR>
0

>  <SCORE.RESTR.CAVITY>
0

>  <SCORE.RESTR.norm>
0

>  <SCORE.SYSTEM>
-0.0920978

>  <SCORE.SYSTEM.CONST>
0

>  <SCORE.SYSTEM.DIHEDRAL>
0.643918

>  <SCORE.SYSTEM.POLAR>
-0.0210917

>  <SCORE.SYSTEM.REPUL>
0.00413813

>  <SCORE.SYSTEM.VDW>
-0.363036

>  <SCORE.SYSTEM.norm>
-0.00767482

>  <SCORE.heavy>
12

>  <SCORE.norm>
-2.04288

>  <SMILES>
N[C@H]1[C@@H](O)O[C@H](CO)[C@H](O)[C@@H]1O

>  <UniqueID>
151

$$$$
5284365
  rDOCK(R)          3D
libRbt.so/2013.1/901 2013/11/27
 26 26  0  0  0  0  0  0  0  0999 V2000
   32.0692   -5.7176  -63.3648 H   0  0  0  0  0  0
   31.4302   -4.9429  -63.2535 O   0  0  0  0  0  0
   31.8233   -3.6768  -62.8605 N   0  0  0  0  0  0
   32.5964   -2.9090  -63.5343 N   0  3  0  0  0  0
   32.9163   -1.6227  -62.9633 C   0  0  0  0  0  0
   32.1939   -1.1633  -62.0354 O   0  0  0  0  0  0
   34.0510   -0.8632  -63.4169 N   0  0  0  0  0  0
   34.7834   -1.3337  -63.9925 H   0  0  0  0  0  0
   34.3371    0.4861  -62.9178 C   0  0  0  0  0  0
   34.9495    0.4149  -61.5054 C   0  0  0  0  0  0
   36.0761   -0.4266  -61.4861 O   0  0  0  0  0  0
   35.7532   -1.3312  -61.7359 H   0  0  0  0  0  0
   35.2668    1.7109  -61.0184 O   0  0  0  0  0  0
   36.2329    2.3578  -61.8345 C   0  0  0  0  0  0
   36.6153    3.6855  -61.1672 C   0  0  0  0  0  0
   37.2925    3.4512  -59.9627 O   0  0  0  0  0  0
   38.1353    2.9875  -60.2066 H   0  0  0  0  0  0
   35.6906    2.5759  -63.2692 C   0  0  0  0  0  0
   36.6813    3.1601  -64.0779 O   0  0  0  0  0  0
   36.7714    4.1067  -63.7930 H   0  0  0  0  0  0
   35.2857    1.2233  -63.8767 C   0  0  0  0  0  0
   34.6358    1.4230  -65.1059 O   0  0  0  0  0  0
   35.3210    1.7518  -65.7447 H   0  0  0  0  0  0
   33.1347   -3.3004  -64.8489 C   0  0  0  0  0  0
   32.1324   -2.9878  -65.9610 C   0  0  0  0  0  0
   30.7219   -4.0680  -65.8349 Cl  0  0  0  0  0  0
  1  2  1  0  0  0
  2  3  1  0  0  0
  3  4  2  0  0  0
  4  5  1  0  0  0
  4 24  1  0  0  0
  5  6  2  0  0  0
  5  7  1  0  0  0
  7  8  1  0  0  0
  7  9  1  0  0  0
  9 10  1  0  0  0
 10 11  1  0  0  0
 10 13  1  0  0  0
 11 12  1  0  0  0
 13 14  1  0  0  0
 14 15  1  0  0  0
 14 18  1  0  0  0
 15 16  1  0  0  0
 16 17  1  0  0  0
 18 19  1  0  0  0
 18 21  1  0  0  0
 19 20  1  0  0  0
 21 22  1  0  0  0
 21  9  1  0  0  0
 22 23  1  0  0  0
 24 25  1  0  0  0
 25 26  1  0  0  0
M  END
>  <CHROM.0>
-75.71771015,-174.32336289,-178.61013119

>  <CHROM.1>
64.33088561,84.28328712,76.56835672,-62.13081365,66.76907407,63.87681327
-72.81510518,-170.24412321,-69.09283610,34.00754886,-0.51096543,-63.21701038
3.03252633,-0.96650364,-1.29188382

>  <Energy>
35.40297681089967

>  <Genealogy>
O=N[NH+](CCCl)C(=O)N[C@H]1[C@@H](O)O[C@H](CO)[C@@H](O)[C@@H]1O (protonated)
O=C(N[C@H]1[C@@H](O)O[C@H](CO)[C@@H](O)[C@@H]1O)[N+](CCCl)=NO (tautomer)
O=C(N[C@H]1[C@@H](O)O[C@H](CO)[C@@H](O)[C@@H]1O)/[N+](CCCl)=N/O (cis-trans isomerization)
O=C(N[C@H]1[C@@H](O)O[C@H](CO)[C@@H](O)[C@@H]1O)/[N+](CCCl)=N/O (3D coordinates assigned)
O=C(N[C@H]1[C@@H](O)O[C@H](CO)[C@@H](O)[C@@H]1O)/[N+](CCCl)=N/O (nonaromatic ring conformer: 35.40297681089967 kcal/mol)

>  <Name>
5284365

>  <RI>
1.63646e+07

>  <Rbt.Current_Directory>
/home/edward/Documentos/Virtual_Screening/rDock/N-terminal/3

>  <Rbt.Executable>
rbdock ($Id: //depot/dev/client3/rdock/2013.1/src/exe/rbdock.cxx#4 $)

>  <Rbt.Library>
libRbt.so (2013.1, Build901 2013/11/27)

>  <Rbt.Parameter_File>
/home/edward/anaconda3/envs/MD/share/rdock-2013.1-1/data/scripts/dock.prm

>  <Rbt.Receptor>
parameters.prm

>  <SCORE>
-29.6249

>  <SCORE.INTER>
-27.386

>  <SCORE.INTER.CONST>
1

>  <SCORE.INTER.POLAR>
-5.47009

>  <SCORE.INTER.REPUL>
0

>  <SCORE.INTER.ROT>
4

>  <SCORE.INTER.VDW>
-18.1876

>  <SCORE.INTER.norm>
-1.3693

>  <SCORE.INTRA>
-2.80174

>  <SCORE.INTRA.DIHEDRAL>
-6.29649

>  <SCORE.INTRA.DIHEDRAL.0>
11.9025

>  <SCORE.INTRA.POLAR>
0

>  <SCORE.INTRA.POLAR.0>
0

>  <SCORE.INTRA.REPUL>
0

>  <SCORE.INTRA.REPUL.0>
0

>  <SCORE.INTRA.VDW>
0.346503

>  <SCORE.INTRA.VDW.0>
-2.40378

>  <SCORE.INTRA.norm>
-0.140087

>  <SCORE.RESTR>
0

>  <SCORE.RESTR.CAVITY>
0

>  <SCORE.RESTR.norm>
0

>  <SCORE.SYSTEM>
0.562766

>  <SCORE.SYSTEM.CONST>
0

>  <SCORE.SYSTEM.DIHEDRAL>
1.31923

>  <SCORE.SYSTEM.REPUL>
0.0482269

>  <SCORE.SYSTEM.VDW>
-0.337985

>  <SCORE.SYSTEM.norm>
0.0281383

>  <SCORE.heavy>
20

>  <SCORE.norm>
-1.48125

>  <SMILES>
O=C(N[C@H]1[C@@H](O)O[C@H](CO)[C@@H](O)[C@@H]1O)/[N+](CCCl)=N/O

>  <UniqueID>
155

$$$$
4282259
  rDOCK(R)          3D
libRbt.so/2013.1/901 2013/11/27
 25 26  0  0  0  0  0  0  0  0999 V2000
   35.8174    1.4604  -65.9617 H   0  0  0  0  0  0
   35.8853    2.0216  -65.1212 O   0  0  0  0  0  0
   35.1178    1.7446  -63.9926 C   0  0  0  0  0  0
   34.2494    0.7762  -64.0598 N   0  0  0  0  0  0
   33.3334    0.3379  -63.0006 C   0  0  0  0  0  0
   33.9615   -0.8398  -62.2319 C   0  0  0  0  0  0
   34.3954   -1.8280  -63.1337 O   0  0  0  0  0  0
   34.9185   -1.3641  -63.8386 H   0  0  0  0  0  0
   32.9360   -1.4346  -61.2460 C   0  0  0  0  0  0
   32.6845   -0.5218  -60.2067 O   0  0  0  0  0  0
   33.5363   -0.4131  -59.7084 H   0  0  0  0  0  0
   31.6236   -1.7484  -61.9968 C   0  0  0  0  0  0
   30.5721   -2.3390  -61.0469 C   0  0  0  0  0  0
   30.1119   -1.3569  -60.1577 O   0  0  0  0  0  0
   30.9150   -0.9523  -59.7370 H   0  0  0  0  0  0
   31.0973   -0.5737  -62.5943 O   0  0  0  0  0  0
   31.9656   -0.0657  -63.5975 C   0  0  0  0  0  0
   32.1337   -1.0037  -64.6665 O   0  0  0  0  0  0
   31.0884   -1.6691  -65.3252 C   0  0  0  0  0  0
   31.3134   -2.7016  -66.2578 C   0  0  0  0  0  0
   30.2331   -3.3255  -66.8899 C   0  0  0  0  0  0
   28.9254   -2.9297  -66.5979 C   0  0  0  0  0  0
   28.6954   -1.9091  -65.6721 C   0  0  0  0  0  0
   29.7729   -1.2825  -65.0387 C   0  0  0  0  0  0
   35.3341    2.5474  -62.7379 C   0  0  0  0  0  0
  1  2  1  0  0  0
  2  3  1  0  0  0
  3  4  2  0  0  0
  3 25  1  0  0  0
  4  5  1  0  0  0
  5  6  1  0  0  0
  6  7  1  0  0  0
  6  9  1  0  0  0
  7  8  1  0  0  0
  9 10  1  0  0  0
  9 12  1  0  0  0
 10 11  1  0  0  0
 12 13  1  0  0  0
 12 16  1  0  0  0
 13 14  1  0  0  0
 14 15  1  0  0  0
 16 17  1  0  0  0
 17 18  1  0  0  0
 17  5  1  0  0  0
 18 19  1  0  0  0
 19 20  2  0  0  0
 20 21  1  0  0  0
 21 22  2  0  0  0
 22 23  1  0  0  0
 23 24  2  0  0  0
 24 19  1  0  0  0
M  END
>  <CHROM.0>
-73.07629331,-175.06681088,62.33469342

>  <CHROM.1>
-3.37674127,-95.33658518,48.47781380,-64.29628006,70.18088921,-52.30514063
173.13955348,-172.04848667,32.23552020,-0.81798201,-63.50378212,-0.36877851
-0.60995166,-1.57539151

>  <Energy>
39.479612948464975

>  <Genealogy>
CC(O)=NC1C(Oc2ccccc2)OC(CO)C(O)C1O (tautomer)
CC(O)=N[C@@H]1[C@H](O)[C@@H](O)[C@@H](CO)O[C@@H]1Oc1ccccc1 (chirality)
C/C(O)=N\[C@@H]1[C@H](O)[C@@H](O)[C@@H](CO)O[C@@H]1Oc1ccccc1 (cis-trans isomerization)
C/C(O)=N\[C@@H]1[C@H](O)[C@@H](O)[C@@H](CO)O[C@@H]1Oc1ccccc1 (3D coordinates assigned)
C/C(O)=N\[C@@H]1[C@H](O)[C@@H](O)[C@@H](CO)O[C@@H]1Oc1ccccc1 (nonaromatic ring conformer: 39.479612948464975 kcal/mol)

>  <Name>
4282259

>  <RI>
1.63646e+07

>  <Rbt.Current_Directory>
/home/edward/Documentos/Virtual_Screening/rDock/N-terminal/3

>  <Rbt.Executable>
rbdock ($Id: //depot/dev/client3/rdock/2013.1/src/exe/rbdock.cxx#4 $)

>  <Rbt.Library>
libRbt.so (2013.1, Build901 2013/11/27)

>  <Rbt.Parameter_File>
/home/edward/anaconda3/envs/MD/share/rdock-2013.1-1/data/scripts/dock.prm

>  <Rbt.Receptor>
parameters.prm

>  <SCORE>
-20.2233

>  <SCORE.INTER>
-16.7915

>  <SCORE.INTER.CONST>
1

>  <SCORE.INTER.POLAR>
-4.05713

>  <SCORE.INTER.REPUL>
0.129624

>  <SCORE.INTER.ROT>
4

>  <SCORE.INTER.VDW>
-13.0454

>  <SCORE.INTER.norm>
-0.799597

>  <SCORE.INTRA>
-3.88317

>  <SCORE.INTRA.DIHEDRAL>
-3.11125

>  <SCORE.INTRA.DIHEDRAL.0>
5.87892

>  <SCORE.INTRA.POLAR>
-0.903736

>  <SCORE.INTRA.POLAR.0>
0

>  <SCORE.INTRA.REPUL>
-0.0462726

>  <SCORE.INTRA.REPUL.0>
0.0462726

>  <SCORE.INTRA.VDW>
0.976519

>  <SCORE.INTRA.VDW.0>
-2.49237

>  <SCORE.INTRA.norm>
-0.184913

>  <SCORE.RESTR>
0

>  <SCORE.RESTR.CAVITY>
0

>  <SCORE.RESTR.norm>
0

>  <SCORE.SYSTEM>
0.451383

>  <SCORE.SYSTEM.CONST>
0

>  <SCORE.SYSTEM.DIHEDRAL>
0.957641

>  <SCORE.SYSTEM.REPUL>
0.0496291

>  <SCORE.SYSTEM.VDW>
-0.275583

>  <SCORE.SYSTEM.norm>
0.0214944

>  <SCORE.heavy>
21

>  <SCORE.norm>
-0.963015

>  <SMILES>
C/C(O)=N\[C@@H]1[C@H](O)[C@@H](O)[C@@H](CO)O[C@@H]1Oc1ccccc1

>  <UniqueID>
158

$$$$
3052142
  rDOCK(R)          3D
libRbt.so/2013.1/901 2013/11/27
 30 30  0  0  0  0  0  0  0  0999 V2000
   32.4204    2.4499  -61.7542 H   0  0  0  0  0  0
   32.1109    2.5900  -60.8019 O   0  0  0  0  0  0
   32.1056    1.5702  -59.8486 C   0  0  0  0  0  0
   31.7271    1.8802  -58.6051 C   0  0  0  0  0  0
   31.6604    0.7085  -57.2965 Cl  0  0  0  0  0  0
   32.5165    0.2311  -60.1904 N   0  0  0  0  0  0
   32.8722   -0.4007  -59.4376 H   0  0  0  0  0  0
   32.5050   -0.2968  -61.5586 C   0  0  0  0  0  0
   33.8831   -0.0808  -62.2295 C   0  0  0  0  0  0
   34.1497    1.3174  -62.3478 O   0  0  0  0  0  0
   35.2050    1.8539  -63.0953 C   0  0  0  0  0  0
   35.9950    1.1058  -63.7327 O   0  0  0  0  0  0
   35.3649    3.3333  -63.1787 C   0  0  0  0  0  0
   33.8857   -0.6331  -63.5347 O   0  0  0  0  0  0
   33.7268   -2.0408  -63.4820 C   0  0  0  0  0  0
   33.9677   -2.6218  -64.8823 C   0  0  0  0  0  0
   33.8835   -4.0460  -64.8561 O   0  0  0  0  0  0
   34.2717   -4.8614  -65.9249 C   0  0  0  0  0  0
   34.0797   -6.1074  -65.8912 O   0  0  0  0  0  0
   34.9556   -4.2531  -67.1015 C   0  0  0  0  0  0
   32.3208   -2.3976  -62.9480 C   0  0  0  0  0  0
   31.3030   -1.8647  -63.8029 O   0  0  0  0  0  0
   30.0527   -2.4619  -64.0000 C   0  0  0  0  0  0
   29.7766   -3.5774  -63.4808 O   0  0  0  0  0  0
   29.0534   -1.7905  -64.8786 C   0  0  0  0  0  0
   32.1590   -1.8017  -61.5414 C   0  0  0  0  0  0
   30.8104   -1.9940  -61.1073 O   0  0  0  0  0  0
   30.2544   -3.2455  -60.8193 C   0  0  0  0  0  0
   30.9183   -4.3038  -60.9867 O   0  0  0  0  0  0
   28.8498   -3.3307  -60.3291 C   0  0  0  0  0  0
  1  2  1  0  0  0
  2  3  1  0  0  0
  3  4  2  0  0  0
  3  6  1  0  0  0
  4  5  1  0  0  0
  6  7  1  0  0  0
  6  8  1  0  0  0
  8  9  1  0  0  0
  9 10  1  0  0  0
  9 14  1  0  0  0
 10 11  1  0  0  0
 11 12  2  0  0  0
 11 13  1  0  0  0
 14 15  1  0  0  0
 15 16  1  0  0  0
 15 21  1  0  0  0
 16 17  1  0  0  0
 17 18  1  0  0  0
 18 19  2  0  0  0
 18 20  1  0  0  0
 21 22  1  0  0  0
 21 26  1  0  0  0
 22 23  1  0  0  0
 23 24  2  0  0  0
 23 25  1  0  0  0
 26 27  1  0  0  0
 26  8  1  0  0  0
 27 28  1  0  0  0
 28 29  2  0  0  0
 28 30  1  0  0  0
M  END
>  <CHROM.0>
74.52093540,-57.92412633,63.32758022

>  <CHROM.1>
177.32946217,92.55274865,-169.42741225,0.57910389,177.04720290,-169.11390962
-174.40086045,148.99401347,-4.37186215,-171.32102531,-3.07993411,32.51208739
-1.23849225,-62.35337043,-1.73431132,-0.70454618,-2.41153209

>  <Energy>
35.619659257475114

>  <Genealogy>
CC(=O)OC[C@H]1O[C@@H](OC(C)=O)[C@H](NC(O)=CCl)[C@@H](OC(C)=O)[C@H]1OC(C)=O (tautomer)
CC(=O)OC[C@H]1O[C@@H](OC(C)=O)[C@H](N/C(O)=C/Cl)[C@@H](OC(C)=O)[C@H]1OC(C)=O (cis-trans isomerization)
CC(=O)OC[C@H]1O[C@@H](OC(C)=O)[C@H](N/C(O)=C/Cl)[C@@H](OC(C)=O)[C@H]1OC(C)=O (3D coordinates assigned)
CC(=O)OC[C@H]1O[C@@H](OC(C)=O)[C@H](N/C(O)=C/Cl)[C@@H](OC(C)=O)[C@H]1OC(C)=O (nonaromatic ring conformer: 35.619659257475114 kcal/mol)

>  <Name>
3052142

>  <RI>
1.63646e+07

>  <Rbt.Current_Directory>
/home/edward/Documentos/Virtual_Screening/rDock/N-terminal/3

>  <Rbt.Executable>
rbdock ($Id: //depot/dev/client3/rdock/2013.1/src/exe/rbdock.cxx#4 $)

>  <Rbt.Library>
libRbt.so (2013.1, Build901 2013/11/27)

>  <Rbt.Parameter_File>
/home/edward/anaconda3/envs/MD/share/rdock-2013.1-1/data/scripts/dock.prm

>  <Rbt.Receptor>
parameters.prm

>  <SCORE>
-9.67846

>  <SCORE.INTER>
-7.21148

>  <SCORE.INTER.CONST>
1

>  <SCORE.INTER.POLAR>
-2.21066

>  <SCORE.INTER.REPUL>
0.035513

>  <SCORE.INTER.ROT>
10

>  <SCORE.INTER.VDW>
-15.2728

>  <SCORE.INTER.norm>
-0.257553

>  <SCORE.INTRA>
-2.44314

>  <SCORE.INTRA.DIHEDRAL>
-8.35428

>  <SCORE.INTRA.DIHEDRAL.0>
16.6567

>  <SCORE.INTRA.POLAR>
-0.506637

>  <SCORE.INTRA.POLAR.0>
0

>  <SCORE.INTRA.REPUL>
0

>  <SCORE.INTRA.REPUL.0>
0

>  <SCORE.INTRA.VDW>
3.45656

>  <SCORE.INTRA.VDW.0>
-6.04475

>  <SCORE.INTRA.norm>
-0.0872552

>  <SCORE.RESTR>
0

>  <SCORE.RESTR.CAVITY>
0

>  <SCORE.RESTR.norm>
0

>  <SCORE.SYSTEM>
-0.0238324

>  <SCORE.SYSTEM.CONST>
0

>  <SCORE.SYSTEM.DIHEDRAL>
1.06712

>  <SCORE.SYSTEM.POLAR>
-0.0116683

>  <SCORE.SYSTEM.REPUL>
0.0127317

>  <SCORE.SYSTEM.VDW>
-0.581378

>  <SCORE.SYSTEM.norm>
-0.000851158

>  <SCORE.heavy>
28

>  <SCORE.norm>
-0.345659

>  <SMILES>
CC(=O)OC[C@H]1O[C@@H](OC(C)=O)[C@H](N/C(O)=C/Cl)[C@@H](OC(C)=O)[C@H]1OC(C)=O

>  <UniqueID>
162

$$$$
2801971
  rDOCK(R)          3D
libRbt.so/2013.1/901 2013/11/27
 26 27  0  0  0  0  0  0  0  0999 V2000
   37.3962    9.4411  -61.9656 H   0  0  0  0  0  0
   36.8924   10.2944  -61.7554 O   0  0  0  0  0  0
   35.9405   10.3475  -60.7406 C   0  0  0  0  0  0
   35.7249    9.2680  -60.0431 N   0  0  0  0  0  0
   34.7493    9.0741  -58.9635 C   0  0  0  0  0  0
   33.8457    7.8579  -59.2635 C   0  0  0  0  0  0
   34.6423    6.7206  -59.5685 O   0  0  0  0  0  0
   33.8353    5.6096  -59.9061 C   0  0  0  0  0  0
   34.6908    4.3925  -60.1443 C   0  0  0  0  0  0
   35.9976    4.5385  -60.6377 C   0  0  0  0  0  0
   36.7814    3.4109  -60.9004 C   0  0  0  0  0  0
   36.2681    2.1320  -60.6684 C   0  0  0  0  0  0
   34.9712    1.9788  -60.1709 C   0  0  0  0  0  0
   34.1830    3.1040  -59.9089 C   0  0  0  0  0  0
   32.9641    7.5912  -58.1829 O   0  0  0  0  0  0
   33.6660    7.2624  -56.9943 C   0  0  0  0  0  0
   32.6299    6.8650  -55.9334 C   0  0  0  0  0  0
   33.2550    6.6283  -54.7019 O   0  0  0  0  0  0
   33.6767    5.7328  -54.7747 H   0  0  0  0  0  0
   34.5237    8.4633  -56.5282 C   0  0  0  0  0  0
   35.2593    8.1248  -55.3788 O   0  0  0  0  0  0
   34.6077    7.8387  -54.6864 H   0  0  0  0  0  0
   35.5042    8.8560  -57.6405 C   0  0  0  0  0  0
   36.1717   10.0349  -57.2679 O   0  0  0  0  0  0
   35.4758   10.7274  -57.1199 H   0  0  0  0  0  0
   35.1854   11.6300  -60.5163 C   0  0  0  0  0  0
  1  2  1  0  0  0
  2  3  1  0  0  0
  3  4  2  0  0  0
  3 26  1  0  0  0
  4  5  1  0  0  0
  5  6  1  0  0  0
  6  7  1  0  0  0
  6 15  1  0  0  0
  7  8  1  0  0  0
  8  9  1  0  0  0
  9 10  2  0  0  0
 10 11  1  0  0  0
 11 12  2  0  0  0
 12 13  1  0  0  0
 13 14  2  0  0  0
 14  9  1  0  0  0
 15 16  1  0  0  0
 16 17  1  0  0  0
 16 20  1  0  0  0
 17 18  1  0  0  0
 18 19  1  0  0  0
 20 21  1  0  0  0
 20 23  1  0  0  0
 21 22  1  0  0  0
 23 24  1  0  0  0
 23  5  1  0  0  0
 24 25  1  0  0  0
M  END
>  <CHROM.0>
72.38057689,-176.26227953,62.37298238

>  <CHROM.1>
1.14146381,125.57306387,-177.34056335,-176.56011943,-30.01163324,-175.41277581
-77.09420946,-57.51337058,62.54265650,34.88901138,7.12695099,-58.81290185
-1.58276045,-1.14168464,-2.88923351

>  <Energy>
42.793135442086566

>  <Genealogy>
CC(O)=N[C@H]1[C@@H](OCc2ccccc2)O[C@H](CO)[C@@H](O)[C@@H]1O (tautomer)
C/C(O)=N/[C@H]1[C@@H](OCc2ccccc2)O[C@H](CO)[C@@H](O)[C@@H]1O (cis-trans isomerization)
C/C(O)=N/[C@H]1[C@@H](OCc2ccccc2)O[C@H](CO)[C@@H](O)[C@@H]1O (3D coordinates assigned)
C/C(O)=N/[C@H]1[C@@H](OCc2ccccc2)O[C@H](CO)[C@@H](O)[C@@H]1O (nonaromatic ring conformer: 42.793135442086566 kcal/mol)

>  <Name>
2801971

>  <RI>
1.63646e+07

>  <Rbt.Current_Directory>
/home/edward/Documentos/Virtual_Screening/rDock/N-terminal/3

>  <Rbt.Executable>
rbdock ($Id: //depot/dev/client3/rdock/2013.1/src/exe/rbdock.cxx#4 $)

>  <Rbt.Library>
libRbt.so (2013.1, Build901 2013/11/27)

>  <Rbt.Parameter_File>
/home/edward/anaconda3/envs/MD/share/rdock-2013.1-1/data/scripts/dock.prm

>  <Rbt.Receptor>
parameters.prm

>  <SCORE>
-19.1844

>  <SCORE.INTER>
-14.4215

>  <SCORE.INTER.CONST>
1

>  <SCORE.INTER.POLAR>
-1.7141

>  <SCORE.INTER.REPUL>
0

>  <SCORE.INTER.ROT>
5

>  <SCORE.INTER.VDW>
-18.9935

>  <SCORE.INTER.norm>
-0.655522

>  <SCORE.INTRA>
-5.25866

>  <SCORE.INTRA.DIHEDRAL>
-13.632

>  <SCORE.INTRA.DIHEDRAL.0>
16.0928

>  <SCORE.INTRA.POLAR>
-0.553342

>  <SCORE.INTRA.POLAR.0>
0

>  <SCORE.INTRA.REPUL>
0

>  <SCORE.INTRA.REPUL.0>
0

>  <SCORE.INTRA.VDW>
3.43871

>  <SCORE.INTRA.VDW.0>
-4.09368

>  <SCORE.INTRA.norm>
-0.23903

>  <SCORE.RESTR>
0

>  <SCORE.RESTR.CAVITY>
0

>  <SCORE.RESTR.norm>
0

>  <SCORE.SYSTEM>
0.495758

>  <SCORE.SYSTEM.CONST>
0

>  <SCORE.SYSTEM.DIHEDRAL>
0.826755

>  <SCORE.SYSTEM.POLAR>
-0.0183666

>  <SCORE.SYSTEM.REPUL>
0.0584158

>  <SCORE.SYSTEM.VDW>
-0.147252

>  <SCORE.SYSTEM.norm>
0.0225344

>  <SCORE.heavy>
22

>  <SCORE.norm>
-0.872018

>  <SMILES>
C/C(O)=N/[C@H]1[C@@H](OCc2ccccc2)O[C@H](CO)[C@@H](O)[C@@H]1O

>  <UniqueID>
165

$$$$
2733787
  rDOCK(R)          3D
libRbt.so/2013.1/901 2013/11/27
 31 33  0  0  0  0  0  0  0  0999 V2000
   32.5371   -2.7906  -63.9944 C   0  0  0  0  0  0
   32.6791   -1.3786  -63.5269 C   0  0  0  0  0  0
   31.6922   -0.8024  -62.9948 O   0  0  0  0  0  0
   33.9469   -0.7127  -63.6279 N   0  0  0  0  0  0
   34.1870    0.6361  -63.1047 C   0  0  0  0  0  0
   34.7266    0.5785  -61.6560 C   0  0  0  0  0  0
   33.7429   -0.0025  -60.7946 O   0  0  0  0  0  0
   32.7230    0.6760  -60.1047 C   0  0  0  0  0  0
   32.1778    0.0570  -58.9753 C   0  0  0  0  0  0
   31.1791    0.6829  -58.2257 C   0  0  0  0  0  0
   30.6969    1.9502  -58.6025 C   0  0  0  0  0  0
   29.6956    2.6348  -57.8771 C   0  0  0  0  0  0
   29.0687    2.0535  -56.6365 C   0  0  0  0  0  0
   29.2791    3.8936  -58.3313 C   0  0  0  0  0  0
   29.8586    4.4356  -59.4803 C   0  0  0  0  0  0
   29.4907    5.5653  -59.8964 O   0  0  0  0  0  0
   30.7977    3.7678  -60.1396 O   0  0  0  0  0  0
   31.2328    2.5719  -59.7552 C   0  0  0  0  0  0
   32.2309    1.9348  -60.5001 C   0  0  0  0  0  0
   34.9750    1.8935  -61.1896 O   0  0  0  0  0  0
   36.0296    2.5020  -61.9182 C   0  0  0  0  0  0
   36.3747    3.8389  -61.2453 C   0  0  0  0  0  0
   36.8617    3.6229  -59.9481 O   0  0  0  0  0  0
   35.6043    2.7174  -63.3894 C   0  0  0  0  0  0
   36.6691    3.2569  -64.1320 O   0  0  0  0  0  0
   35.2030    1.3657  -64.0058 C   0  0  0  0  0  0
   34.6907    1.5395  -65.3041 O   0  0  0  0  0  0
   34.7544   -1.2400  -64.0315 H   0  0  0  0  0  0
   36.1437    3.1520  -59.4496 H   0  0  0  0  0  0
   36.7739    4.2027  -63.8496 H   0  0  0  0  0  0
   35.4336    1.8545  -65.8829 H   0  0  0  0  0  0
  1  2  1  0  0  0
  2  3  2  0  0  0
  2  4  1  0  0  0
  4  5  1  0  0  0
  4 28  1  0  0  0
  5  6  1  0  0  0
  6  7  1  0  0  0
  6 20  1  0  0  0
  7  8  1  0  0  0
  8  9  2  0  0  0
  9 10  1  0  0  0
 10 11  2  0  0  0
 11 12  1  0  0  0
 12 13  1  0  0  0
 12 14  2  0  0  0
 14 15  1  0  0  0
 15 16  2  0  0  0
 15 17  1  0  0  0
 17 18  1  0  0  0
 18 19  2  0  0  0
 18 11  1  0  0  0
 19  8  1  0  0  0
 20 21  1  0  0  0
 21 22  1  0  0  0
 21 24  1  0  0  0
 22 23  1  0  0  0
 23 29  1  0  0  0
 24 25  1  0  0  0
 24 26  1  0  0  0
 25 30  1  0  0  0
 26 27  1  0  0  0
 26  5  1  0  0  0
 27 31  1  0  0  0
M  END
>  <CHROM.0>
-178.46957910,-177.96487234,177.37586365

>  <CHROM.1>
92.19052905,-88.90874063,-157.54896628,63.76982355,-59.52977036,-72.47889964
-169.61774886,32.99487409,1.74004717,-61.17353442,0.60184649,-0.56380539
-2.59102828

>  <Energy>
52.23051723202724

>  <Genealogy>
CC(=O)N[C@H]1[C@H](Oc2ccc3c(C)cc(=O)oc3c2)O[C@H](CO)[C@@H](O)[C@@H]1O (3D coordinates assigned)
CC(=O)N[C@H]1[C@H](Oc2ccc3c(C)cc(=O)oc3c2)O[C@H](CO)[C@@H](O)[C@@H]1O (nonaromatic ring conformer: 52.23051723202724 kcal/mol)

>  <Name>
2733787

>  <RI>
1.63646e+07

>  <Rbt.Current_Directory>
/home/edward/Documentos/Virtual_Screening/rDock/N-terminal/3

>  <Rbt.Executable>
rbdock ($Id: //depot/dev/client3/rdock/2013.1/src/exe/rbdock.cxx#4 $)

>  <Rbt.Library>
libRbt.so (2013.1, Build901 2013/11/27)

>  <Rbt.Parameter_File>
/home/edward/anaconda3/envs/MD/share/rdock-2013.1-1/data/scripts/dock.prm

>  <Rbt.Receptor>
parameters.prm

>  <SCORE>
-23.652

>  <SCORE.INTER>
-23.1711

>  <SCORE.INTER.CONST>
1

>  <SCORE.INTER.POLAR>
-4.25597

>  <SCORE.INTER.REPUL>
0.455247

>  <SCORE.INTER.ROT>
4

>  <SCORE.INTER.VDW>
-20.377

>  <SCORE.INTER.norm>
-0.858188

>  <SCORE.INTRA>
-0.0351973

>  <SCORE.INTRA.DIHEDRAL>
-2.7506

>  <SCORE.INTRA.DIHEDRAL.0>
9.26021

>  <SCORE.INTRA.POLAR>
-0.0108488

>  <SCORE.INTRA.POLAR.0>
0

>  <SCORE.INTRA.REPUL>
0

>  <SCORE.INTRA.REPUL.0>
0

>  <SCORE.INTRA.VDW>
1.37699

>  <SCORE.INTRA.VDW.0>
-3.66702

>  <SCORE.INTRA.norm>
-0.0013036

>  <SCORE.RESTR>
0

>  <SCORE.RESTR.CAVITY>
0

>  <SCORE.RESTR.norm>
0

>  <SCORE.SYSTEM>
-0.44572

>  <SCORE.SYSTEM.CONST>
0

>  <SCORE.SYSTEM.DIHEDRAL>
0.0658995

>  <SCORE.SYSTEM.REPUL>
0.0909688

>  <SCORE.SYSTEM.VDW>
-0.933514

>  <SCORE.SYSTEM.norm>
-0.0165081

>  <SCORE.heavy>
27

>  <SCORE.norm>
-0.875999

>  <SMILES>
CC(=O)N[C@H]1[C@H](Oc2ccc3c(C)cc(=O)oc3c2)O[C@H](CO)[C@@H](O)[C@@H]1O

>  <UniqueID>
168

$$$$
2733335
  rDOCK(R)          3D
libRbt.so/2013.1/901 2013/11/27
 24 24  0  0  0  0  0  0  0  0999 V2000
   32.6585    0.2262  -64.7749 H   0  0  0  0  0  0
   32.4747   -0.7624  -64.6693 O   0  0  0  0  0  0
   33.4264   -1.7117  -64.2774 C   0  0  0  0  0  0
   34.3679   -1.3622  -63.2369 N   0  0  0  0  0  0
   34.9261   -2.1217  -62.7865 H   0  0  0  0  0  0
   34.6313   -0.0052  -62.7296 C   0  0  0  0  0  0
   35.3251   -0.0152  -61.3500 C   0  0  0  0  0  0
   36.5679   -0.6679  -61.3918 O   0  0  0  0  0  0
   36.3774   -1.6205  -61.5956 H   0  0  0  0  0  0
   35.4644    1.3075  -60.8499 O   0  0  0  0  0  0
   36.2787    2.1076  -61.6979 C   0  0  0  0  0  0
   36.4657    3.4767  -61.0345 C   0  0  0  0  0  0
   37.1861    3.3285  -59.8422 O   0  0  0  0  0  0
   38.0712    2.9603  -60.0991 H   0  0  0  0  0  0
   35.6297    2.2635  -63.0994 C   0  0  0  0  0  0
   36.4193    3.0636  -63.9457 O   0  0  0  0  0  0
   36.3800    3.9951  -63.6037 H   0  0  0  0  0  0
   35.3945    0.8807  -63.7333 C   0  0  0  0  0  0
   34.6459    1.0326  -64.9116 O   0  0  0  0  0  0
   35.2506    1.4411  -65.5850 H   0  0  0  0  0  0
   33.4644   -2.9032  -64.8342 N   0  3  0  0  0  0
   34.4676   -3.8134  -64.4425 N   0  0  0  0  0  0
   35.5705   -3.4367  -63.9943 O   0  0  0  0  0  0
   32.4978   -3.2892  -65.8744 C   0  0  0  0  0  0
  1  2  1  0  0  0
  2  3  1  0  0  0
  3  4  1  0  0  0
  3 21  2  0  0  0
  4  5  1  0  0  0
  4  6  1  0  0  0
  6  7  1  0  0  0
  7  8  1  0  0  0
  7 10  1  0  0  0
  8  9  1  0  0  0
 10 11  1  0  0  0
 11 12  1  0  0  0
 11 15  1  0  0  0
 12 13  1  0  0  0
 13 14  1  0  0  0
 15 16  1  0  0  0
 15 18  1  0  0  0
 16 17  1  0  0  0
 18 19  1  0  0  0
 18  6  1  0  0  0
 19 20  1  0  0  0
 21 22  1  0  0  0
 21 24  1  0  0  0
 22 23  2  0  0  0
M  END
>  <CHROM.0>
-176.26908515,63.54269155,-179.39319188

>  <CHROM.1>
40.03785784,161.48989617,-65.49761984,64.95822733,61.76750482,-69.44704064
-168.36848179,-26.71901812,35.04727943,0.00174170,-63.10222370,2.43583518
1.00656752,2.92564425

>  <Energy>
38.1907630881702

>  <Genealogy>
C[NH+](N=O)C(=O)N[C@H]1C(O)O[C@H](CO)[C@@H](O)[C@@H]1O (protonated)
C[N+](N=O)=C(O)N[C@H]1C(O)O[C@H](CO)[C@@H](O)[C@@H]1O (tautomer)
C[N+](N=O)=C(O)N[C@H]1[C@@H](O)O[C@H](CO)[C@@H](O)[C@@H]1O (chirality)
C/[N+](N=O)=C(\O)N[C@H]1[C@@H](O)O[C@H](CO)[C@@H](O)[C@@H]1O (cis-trans isomerization)
C/[N+](N=O)=C(\O)N[C@H]1[C@@H](O)O[C@H](CO)[C@@H](O)[C@@H]1O (3D coordinates assigned)
C/[N+](N=O)=C(\O)N[C@H]1[C@@H](O)O[C@H](CO)[C@@H](O)[C@@H]1O (nonaromatic ring conformer: 38.1907630881702 kcal/mol)

>  <Name>
2733335

>  <RI>
1.63646e+07

>  <Rbt.Current_Directory>
/home/edward/Documentos/Virtual_Screening/rDock/N-terminal/3

>  <Rbt.Executable>
rbdock ($Id: //depot/dev/client3/rdock/2013.1/src/exe/rbdock.cxx#4 $)

>  <Rbt.Library>
libRbt.so (2013.1, Build901 2013/11/27)

>  <Rbt.Parameter_File>
/home/edward/anaconda3/envs/MD/share/rdock-2013.1-1/data/scripts/dock.prm

>  <Rbt.Receptor>
parameters.prm

>  <SCORE>
-26.4502

>  <SCORE.INTER>
-24.5659

>  <SCORE.INTER.CONST>
1

>  <SCORE.INTER.POLAR>
-4.90059

>  <SCORE.INTER.REPUL>
0

>  <SCORE.INTER.ROT>
3

>  <SCORE.INTER.VDW>
-16.3039

>  <SCORE.INTER.norm>
-1.36477

>  <SCORE.INTRA>
-1.65404

>  <SCORE.INTRA.DIHEDRAL>
0.538719

>  <SCORE.INTRA.DIHEDRAL.0>
5.02021

>  <SCORE.INTRA.POLAR>
-0.476817

>  <SCORE.INTRA.POLAR.0>
-0.382058

>  <SCORE.INTRA.REPUL>
0

>  <SCORE.INTRA.REPUL.0>
0

>  <SCORE.INTRA.VDW>
-0.302219

>  <SCORE.INTRA.VDW.0>
-0.692234

>  <SCORE.INTRA.norm>
-0.0918909

>  <SCORE.RESTR>
0

>  <SCORE.RESTR.CAVITY>
0

>  <SCORE.RESTR.norm>
0

>  <SCORE.SYSTEM>
-0.230262

>  <SCORE.SYSTEM.CONST>
0

>  <SCORE.SYSTEM.DIHEDRAL>
0.132047

>  <SCORE.SYSTEM.REPUL>
0.169829

>  <SCORE.SYSTEM.VDW>
-1.14543

>  <SCORE.SYSTEM.norm>
-0.0127923

>  <SCORE.heavy>
18

>  <SCORE.norm>
-1.46946

>  <SMILES>
C/[N+](N=O)=C(\O)N[C@H]1[C@@H](O)O[C@H](CO)[C@@H](O)[C@@H]1O

>  <UniqueID>
171

$$$$
644170
  rDOCK(R)          3D
libRbt.so/2013.1/901 2013/11/27
 20 20  0  0  0  0  0  0  0  0999 V2000
   30.0809    0.5014  -63.2931 H   0  0  0  0  0  0
   30.9565    0.8383  -62.9109 O   0  0  0  0  0  0
   32.1735    0.2478  -63.2415 C   0  0  0  0  0  0
   33.2604    0.7384  -62.7178 N   0  0  0  0  0  0
   34.6309    0.2539  -62.9253 C   0  0  0  0  0  0
   35.3654    0.1592  -61.5679 C   0  0  0  0  0  0
   36.6069   -0.4891  -61.7035 O   0  0  0  0  0  0
   36.4190   -1.3997  -62.0516 H   0  0  0  0  0  0
   35.5305    1.4403  -60.9798 O   0  0  0  0  0  0
   36.3250    2.2954  -61.7887 C   0  0  0  0  0  0
   36.5654    3.6076  -61.0239 C   0  0  0  0  0  0
   37.2590    3.3785  -59.8257 O   0  0  0  0  0  0
   38.1491    3.0163  -60.0746 H   0  0  0  0  0  0
   35.6493    2.5564  -63.1550 C   0  0  0  0  0  0
   36.4928    3.3503  -63.9510 O   0  0  0  0  0  0
   36.4129    4.2821  -63.6179 H   0  0  0  0  0  0
   35.3835    1.2140  -63.8612 C   0  0  0  0  0  0
   34.6283    1.4169  -65.0290 O   0  0  0  0  0  0
   35.1251    2.0715  -65.5860 H   0  0  0  0  0  0
   32.1965   -0.9038  -64.2106 C   0  0  0  0  0  0
  1  2  1  0  0  0
  2  3  1  0  0  0
  3  4  2  0  0  0
  3 20  1  0  0  0
  4  5  1  0  0  0
  5  6  1  0  0  0
  6  7  1  0  0  0
  6  9  1  0  0  0
  7  8  1  0  0  0
  9 10  1  0  0  0
 10 11  1  0  0  0
 10 14  1  0  0  0
 11 12  1  0  0  0
 12 13  1  0  0  0
 14 15  1  0  0  0
 14 17  1  0  0  0
 15 16  1  0  0  0
 17 18  1  0  0  0
 17  5  1  0  0  0
 18 19  1  0  0  0
M  END
>  <CHROM.0>
-72.07833688,-59.60182553,58.03215529

>  <CHROM.1>
179.63108713,-133.95458470,-59.96276256,61.36785791,63.32358588,-77.17145687
177.43544297,34.89566506,1.36602803,-62.58995895,2.97908580,-0.64833973,-1.10497015

>  <Energy>
28.40742921752201

>  <Genealogy>
CC(O)=N[C@@H]1[C@@H](O)O[C@H](CO)[C@@H](O)[C@@H]1O (tautomer)
C/C(O)=N\[C@@H]1[C@@H](O)O[C@H](CO)[C@@H](O)[C@@H]1O (cis-trans isomerization)
C/C(O)=N\[C@@H]1[C@@H](O)O[C@H](CO)[C@@H](O)[C@@H]1O (3D coordinates assigned)
C/C(O)=N\[C@@H]1[C@@H](O)O[C@H](CO)[C@@H](O)[C@@H]1O (nonaromatic ring conformer: 28.40742921752201 kcal/mol)

>  <Name>
644170

>  <RI>
1.63646e+07

>  <Rbt.Current_Directory>
/home/edward/Documentos/Virtual_Screening/rDock/N-terminal/3

>  <Rbt.Executable>
rbdock ($Id: //depot/dev/client3/rdock/2013.1/src/exe/rbdock.cxx#4 $)

>  <Rbt.Library>
libRbt.so (2013.1, Build901 2013/11/27)

>  <Rbt.Parameter_File>
/home/edward/anaconda3/envs/MD/share/rdock-2013.1-1/data/scripts/dock.prm

>  <Rbt.Receptor>
parameters.prm

>  <SCORE>
-24.767

>  <SCORE.INTER>
-21.4903

>  <SCORE.INTER.CONST>
1

>  <SCORE.INTER.POLAR>
-3.95436

>  <SCORE.INTER.REPUL>
0.01944

>  <SCORE.INTER.ROT>
2

>  <SCORE.INTER.VDW>
-15.5427

>  <SCORE.INTER.norm>
-1.43269

>  <SCORE.INTRA>
-3.17398

>  <SCORE.INTRA.DIHEDRAL>
-7.09536

>  <SCORE.INTRA.DIHEDRAL.0>
8.94847

>  <SCORE.INTRA.POLAR>
-0.00187805

>  <SCORE.INTRA.POLAR.0>
0

>  <SCORE.INTRA.REPUL>
0

>  <SCORE.INTRA.REPUL.0>
0

>  <SCORE.INTRA.VDW>
0.380085

>  <SCORE.INTRA.VDW.0>
-1.51555

>  <SCORE.INTRA.norm>
-0.211599

>  <SCORE.RESTR>
0

>  <SCORE.RESTR.CAVITY>
0

>  <SCORE.RESTR.norm>
0

>  <SCORE.SYSTEM>
-0.102673

>  <SCORE.SYSTEM.CONST>
0

>  <SCORE.SYSTEM.DIHEDRAL>
0.716118

>  <SCORE.SYSTEM.VDW>
-0.460731

>  <SCORE.SYSTEM.norm>
-0.00684484

>  <SCORE.heavy>
15

>  <SCORE.norm>
-1.65113

>  <SMILES>
C/C(O)=N\[C@@H]1[C@@H](O)O[C@H](CO)[C@@H](O)[C@@H]1O

>  <UniqueID>
173

$$$$
449462
  rDOCK(R)          3D
libRbt.so/2013.1/901 2013/11/27
 19 19  0  0  0  0  0  0  0  0999 V2000
   34.2371   -0.4431  -63.9724 N   0  3  0  0  0  0
   34.4300    0.8164  -63.2390 C   0  0  0  0  0  0
   34.9689    0.5461  -61.8098 C   0  0  0  0  0  0
   34.0231   -0.1965  -61.0843 O   0  0  0  0  0  0
   35.1823    1.7661  -61.1208 O   0  0  0  0  0  0
   36.2057    2.5233  -61.7442 C   0  0  0  0  0  0
   36.5517    3.7146  -60.8386 C   0  0  0  0  0  0
   37.1865    3.2810  -59.6647 O   0  0  0  0  0  0
   35.7443    2.9822  -63.1449 C   0  0  0  0  0  0
   34.6140    3.8113  -63.0245 O   0  0  0  0  0  0
   35.4091    1.7449  -63.9965 C   0  0  0  0  0  0
   34.8464    2.1587  -65.2168 O   0  0  0  0  0  0
   35.1612   -0.8365  -64.2618 H   0  0  0  0  0  0
   33.6469   -0.2877  -64.8222 H   0  0  0  0  0  0
   33.7754   -1.1509  -63.3573 H   0  0  0  0  0  0
   34.3990   -0.3533  -60.1787 H   0  0  0  0  0  0
   38.0896    2.9622  -59.9258 H   0  0  0  0  0  0
   34.9051    4.6314  -62.5467 H   0  0  0  0  0  0
   35.0458    1.4541  -65.8873 H   0  0  0  0  0  0
  1  2  1  0  0  0
  1 13  1  0  0  0
  1 14  1  0  0  0
  1 15  1  0  0  0
  2  3  1  0  0  0
  3  4  1  0  0  0
  3  5  1  0  0  0
  4 16  1  0  0  0
  5  6  1  0  0  0
  6  7  1  0  0  0
  6  9  1  0  0  0
  7  8  1  0  0  0
  8 17  1  0  0  0
  9 10  1  0  0  0
  9 11  1  0  0  0
 10 18  1  0  0  0
 11 12  1  0  0  0
 11  2  1  0  0  0
 12 19  1  0  0  0
M  END
>  <CHROM.0>
-177.01155137,63.04275198,62.85294287

>  <CHROM.1>
-74.10441581,179.86460424,68.88448522,70.22492576,65.22012839,-85.41835016
35.26433074,1.87381572,-62.39610651,2.79989441,-1.08403604,-1.03998086

>  <Energy>
24.167721575295623

>  <Genealogy>
[NH3+][C@H]1[C@H](O)O[C@H](CO)[C@H](O)[C@@H]1O (protonated)
[NH3+][C@H]1[C@H](O)O[C@H](CO)[C@H](O)[C@@H]1O (3D coordinates assigned)
[NH3+][C@H]1[C@H](O)O[C@H](CO)[C@H](O)[C@@H]1O (nonaromatic ring conformer: 24.167721575295623 kcal/mol)

>  <Name>
449462

>  <RI>
1.63646e+07

>  <Rbt.Current_Directory>
/home/edward/Documentos/Virtual_Screening/rDock/N-terminal/3

>  <Rbt.Executable>
rbdock ($Id: //depot/dev/client3/rdock/2013.1/src/exe/rbdock.cxx#4 $)

>  <Rbt.Library>
libRbt.so (2013.1, Build901 2013/11/27)

>  <Rbt.Parameter_File>
/home/edward/anaconda3/envs/MD/share/rdock-2013.1-1/data/scripts/dock.prm

>  <Rbt.Receptor>
parameters.prm

>  <SCORE>
-28.1893

>  <SCORE.INTER>
-22.8911

>  <SCORE.INTER.CONST>
1

>  <SCORE.INTER.POLAR>
-4.43488

>  <SCORE.INTER.REPUL>
0

>  <SCORE.INTER.ROT>
1

>  <SCORE.INTER.VDW>
-14.2125

>  <SCORE.INTER.norm>
-1.90759

>  <SCORE.INTRA>
-4.98318

>  <SCORE.INTRA.DIHEDRAL>
-11.2737

>  <SCORE.INTRA.DIHEDRAL.0>
15.4703

>  <SCORE.INTRA.POLAR>
-0.00413767

>  <SCORE.INTRA.POLAR.0>
0

>  <SCORE.INTRA.REPUL>
0

>  <SCORE.INTRA.REPUL.0>
0

>  <SCORE.INTRA.VDW>
0.667748

>  <SCORE.INTRA.VDW.0>
-1.27915

>  <SCORE.INTRA.norm>
-0.415265

>  <SCORE.RESTR>
0

>  <SCORE.RESTR.CAVITY>
0

>  <SCORE.RESTR.norm>
0

>  <SCORE.SYSTEM>
-0.315069

>  <SCORE.SYSTEM.CONST>
0

>  <SCORE.SYSTEM.DIHEDRAL>
0.129665

>  <SCORE.SYSTEM.REPUL>
0.171893

>  <SCORE.SYSTEM.VDW>
-1.23937

>  <SCORE.SYSTEM.norm>
-0.0262557

>  <SCORE.heavy>
12

>  <SCORE.norm>
-2.34911

>  <SMILES>
[NH3+][C@H]1[C@H](O)O[C@H](CO)[C@H](O)[C@@H]1O

>  <UniqueID>
176

$$$$
448882
  rDOCK(R)          3D
libRbt.so/2013.1/901 2013/11/27
 20 20  0  0  0  0  0  0  0  0999 V2000
   35.6900    4.1415  -57.0622 H   0  0  0  0  0  0
   35.1385    4.9889  -57.0019 O   0  0  0  0  0  0
   34.2353    5.3356  -58.0067 C   0  0  0  0  0  0
   34.0826    4.5767  -59.0504 N   0  0  0  0  0  0
   34.8355    3.3427  -59.2943 C   0  0  0  0  0  0
   33.9763    2.3747  -60.1302 C   0  0  0  0  0  0
   32.7652    2.1171  -59.4372 O   0  0  0  0  0  0
   32.0589    1.0463  -60.0266 C   0  0  0  0  0  0
   33.6388    2.9628  -61.3744 O   0  0  0  0  0  0
   34.7698    3.2329  -62.1937 C   0  0  0  0  0  0
   35.2644    1.9802  -62.9571 C   0  0  0  0  0  0
   35.5423    0.9022  -62.1050 O   0  0  0  0  0  0
   36.2287    1.2095  -61.4571 H   0  0  0  0  0  0
   35.8569    4.0927  -61.4872 C   0  0  0  0  0  0
   37.0370    4.1148  -62.2499 O   0  0  0  0  0  0
   36.8134    4.5501  -63.1139 H   0  0  0  0  0  0
   36.1486    3.6460  -60.0397 C   0  0  0  0  0  0
   36.9853    2.5182  -60.0318 O   0  0  0  0  0  0
   37.8878    2.8258  -60.3089 H   0  0  0  0  0  0
   33.4042    6.5698  -57.8668 C   0  0  0  0  0  0
  1  2  1  0  0  0
  2  3  1  0  0  0
  3  4  2  0  0  0
  3 20  1  0  0  0
  4  5  1  0  0  0
  5  6  1  0  0  0
  6  7  1  0  0  0
  6  9  1  0  0  0
  7  8  1  0  0  0
  9 10  1  0  0  0
 10 11  1  0  0  0
 10 14  1  0  0  0
 11 12  1  0  0  0
 12 13  1  0  0  0
 14 15  1  0  0  0
 14 17  1  0  0  0
 15 16  1  0  0  0
 17 18  1  0  0  0
 17  5  1  0  0  0
 18 19  1  0  0  0
M  END
>  <CHROM.0>
-72.55480614,62.62108268,179.50585038

>  <CHROM.1>
-0.18568010,150.94136205,-168.66252580,-55.14363642,-58.10960299,62.69241950
-165.86102749,34.76829205,3.32528443,-60.21538709,-1.85515191,-0.50791518
-2.34025575

>  <Energy>
38.75771050580736

>  <Genealogy>
CO[C@H]1O[C@H](CO)[C@H](O)[C@H](O)[C@H]1N=C(C)O (tautomer)
CO[C@H]1O[C@H](CO)[C@H](O)[C@H](O)[C@H]1/N=C(/C)O (cis-trans isomerization)
CO[C@H]1O[C@H](CO)[C@H](O)[C@H](O)[C@H]1/N=C(/C)O (3D coordinates assigned)
CO[C@H]1O[C@H](CO)[C@H](O)[C@H](O)[C@H]1/N=C(/C)O (nonaromatic ring conformer: 38.75771050580736 kcal/mol)

>  <Name>
448882

>  <RI>
1.63646e+07

>  <Rbt.Current_Directory>
/home/edward/Documentos/Virtual_Screening/rDock/N-terminal/3

>  <Rbt.Executable>
rbdock ($Id: //depot/dev/client3/rdock/2013.1/src/exe/rbdock.cxx#4 $)

>  <Rbt.Library>
libRbt.so (2013.1, Build901 2013/11/27)

>  <Rbt.Parameter_File>
/home/edward/anaconda3/envs/MD/share/rdock-2013.1-1/data/scripts/dock.prm

>  <Rbt.Receptor>
parameters.prm

>  <SCORE>
-19.1175

>  <SCORE.INTER>
-10.3369

>  <SCORE.INTER.CONST>
1

>  <SCORE.INTER.POLAR>
-1.70304

>  <SCORE.INTER.REPUL>
0.315593

>  <SCORE.INTER.ROT>
3

>  <SCORE.INTER.VDW>
-14.5245

>  <SCORE.INTER.norm>
-0.646057

>  <SCORE.INTRA>
-9.5256

>  <SCORE.INTRA.DIHEDRAL>
-12.977

>  <SCORE.INTRA.DIHEDRAL.0>
16.5158

>  <SCORE.INTRA.POLAR>
-1

>  <SCORE.INTRA.POLAR.0>
0

>  <SCORE.INTRA.REPUL>
0

>  <SCORE.INTRA.REPUL.0>
0

>  <SCORE.INTRA.VDW>
0.362907

>  <SCORE.INTRA.VDW.0>
-2.08049

>  <SCORE.INTRA.norm>
-0.59535

>  <SCORE.RESTR>
0

>  <SCORE.RESTR.CAVITY>
0

>  <SCORE.RESTR.norm>
0

>  <SCORE.SYSTEM>
0.744982

>  <SCORE.SYSTEM.CONST>
0

>  <SCORE.SYSTEM.DIHEDRAL>
0.785283

>  <SCORE.SYSTEM.REPUL>
0.140108

>  <SCORE.SYSTEM.VDW>
-0.348201

>  <SCORE.SYSTEM.norm>
0.0465614

>  <SCORE.heavy>
16

>  <SCORE.norm>
-1.19485

>  <SMILES>
CO[C@H]1O[C@H](CO)[C@H](O)[C@H](O)[C@H]1/N=C(/C)O

>  <UniqueID>
180

$$$$
447448
  rDOCK(R)          3D
libRbt.so/2013.1/901 2013/11/27
 23 23  0  0  0  0  0  0  0  0999 V2000
   31.5943    1.0082  -63.5470 H   0  0  0  0  0  0
   31.4279    0.0647  -63.8702 O   0  0  0  0  0  0
   32.4074   -0.9326  -63.9111 C   0  0  0  0  0  0
   32.1321   -2.1713  -64.3593 C   0  0  0  0  0  0
   30.7778   -2.6257  -64.8295 C   0  0  0  0  0  0
   30.8061   -3.0227  -66.3036 C   0  0  0  0  0  0
   33.7461   -0.6322  -63.4701 N   0  0  0  0  0  0
   34.4697   -1.3858  -63.5241 H   0  0  0  0  0  0
   34.1913    0.6631  -62.9357 C   0  0  0  0  0  0
   34.7310    0.5407  -61.4976 C   0  0  0  0  0  0
   33.7308   -0.0086  -60.6834 O   0  0  0  0  0  0
   34.1411   -0.1491  -59.7905 H   0  0  0  0  0  0
   35.0700    1.8251  -61.0033 O   0  0  0  0  0  0
   36.1537    2.3753  -61.7363 C   0  0  0  0  0  0
   36.5849    3.6738  -61.0333 C   0  0  0  0  0  0
   37.2647    3.4049  -59.8363 O   0  0  0  0  0  0
   38.1303    2.9890  -60.0878 H   0  0  0  0  0  0
   35.7310    2.6402  -63.2045 C   0  0  0  0  0  0
   36.8258    3.1343  -63.9336 O   0  0  0  0  0  0
   36.9140    4.0969  -63.7076 H   0  0  0  0  0  0
   35.2331    1.3314  -63.8501 C   0  0  0  0  0  0
   34.6444    1.6023  -65.0967 O   0  0  0  0  0  0
   35.3386    2.0373  -65.6574 H   0  0  0  0  0  0
  1  2  1  0  0  0
  2  3  1  0  0  0
  3  4  2  0  0  0
  3  7  1  0  0  0
  4  5  1  0  0  0
  5  6  1  0  0  0
  7  8  1  0  0  0
  7  9  1  0  0  0
  9 10  1  0  0  0
 10 11  1  0  0  0
 10 13  1  0  0  0
 11 12  1  0  0  0
 13 14  1  0  0  0
 14 15  1  0  0  0
 14 18  1  0  0  0
 15 16  1  0  0  0
 16 17  1  0  0  0
 18 19  1  0  0  0
 18 21  1  0  0  0
 19 20  1  0  0  0
 21 22  1  0  0  0
 21  9  1  0  0  0
 22 23  1  0  0  0
M  END
>  <CHROM.0>
74.39721003,-58.54451312,-175.58338927

>  <CHROM.1>
-179.57533419,117.20809205,119.94290289,174.90284499,73.21461435,68.33820853
-78.90881580,179.58640896,34.24364033,0.75525057,-63.00371924,2.73978099
-0.79975495,-1.49622711

>  <Energy>
29.04350471544054

>  <Genealogy>
CCC=C(O)N[C@H]1[C@H](O)O[C@H](CO)[C@@H](O)[C@@H]1O (tautomer)
CC/C=C(/O)N[C@H]1[C@H](O)O[C@H](CO)[C@@H](O)[C@@H]1O (cis-trans isomerization)
CC/C=C(/O)N[C@H]1[C@H](O)O[C@H](CO)[C@@H](O)[C@@H]1O (3D coordinates assigned)
CC/C=C(/O)N[C@H]1[C@H](O)O[C@H](CO)[C@@H](O)[C@@H]1O (nonaromatic ring conformer: 29.04350471544054 kcal/mol)

>  <Name>
447448

>  <RI>
1.63646e+07

>  <Rbt.Current_Directory>
/home/edward/Documentos/Virtual_Screening/rDock/N-terminal/3

>  <Rbt.Executable>
rbdock ($Id: //depot/dev/client3/rdock/2013.1/src/exe/rbdock.cxx#4 $)

>  <Rbt.Library>
libRbt.so (2013.1, Build901 2013/11/27)

>  <Rbt.Parameter_File>
/home/edward/anaconda3/envs/MD/share/rdock-2013.1-1/data/scripts/dock.prm

>  <Rbt.Receptor>
parameters.prm

>  <SCORE>
-31.1216

>  <SCORE.INTER>
-28.0947

>  <SCORE.INTER.CONST>
1

>  <SCORE.INTER.POLAR>
-5.86229

>  <SCORE.INTER.REPUL>
0

>  <SCORE.INTER.ROT>
3

>  <SCORE.INTER.VDW>
-16.5629

>  <SCORE.INTER.norm>
-1.65263

>  <SCORE.INTRA>
-3.12159

>  <SCORE.INTRA.DIHEDRAL>
-6.4378

>  <SCORE.INTRA.DIHEDRAL.0>
11.5526

>  <SCORE.INTRA.POLAR>
0

>  <SCORE.INTRA.POLAR.0>
0

>  <SCORE.INTRA.REPUL>
0

>  <SCORE.INTRA.REPUL.0>
0

>  <SCORE.INTRA.VDW>
0.0973043

>  <SCORE.INTRA.VDW.0>
-1.95945

>  <SCORE.INTRA.norm>
-0.183623

>  <SCORE.RESTR>
0

>  <SCORE.RESTR.CAVITY>
0

>  <SCORE.RESTR.norm>
0

>  <SCORE.SYSTEM>
0.0946719

>  <SCORE.SYSTEM.CONST>
0

>  <SCORE.SYSTEM.DIHEDRAL>
1.08163

>  <SCORE.SYSTEM.POLAR>
-0.0120338

>  <SCORE.SYSTEM.REPUL>
0.0123742

>  <SCORE.SYSTEM.VDW>
-0.467101

>  <SCORE.SYSTEM.norm>
0.00556894

>  <SCORE.heavy>
17

>  <SCORE.norm>
-1.83068

>  <SMILES>
CC/C=C(/O)N[C@H]1[C@H](O)O[C@H](CO)[C@@H](O)[C@@H]1O

>  <UniqueID>
182

$$$$
446101
  rDOCK(R)          3D
libRbt.so/2013.1/901 2013/11/27
 23 23  0  0  0  0  0  0  0  0999 V2000
   32.9412   -2.7404  -60.5409 H   0  0  0  0  0  0
   31.9461   -2.6371  -60.6994 O   0  0  0  0  0  0
   31.4002   -1.4140  -61.0883 C   0  0  0  0  0  0
   32.1640   -0.3831  -61.2947 N   0  0  0  0  0  0
   33.6253   -0.3964  -61.1815 C   0  0  0  0  0  0
   34.2703   -0.4377  -62.5853 C   0  0  0  0  0  0
   35.6520   -0.6817  -62.5115 O   0  0  0  0  0  0
   35.9920   -0.7071  -63.4439 H   0  0  0  0  0  0
   34.0032    0.7374  -63.3375 O   0  0  0  0  0  0
   34.4356    1.9414  -62.7117 C   0  0  0  0  0  0
   35.9578    2.1601  -62.8579 C   0  0  0  0  0  0
   36.2340    2.8425  -64.0509 O   0  0  0  0  0  0
   35.9266    3.7762  -63.9135 H   0  0  0  0  0  0
   33.8766    2.1131  -61.2704 C   0  0  0  0  0  0
   34.4888    3.2139  -60.6226 O   0  0  0  0  0  0
   33.5440    3.7287  -59.3111 S   0  0  0  0  0  0
   32.6606    4.8565  -59.7626 O   0  0  0  0  0  0
   34.4340    4.2165  -58.2024 O   0  0  0  0  0  0
   32.5777    2.4734  -58.7497 O   0  5  0  0  0  0
   34.0852    0.8530  -60.4152 C   0  0  0  0  0  0
   35.4337    0.7326  -60.0382 O   0  0  0  0  0  0
   35.9376    0.4624  -60.8499 H   0  0  0  0  0  0
   29.9192   -1.2723  -61.2315 C   0  0  0  0  0  0
  1  2  1  0  0  0
  2  3  1  0  0  0
  3  4  2  0  0  0
  3 23  1  0  0  0
  4  5  1  0  0  0
  5  6  1  0  0  0
  6  7  1  0  0  0
  6  9  1  0  0  0
  7  8  1  0  0  0
  9 10  1  0  0  0
 10 11  1  0  0  0
 10 14  1  0  0  0
 11 12  1  0  0  0
 12 13  1  0  0  0
 14 15  1  0  0  0
 14 20  1  0  0  0
 15 16  1  0  0  0
 16 17  2  0  0  0
 16 18  2  0  0  0
 16 19  1  0  0  0
 20 21  1  0  0  0
 20  5  1  0  0  0
 21 22  1  0  0  0
M  END
>  <CHROM.0>
-173.69281670,-177.79724525,65.98163264

>  <CHROM.1>
2.00387373,102.87036392,179.20496473,87.87603208,71.84307811,160.57252795
-95.12483666,49.67847833,33.75381350,1.37962573,-61.03383635,1.92834794,-0.70164917
-2.56229501

>  <Energy>
37.57815049623207

>  <Genealogy>
CC(=O)N[C@H]1[C@H](O)O[C@H](CO)[C@H](OS(=O)(=O)[O-])[C@@H]1O (protonated)
CC(O)=N[C@H]1[C@H](O)O[C@H](CO)[C@H](OS(=O)(=O)[O-])[C@@H]1O (tautomer)
C/C(O)=N/[C@H]1[C@H](O)O[C@H](CO)[C@H](OS(=O)(=O)[O-])[C@@H]1O (cis-trans isomerization)
C/C(O)=N/[C@H]1[C@H](O)O[C@H](CO)[C@H](OS(=O)(=O)[O-])[C@@H]1O (3D coordinates assigned)
C/C(O)=N/[C@H]1[C@H](O)O[C@H](CO)[C@H](OS(=O)(=O)[O-])[C@@H]1O (nonaromatic ring conformer: 37.57815049623207 kcal/mol)

>  <Name>
446101

>  <RI>
1.63646e+07

>  <Rbt.Current_Directory>
/home/edward/Documentos/Virtual_Screening/rDock/N-terminal/3

>  <Rbt.Executable>
rbdock ($Id: //depot/dev/client3/rdock/2013.1/src/exe/rbdock.cxx#4 $)

>  <Rbt.Library>
libRbt.so (2013.1, Build901 2013/11/27)

>  <Rbt.Parameter_File>
/home/edward/anaconda3/envs/MD/share/rdock-2013.1-1/data/scripts/dock.prm

>  <Rbt.Receptor>
parameters.prm

>  <SCORE>
-19.8351

>  <SCORE.INTER>
-15.6294

>  <SCORE.INTER.CONST>
1

>  <SCORE.INTER.POLAR>
-4.82452

>  <SCORE.INTER.REPUL>
0.157968

>  <SCORE.INTER.ROT>
4

>  <SCORE.INTER.VDW>
-9.41584

>  <SCORE.INTER.norm>
-0.822599

>  <SCORE.INTRA>
-3.73659

>  <SCORE.INTRA.DIHEDRAL>
-4.75604

>  <SCORE.INTRA.DIHEDRAL.0>
11.3994

>  <SCORE.INTRA.POLAR>
-0.769052

>  <SCORE.INTRA.POLAR.0>
0

>  <SCORE.INTRA.REPUL>
0

>  <SCORE.INTRA.REPUL.0>
0

>  <SCORE.INTRA.VDW>
1.25621

>  <SCORE.INTRA.VDW.0>
-2.8491

>  <SCORE.INTRA.norm>
-0.196663

>  <SCORE.RESTR>
0

>  <SCORE.RESTR.CAVITY>
0

>  <SCORE.RESTR.norm>
0

>  <SCORE.SYSTEM>
-0.469111

>  <SCORE.SYSTEM.CONST>
0

>  <SCORE.SYSTEM.DIHEDRAL>
0.393578

>  <SCORE.SYSTEM.REPUL>
0.0773197

>  <SCORE.SYSTEM.VDW>
-1.0525

>  <SCORE.SYSTEM.norm>
-0.02469

>  <SCORE.heavy>
19

>  <SCORE.norm>
-1.04395

>  <SMILES>
C/C(O)=N/[C@H]1[C@H](O)O[C@H](CO)[C@H](OS(=O)(=O)[O-])[C@@H]1O

>  <UniqueID>
186

$$$$
445621
  rDOCK(R)          3D
libRbt.so/2013.1/901 2013/11/27
 19 19  0  0  0  0  0  0  0  0999 V2000
   34.0792   -0.7977  -63.4738 N   0  3  0  0  0  0
   34.3821    0.5238  -62.9066 C   0  0  0  0  0  0
   34.9603    0.4025  -61.4765 C   0  0  0  0  0  0
   36.1065   -0.4161  -61.4442 O   0  0  0  0  0  0
   35.2478    1.6827  -60.9382 O   0  0  0  0  0  0
   36.2408    2.3637  -61.6917 C   0  0  0  0  0  0
   36.5641    3.6768  -60.9577 C   0  0  0  0  0  0
   37.2944    3.4401  -59.7839 O   0  0  0  0  0  0
   35.7452    2.6329  -63.1336 C   0  0  0  0  0  0
   36.7631    3.2534  -63.8779 O   0  0  0  0  0  0
   35.3548    1.3056  -63.8094 C   0  0  0  0  0  0
   34.7363    1.5639  -65.0444 O   0  0  0  0  0  0
   34.9380   -1.2372  -63.8777 H   0  0  0  0  0  0
   33.3613   -0.7026  -64.2283 H   0  0  0  0  0  0
   33.6881   -1.4227  -62.7319 H   0  0  0  0  0  0
   36.4010   -0.4726  -60.4978 H   0  0  0  0  0  0
   38.1561    3.0328  -60.0618 H   0  0  0  0  0  0
   36.7705    4.2113  -63.6171 H   0  0  0  0  0  0
   35.3914    2.0635  -65.5983 H   0  0  0  0  0  0
  1  2  1  0  0  0
  1 13  1  0  0  0
  1 14  1  0  0  0
  1 15  1  0  0  0
  2  3  1  0  0  0
  3  4  1  0  0  0
  3  5  1  0  0  0
  4 16  1  0  0  0
  5  6  1  0  0  0
  6  7  1  0  0  0
  6  9  1  0  0  0
  7  8  1  0  0  0
  8 17  1  0  0  0
  9 10  1  0  0  0
  9 11  1  0  0  0
 10 18  1  0  0  0
 11 12  1  0  0  0
 11  2  1  0  0  0
 12 19  1  0  0  0
M  END
>  <CHROM.0>
-176.07180118,-59.87730354,61.50442960

>  <CHROM.1>
-82.55109616,-178.08245856,72.19626189,62.93111019,-78.58611351,-179.77773522
35.64967672,1.62284672,-62.38512883,2.88274894,-1.06067736,-1.09050054

>  <Energy>
25.097850262152768

>  <Genealogy>
[NH3+][C@H]1[C@@H](O)O[C@H](CO)[C@@H](O)[C@@H]1O (protonated)
[NH3+][C@H]1[C@@H](O)O[C@H](CO)[C@@H](O)[C@@H]1O (3D coordinates assigned)
[NH3+][C@H]1[C@@H](O)O[C@H](CO)[C@@H](O)[C@@H]1O (nonaromatic ring conformer: 25.097850262152768 kcal/mol)

>  <Name>
445621

>  <RI>
1.63646e+07

>  <Rbt.Current_Directory>
/home/edward/Documentos/Virtual_Screening/rDock/N-terminal/3

>  <Rbt.Executable>
rbdock ($Id: //depot/dev/client3/rdock/2013.1/src/exe/rbdock.cxx#4 $)

>  <Rbt.Library>
libRbt.so (2013.1, Build901 2013/11/27)

>  <Rbt.Parameter_File>
/home/edward/anaconda3/envs/MD/share/rdock-2013.1-1/data/scripts/dock.prm

>  <Rbt.Receptor>
parameters.prm

>  <SCORE>
-29.7016

>  <SCORE.INTER>
-25.702

>  <SCORE.INTER.CONST>
1

>  <SCORE.INTER.POLAR>
-5.40076

>  <SCORE.INTER.REPUL>
0.250241

>  <SCORE.INTER.ROT>
1

>  <SCORE.INTER.VDW>
-14.9906

>  <SCORE.INTER.norm>
-2.14183

>  <SCORE.INTRA>
-2.87476

>  <SCORE.INTRA.DIHEDRAL>
-6.64073

>  <SCORE.INTRA.DIHEDRAL.0>
9.95343

>  <SCORE.INTRA.POLAR>
0

>  <SCORE.INTRA.POLAR.0>
0

>  <SCORE.INTRA.REPUL>
0

>  <SCORE.INTRA.REPUL.0>
0

>  <SCORE.INTRA.VDW>
0.445601

>  <SCORE.INTRA.VDW.0>
-1.10333

>  <SCORE.INTRA.norm>
-0.239564

>  <SCORE.RESTR>
0

>  <SCORE.RESTR.CAVITY>
0

>  <SCORE.RESTR.norm>
0

>  <SCORE.SYSTEM>
-1.12484

>  <SCORE.SYSTEM.CONST>
0

>  <SCORE.SYSTEM.DIHEDRAL>
0.0871171

>  <SCORE.SYSTEM.REPUL>
0.0291708

>  <SCORE.SYSTEM.VDW>
-1.31425

>  <SCORE.SYSTEM.norm>
-0.0937364

>  <SCORE.heavy>
12

>  <SCORE.norm>
-2.47513

>  <SMILES>
[NH3+][C@H]1[C@@H](O)O[C@H](CO)[C@@H](O)[C@@H]1O

>  <UniqueID>
188

$$$$
441477
  rDOCK(R)          3D
libRbt.so/2013.1/901 2013/11/27
 18 18  0  0  0  0  0  0  0  0999 V2000
   33.9476   -0.8837  -63.7096 N   0  0  0  0  0  0
   34.1907    0.4544  -63.1625 C   0  0  0  0  0  0
   34.7669    0.3470  -61.7299 C   0  0  0  0  0  0
   33.8542   -0.3044  -60.8853 O   0  0  0  0  0  0
   35.0486    1.6328  -61.2018 O   0  0  0  0  0  0
   36.0762    2.2645  -61.9453 C   0  0  0  0  0  0
   36.4775    3.5627  -61.2255 C   0  0  0  0  0  0
   37.1651    3.2918  -60.0326 O   0  0  0  0  0  0
   35.6047    2.5408  -63.3913 C   0  0  0  0  0  0
   36.6508    3.1292  -64.1226 O   0  0  0  0  0  0
   35.1833    1.2189  -64.0609 C   0  0  0  0  0  0
   34.5776    1.4869  -65.3003 O   0  0  0  0  0  0
   34.8580   -1.2802  -64.0381 H   0  0  0  0  0  0
   33.3588   -0.7903  -64.5688 H   0  0  0  0  0  0
   34.2507   -0.3106  -59.9747 H   0  0  0  0  0  0
   38.0283    2.8737  -60.2882 H   0  0  0  0  0  0
   36.7332    4.0669  -63.8070 H   0  0  0  0  0  0
   35.2636    1.9229  -65.8703 H   0  0  0  0  0  0
  1  2  1  0  0  0
  1 13  1  0  0  0
  1 14  1  0  0  0
  2  3  1  0  0  0
  3  4  1  0  0  0
  3  5  1  0  0  0
  4 15  1  0  0  0
  5  6  1  0  0  0
  6  7  1  0  0  0
  6  9  1  0  0  0
  7  8  1  0  0  0
  8 16  1  0  0  0
  9 10  1  0  0  0
  9 11  1  0  0  0
 10 17  1  0  0  0
 11 12  1  0  0  0
 11  2  1  0  0  0
 12 18  1  0  0  0
M  END
>  <CHROM.0>
-176.36929884,60.30618520,62.85505784

>  <CHROM.1>
-79.03576505,-177.45155378,70.62512740,66.63689697,-73.80285615,-176.25594832
35.31219104,1.56700550,-62.55931212,2.66553891,-0.93437917,-1.44487209

>  <Energy>
21.735096729997046

>  <Genealogy>
N[C@H]1[C@H](O)O[C@H](CO)[C@@H](O)[C@@H]1O (3D coordinates assigned)
N[C@H]1[C@H](O)O[C@H](CO)[C@@H](O)[C@@H]1O (nonaromatic ring conformer: 21.735096729997046 kcal/mol)

>  <Name>
441477

>  <RI>
1.63646e+07

>  <Rbt.Current_Directory>
/home/edward/Documentos/Virtual_Screening/rDock/N-terminal/3

>  <Rbt.Executable>
rbdock ($Id: //depot/dev/client3/rdock/2013.1/src/exe/rbdock.cxx#4 $)

>  <Rbt.Library>
libRbt.so (2013.1, Build901 2013/11/27)

>  <Rbt.Parameter_File>
/home/edward/anaconda3/envs/MD/share/rdock-2013.1-1/data/scripts/dock.prm

>  <Rbt.Receptor>
parameters.prm

>  <SCORE>
-29.6937

>  <SCORE.INTER>
-27.1457

>  <SCORE.INTER.CONST>
1

>  <SCORE.INTER.POLAR>
-6.1998

>  <SCORE.INTER.REPUL>
0

>  <SCORE.INTER.ROT>
2

>  <SCORE.INTER.VDW>
-13.4664

>  <SCORE.INTER.norm>
-2.26214

>  <SCORE.INTRA>
-2.25088

>  <SCORE.INTRA.DIHEDRAL>
-5.44148

>  <SCORE.INTRA.DIHEDRAL.0>
7.48606

>  <SCORE.INTRA.POLAR>
0

>  <SCORE.INTRA.POLAR.0>
0

>  <SCORE.INTRA.REPUL>
0

>  <SCORE.INTRA.REPUL.0>
0

>  <SCORE.INTRA.VDW>
0.469859

>  <SCORE.INTRA.VDW.0>
-0.909085

>  <SCORE.INTRA.norm>
-0.187573

>  <SCORE.RESTR>
0

>  <SCORE.RESTR.CAVITY>
0

>  <SCORE.RESTR.norm>
0

>  <SCORE.SYSTEM>
-0.297188

>  <SCORE.SYSTEM.CONST>
0

>  <SCORE.SYSTEM.DIHEDRAL>
0.105468

>  <SCORE.SYSTEM.REPUL>
0.170109

>  <SCORE.SYSTEM.VDW>
-1.20046

>  <SCORE.SYSTEM.norm>
-0.0247657

>  <SCORE.heavy>
12

>  <SCORE.norm>
-2.47448

>  <SMILES>
N[C@H]1[C@H](O)O[C@H](CO)[C@@H](O)[C@@H]1O

>  <UniqueID>
190

$$$$
441038
  rDOCK(R)          3D
libRbt.so/2013.1/901 2013/11/27
 23 23  0  0  0  0  0  0  0  0999 V2000
   32.5751    4.2544  -58.6595 C   0  0  0  0  0  0
   33.7134    3.3725  -59.1804 C   0  0  0  0  0  0
   33.7201    3.3601  -60.5989 O   0  0  0  0  0  0
   34.3137    2.1828  -61.1300 C   0  0  0  0  0  0
   33.2292    1.0971  -61.2322 C   0  0  0  0  0  0
   32.8397    0.7166  -59.9363 O   0  0  0  0  0  0
   33.7843   -0.1245  -62.0034 C   0  0  0  0  0  0
   32.7295   -1.2289  -62.1539 C   0  0  0  0  0  0
   32.4267   -1.7908  -60.9060 O   0  0  0  0  0  0
   34.2115    0.2656  -63.2967 O   0  0  0  0  0  0
   35.3128    1.1538  -63.2139 C   0  0  0  0  0  0
   35.7658    1.4235  -64.5131 O   0  0  0  0  0  0
   34.8872    2.4787  -62.5372 C   0  0  0  0  0  0
   36.0216    3.4100  -62.4558 N   0  3  0  0  0  0
   35.0242    3.9256  -58.7077 C   0  0  0  0  0  0
   35.1698    4.2730  -57.5060 O   0  0  0  0  0  0
   36.0744    4.0946  -59.6022 O   0  5  0  0  0  0
   33.6459    0.3602  -59.4799 H   0  0  0  0  0  0
   33.1954   -2.3734  -60.6728 H   0  0  0  0  0  0
   34.9949    1.8103  -65.0047 H   0  0  0  0  0  0
   35.9813    3.9522  -61.5629 H   0  0  0  0  0  0
   36.0097    4.0769  -63.2617 H   0  0  0  0  0  0
   36.9213    2.8780  -62.4571 H   0  0  0  0  0  0
  1  2  1  0  0  0
  2  3  1  0  0  0
  2 15  1  0  0  0
  3  4  1  0  0  0
  4  5  1  0  0  0
  5  6  1  0  0  0
  5  7  1  0  0  0
  6 18  1  0  0  0
  7  8  1  0  0  0
  7 10  1  0  0  0
  8  9  1  0  0  0
  9 19  1  0  0  0
 10 11  1  0  0  0
 11 12  1  0  0  0
 11 13  1  0  0  0
 12 20  1  0  0  0
 13 14  1  0  0  0
 13  4  1  0  0  0
 14 21  1  0  0  0
 14 22  1  0  0  0
 14 23  1  0  0  0
 15 16  2  0  0  0
 15 17  1  0  0  0
M  END
>  <CHROM.0>
-176.63301501,-58.58391627,-59.06318935

>  <CHROM.1>
-154.43307648,46.24807395,86.64491526,-60.40922479,-67.41214732,-75.20713726
58.29778102,-21.59356367,34.23744527,1.91922724,-61.05181844,1.37591948,0.84481500
0.87926582

>  <Energy>
30.82994267703536

>  <Genealogy>
C[C@@H](O[C@H]1[C@H](O)[C@@H](CO)OC(O)[C@@H]1[NH3+])C(=O)[O-] (protonated)
C[C@@H](O[C@H]1[C@H](O)[C@@H](CO)O[C@@H](O)[C@@H]1[NH3+])C(=O)[O-] (chirality)
C[C@@H](O[C@H]1[C@H](O)[C@@H](CO)O[C@@H](O)[C@@H]1[NH3+])C(=O)[O-] (3D coordinates assigned)
C[C@@H](O[C@H]1[C@H](O)[C@@H](CO)O[C@@H](O)[C@@H]1[NH3+])C(=O)[O-] (nonaromatic ring conformer: 30.82994267703536 kcal/mol)

>  <Name>
441038

>  <RI>
1.63646e+07

>  <Rbt.Current_Directory>
/home/edward/Documentos/Virtual_Screening/rDock/N-terminal/3

>  <Rbt.Executable>
rbdock ($Id: //depot/dev/client3/rdock/2013.1/src/exe/rbdock.cxx#4 $)

>  <Rbt.Library>
libRbt.so (2013.1, Build901 2013/11/27)

>  <Rbt.Parameter_File>
/home/edward/anaconda3/envs/MD/share/rdock-2013.1-1/data/scripts/dock.prm

>  <Rbt.Receptor>
parameters.prm

>  <SCORE>
-26.1047

>  <SCORE.INTER>
-19.2988

>  <SCORE.INTER.CONST>
1

>  <SCORE.INTER.POLAR>
-4.59162

>  <SCORE.INTER.REPUL>
0.138267

>  <SCORE.INTER.ROT>
4

>  <SCORE.INTER.VDW>
-13.7787

>  <SCORE.INTER.norm>
-1.13523

>  <SCORE.INTRA>
-5.84434

>  <SCORE.INTRA.DIHEDRAL>
-4.84636

>  <SCORE.INTRA.DIHEDRAL.0>
15.4348

>  <SCORE.INTRA.POLAR>
-1.45833

>  <SCORE.INTRA.POLAR.0>
0

>  <SCORE.INTRA.REPUL>
0

>  <SCORE.INTRA.REPUL.0>
0

>  <SCORE.INTRA.VDW>
1.53717

>  <SCORE.INTRA.VDW.0>
-2.18323

>  <SCORE.INTRA.norm>
-0.343785

>  <SCORE.RESTR>
0

>  <SCORE.RESTR.CAVITY>
0

>  <SCORE.RESTR.norm>
0

>  <SCORE.SYSTEM>
-0.961506

>  <SCORE.SYSTEM.CONST>
0

>  <SCORE.SYSTEM.DIHEDRAL>
0.0700203

>  <SCORE.SYSTEM.REPUL>
0.030734

>  <SCORE.SYSTEM.VDW>
-1.15019

>  <SCORE.SYSTEM.norm>
-0.0565592

>  <SCORE.heavy>
17

>  <SCORE.norm>
-1.53557

>  <SMILES>
C[C@@H](O[C@H]1[C@H](O)[C@@H](CO)O[C@@H](O)[C@@H]1[NH3+])C(=O)[O-]

>  <UniqueID>
194

$$$$
440552
  rDOCK(R)          3D
libRbt.so/2013.1/901 2013/11/27
 20 20  0  0  0  0  0  0  0  0999 V2000
   33.0246   -2.4736  -64.6964 C   0  0  0  0  0  0
   33.1458   -1.2403  -63.8622 C   0  0  0  0  0  0
   32.1869   -0.8951  -63.1199 O   0  0  0  0  0  0
   34.3351   -0.4418  -63.9373 N   0  0  0  0  0  0
   34.4905    0.8241  -63.2132 C   0  0  0  0  0  0
   35.0612    0.5630  -61.8000 C   0  0  0  0  0  0
   34.1451   -0.2008  -61.0601 O   0  0  0  0  0  0
   35.2658    1.7873  -61.1153 O   0  0  0  0  0  0
   36.2585    2.5632  -61.7665 C   0  0  0  0  0  0
   36.6065    3.7695  -60.8878 C   0  0  0  0  0  0
   37.2325    3.3308  -59.7140 O   0  0  0  0  0  0
   35.7619    3.0075  -63.1614 C   0  0  0  0  0  0
   34.6119    3.8098  -63.0419 O   0  0  0  0  0  0
   35.4301    1.7583  -63.9971 C   0  0  0  0  0  0
   34.8226    2.1299  -65.2076 O   0  0  0  0  0  0
   35.0675   -0.7107  -64.6336 H   0  0  0  0  0  0
   34.5258   -0.3139  -60.1500 H   0  0  0  0  0  0
   38.1128    2.9657  -59.9912 H   0  0  0  0  0  0
   34.8786    4.6323  -62.5543 H   0  0  0  0  0  0
   35.0409    1.4201  -65.8667 H   0  0  0  0  0  0
  1  2  1  0  0  0
  2  3  2  0  0  0
  2  4  1  0  0  0
  4  5  1  0  0  0
  4 16  1  0  0  0
  5  6  1  0  0  0
  6  7  1  0  0  0
  6  8  1  0  0  0
  7 17  1  0  0  0
  8  9  1  0  0  0
  9 10  1  0  0  0
  9 12  1  0  0  0
 10 11  1  0  0  0
 11 18  1  0  0  0
 12 13  1  0  0  0
 12 14  1  0  0  0
 13 19  1  0  0  0
 14 15  1  0  0  0
 14  5  1  0  0  0
 15 20  1  0  0  0
M  END
>  <CHROM.0>
-177.04254436,-59.69451201,62.27486025

>  <CHROM.1>
88.35164028,-177.55503748,66.66542631,67.83837313,63.86325092,-86.29991779
34.82911708,1.24550623,-62.67389663,3.05211162,-1.03101564,-1.11801024

>  <Energy>
23.527024054217605

>  <Genealogy>
CC(=O)N[C@H]1[C@H](O)O[C@H](CO)[C@H](O)[C@@H]1O (3D coordinates assigned)
CC(=O)N[C@H]1[C@H](O)O[C@H](CO)[C@H](O)[C@@H]1O (nonaromatic ring conformer: 23.527024054217605 kcal/mol)

>  <Name>
440552

>  <RI>
1.63646e+07

>  <Rbt.Current_Directory>
/home/edward/Documentos/Virtual_Screening/rDock/N-terminal/3

>  <Rbt.Executable>
rbdock ($Id: //depot/dev/client3/rdock/2013.1/src/exe/rbdock.cxx#4 $)

>  <Rbt.Library>
libRbt.so (2013.1, Build901 2013/11/27)

>  <Rbt.Parameter_File>
/home/edward/anaconda3/envs/MD/share/rdock-2013.1-1/data/scripts/dock.prm

>  <Rbt.Receptor>
parameters.prm

>  <SCORE>
-24.6099

>  <SCORE.INTER>
-22.3199

>  <SCORE.INTER.CONST>
1

>  <SCORE.INTER.POLAR>
-4.15577

>  <SCORE.INTER.REPUL>
0

>  <SCORE.INTER.ROT>
2

>  <SCORE.INTER.VDW>
-15.5903

>  <SCORE.INTER.norm>
-1.488

>  <SCORE.INTRA>
-1.16391

>  <SCORE.INTRA.DIHEDRAL>
-3.36

>  <SCORE.INTRA.DIHEDRAL.0>
8.28042

>  <SCORE.INTRA.POLAR>
0

>  <SCORE.INTRA.POLAR.0>
0

>  <SCORE.INTRA.REPUL>
0

>  <SCORE.INTRA.REPUL.0>
0

>  <SCORE.INTRA.VDW>
0.516091

>  <SCORE.INTRA.VDW.0>
-1.84674

>  <SCORE.INTRA.norm>
-0.077594

>  <SCORE.RESTR>
0

>  <SCORE.RESTR.CAVITY>
0

>  <SCORE.RESTR.norm>
0

>  <SCORE.SYSTEM>
-1.12606

>  <SCORE.SYSTEM.CONST>
0

>  <SCORE.SYSTEM.DIHEDRAL>
0.0690442

>  <SCORE.SYSTEM.REPUL>
0.0318706

>  <SCORE.SYSTEM.VDW>
-1.31994

>  <SCORE.SYSTEM.norm>
-0.0750707

>  <SCORE.heavy>
15

>  <SCORE.norm>
-1.64066

>  <SMILES>
CC(=O)N[C@H]1[C@H](O)O[C@H](CO)[C@H](O)[C@@H]1O

>  <UniqueID>
196

$$$$
440271
  rDOCK(R)          3D
libRbt.so/2013.1/901 2013/11/27
 23 23  0  0  0  0  0  0  0  0999 V2000
   31.9564    5.3292  -59.6368 C   0  0  0  0  0  0
   33.2520    4.6084  -59.4490 C   0  0  0  0  0  0
   33.9224    4.6929  -58.2289 O   0  0  0  0  0  0
   33.7546    3.9276  -60.4354 N   0  0  0  0  0  0
   35.0283    3.2047  -60.3795 C   0  0  0  0  0  0
   34.7434    1.6891  -60.3897 C   0  0  0  0  0  0
   35.8949    0.9428  -60.0869 O   0  0  0  0  0  0
   34.1632    1.2528  -61.6115 O   0  0  0  0  0  0
   34.9477    1.5403  -62.7650 C   0  0  0  0  0  0
   36.1181    0.5465  -62.9364 C   0  0  0  0  0  0
   35.6127   -0.7597  -63.0894 O   0  0  0  0  0  0
   36.6766   -1.8451  -62.3391 S   0  0  0  0  0  0
   36.4195   -1.8868  -60.8583 O   0  0  0  0  0  0
   36.5176   -3.2227  -62.9203 O   0  0  0  0  0  0
   38.2511   -1.3241  -62.6021 O   0  5  0  0  0  0
   35.3339    3.0424  -62.8753 C   0  0  0  0  0  0
   36.2324    3.2641  -63.9322 O   0  0  0  0  0  0
   35.9234    3.5960  -61.5703 C   0  0  0  0  0  0
   37.2315    3.1194  -61.3819 O   0  0  0  0  0  0
   33.5013    5.1519  -57.4302 H   0  0  0  0  0  0
   35.6560   -0.0152  -60.1916 H   0  0  0  0  0  0
   36.4426    4.2346  -63.9309 H   0  0  0  0  0  0
   37.5743    3.5404  -60.5506 H   0  0  0  0  0  0
  1  2  1  0  0  0
  2  3  1  0  0  0
  2  4  2  0  0  0
  3 20  1  0  0  0
  4  5  1  0  0  0
  5  6  1  0  0  0
  6  7  1  0  0  0
  6  8  1  0  0  0
  7 21  1  0  0  0
  8  9  1  0  0  0
  9 10  1  0  0  0
  9 16  1  0  0  0
 10 11  1  0  0  0
 11 12  1  0  0  0
 12 13  2  0  0  0
 12 14  2  0  0  0
 12 15  1  0  0  0
 16 17  1  0  0  0
 16 18  1  0  0  0
 17 22  1  0  0  0
 18 19  1  0  0  0
 18  5  1  0  0  0
 19 23  1  0  0  0
M  END
>  <CHROM.0>
74.83339658,-60.93486784,-62.82399446

>  <CHROM.1>
6.68767971,109.86413975,-175.04926806,60.92354626,-144.97493729,81.53172882
-179.10569012,-60.52915366,35.49647635,1.39697966,-61.50397168,2.41616077
0.99847389,-0.36139315

>  <Energy>
36.02117286945129

>  <Genealogy>
CC(=O)N[C@H]1[C@H](O)O[C@H](COS(=O)(=O)[O-])[C@H](O)[C@@H]1O (protonated)
CC(O)=N[C@H]1[C@H](O)O[C@H](COS(=O)(=O)[O-])[C@H](O)[C@@H]1O (tautomer)
CC(O)=N[C@H]1[C@H](O)O[C@H](COS(=O)(=O)[O-])[C@H](O)[C@@H]1O (3D coordinates assigned)
CC(O)=N[C@H]1[C@H](O)O[C@H](COS(=O)(=O)[O-])[C@H](O)[C@@H]1O (nonaromatic ring conformer: 36.02117286945129 kcal/mol)

>  <Name>
440271

>  <RI>
1.63646e+07

>  <Rbt.Current_Directory>
/home/edward/Documentos/Virtual_Screening/rDock/N-terminal/3

>  <Rbt.Executable>
rbdock ($Id: //depot/dev/client3/rdock/2013.1/src/exe/rbdock.cxx#4 $)

>  <Rbt.Library>
libRbt.so (2013.1, Build901 2013/11/27)

>  <Rbt.Parameter_File>
/home/edward/anaconda3/envs/MD/share/rdock-2013.1-1/data/scripts/dock.prm

>  <Rbt.Receptor>
parameters.prm

>  <SCORE>
-20.3319

>  <SCORE.INTER>
-17.6602

>  <SCORE.INTER.CONST>
1

>  <SCORE.INTER.POLAR>
-2.35675

>  <SCORE.INTER.REPUL>
0.0726574

>  <SCORE.INTER.ROT>
4

>  <SCORE.INTER.VDW>
-19.4105

>  <SCORE.INTER.norm>
-0.929483

>  <SCORE.INTRA>
-2.75923

>  <SCORE.INTRA.DIHEDRAL>
-0.300553

>  <SCORE.INTRA.DIHEDRAL.0>
6.27548

>  <SCORE.INTRA.POLAR>
-0.751858

>  <SCORE.INTRA.POLAR.0>
0

>  <SCORE.INTRA.REPUL>
0

>  <SCORE.INTRA.REPUL.0>
0

>  <SCORE.INTRA.VDW>
-0.0526349

>  <SCORE.INTRA.VDW.0>
-1.93217

>  <SCORE.INTRA.norm>
-0.145223

>  <SCORE.RESTR>
0

>  <SCORE.RESTR.CAVITY>
0

>  <SCORE.RESTR.norm>
0

>  <SCORE.SYSTEM>
0.087534

>  <SCORE.SYSTEM.CONST>
0

>  <SCORE.SYSTEM.DIHEDRAL>
1.0759

>  <SCORE.SYSTEM.POLAR>
-0.0107585

>  <SCORE.SYSTEM.REPUL>
0.0136338

>  <SCORE.SYSTEM.VDW>
-0.482007

>  <SCORE.SYSTEM.norm>
0.00460705

>  <SCORE.heavy>
19

>  <SCORE.norm>
-1.0701

>  <SMILES>
CC(O)=N[C@H]1[C@H](O)O[C@H](COS(=O)(=O)[O-])[C@H](O)[C@@H]1O

>  <UniqueID>
201

$$$$
440235
  rDOCK(R)          3D
libRbt.so/2013.1/901 2013/11/27
 23 23  0  0  0  0  0  0  0  0999 V2000
   36.8485    3.3910  -58.8874 H   0  0  0  0  0  0
   36.3121    3.0802  -59.6886 O   0  0  0  0  0  0
   35.3311    3.8907  -60.2594 C   0  0  0  0  0  0
   34.6541    3.4867  -61.2925 N   0  0  0  0  0  0
   34.8029    2.1752  -61.9286 C   0  0  0  0  0  0
   33.5830    1.2806  -61.6060 C   0  0  0  0  0  0
   33.4916    1.0578  -60.2235 O   0  0  0  0  0  0
   34.2040    0.4087  -59.9842 H   0  0  0  0  0  0
   33.6862    0.0322  -62.2713 O   0  0  0  0  0  0
   33.6282    0.2066  -63.6772 C   0  0  0  0  0  0
   33.5746   -1.1784  -64.3331 C   0  0  0  0  0  0
   32.4337   -1.8637  -63.8743 O   0  0  0  0  0  0
   32.3199   -3.3321  -64.7109 S   0  0  0  0  0  0
   31.8493   -3.0568  -66.1106 O   0  0  0  0  0  0
   31.3307   -4.2379  -64.0319 O   0  0  0  0  0  0
   33.8209   -4.0859  -64.7824 O   0  5  0  0  0  0
   34.8594    1.0062  -64.1660 C   0  0  0  0  0  0
   34.7799    1.2258  -65.5525 O   0  0  0  0  0  0
   35.4416    1.9311  -65.7763 H   0  0  0  0  0  0
   34.9088    2.3652  -63.4525 C   0  0  0  0  0  0
   36.1151    3.0093  -63.7749 O   0  0  0  0  0  0
   36.0143    3.9613  -63.5115 H   0  0  0  0  0  0
   35.0833    5.2573  -59.7072 C   0  0  0  0  0  0
  1  2  1  0  0  0
  2  3  1  0  0  0
  3  4  2  0  0  0
  3 23  1  0  0  0
  4  5  1  0  0  0
  5  6  1  0  0  0
  6  7  1  0  0  0
  6  9  1  0  0  0
  7  8  1  0  0  0
  9 10  1  0  0  0
 10 11  1  0  0  0
 10 17  1  0  0  0
 11 12  1  0  0  0
 12 13  1  0  0  0
 13 14  2  0  0  0
 13 15  2  0  0  0
 13 16  1  0  0  0
 17 18  1  0  0  0
 17 20  1  0  0  0
 18 19  1  0  0  0
 20 21  1  0  0  0
 20  5  1  0  0  0
 21 22  1  0  0  0
M  END
>  <CHROM.0>
72.16281557,-174.54895058,62.92505244

>  <CHROM.1>
179.55141283,107.12862388,-74.44592058,59.63733666,175.10143382,-74.45886015
165.20359708,-73.76869546,33.92168327,0.25036757,-63.04691419,0.84530993
1.02390959,1.17341573

>  <Energy>
27.67741044596507

>  <Genealogy>
CC(=O)N[C@H]1[C@H](O)O[C@H](COS(=O)(=O)[O-])[C@@H](O)[C@@H]1O (protonated)
CC(O)=N[C@H]1[C@H](O)O[C@H](COS(=O)(=O)[O-])[C@@H](O)[C@@H]1O (tautomer)
C/C(O)=N/[C@H]1[C@H](O)O[C@H](COS(=O)(=O)[O-])[C@@H](O)[C@@H]1O (cis-trans isomerization)
C/C(O)=N/[C@H]1[C@H](O)O[C@H](COS(=O)(=O)[O-])[C@@H](O)[C@@H]1O (3D coordinates assigned)
C/C(O)=N/[C@H]1[C@H](O)O[C@H](COS(=O)(=O)[O-])[C@@H](O)[C@@H]1O (nonaromatic ring conformer: 27.67741044596507 kcal/mol)

>  <Name>
440235

>  <RI>
1.63646e+07

>  <Rbt.Current_Directory>
/home/edward/Documentos/Virtual_Screening/rDock/N-terminal/3

>  <Rbt.Executable>
rbdock ($Id: //depot/dev/client3/rdock/2013.1/src/exe/rbdock.cxx#4 $)

>  <Rbt.Library>
libRbt.so (2013.1, Build901 2013/11/27)

>  <Rbt.Parameter_File>
/home/edward/anaconda3/envs/MD/share/rdock-2013.1-1/data/scripts/dock.prm

>  <Rbt.Receptor>
parameters.prm

>  <SCORE>
-21.9408

>  <SCORE.INTER>
-20.407

>  <SCORE.INTER.CONST>
1

>  <SCORE.INTER.POLAR>
-4.84396

>  <SCORE.INTER.REPUL>
0.179428

>  <SCORE.INTER.ROT>
4

>  <SCORE.INTER.VDW>
-14.2347

>  <SCORE.INTER.norm>
-1.07405

>  <SCORE.INTRA>
-2.05218

>  <SCORE.INTRA.DIHEDRAL>
-4.98032

>  <SCORE.INTRA.DIHEDRAL.0>
8.45421

>  <SCORE.INTRA.POLAR>
-0.032949

>  <SCORE.INTRA.POLAR.0>
0

>  <SCORE.INTRA.REPUL>
0

>  <SCORE.INTRA.REPUL.0>
0

>  <SCORE.INTRA.VDW>
0.550012

>  <SCORE.INTRA.VDW.0>
-1.87582

>  <SCORE.INTRA.norm>
-0.108009

>  <SCORE.RESTR>
0

>  <SCORE.RESTR.CAVITY>
0

>  <SCORE.RESTR.norm>
0

>  <SCORE.SYSTEM>
0.518345

>  <SCORE.SYSTEM.CONST>
0

>  <SCORE.SYSTEM.DIHEDRAL>
0.893463

>  <SCORE.SYSTEM.POLAR>
-0.0190877

>  <SCORE.SYSTEM.REPUL>
0.0545322

>  <SCORE.SYSTEM.VDW>
-0.13615

>  <SCORE.SYSTEM.norm>
0.0272813

>  <SCORE.heavy>
19

>  <SCORE.norm>
-1.15478

>  <SMILES>
C/C(O)=N/[C@H]1[C@H](O)O[C@H](COS(=O)(=O)[O-])[C@@H](O)[C@@H]1O

>  <UniqueID>
203

$$$$
440049
  rDOCK(R)          3D
libRbt.so/2013.1/901 2013/11/27
 19 19  0  0  0  0  0  0  0  0999 V2000
   32.9315    0.4495  -63.4519 N   0  3  0  0  0  0
   34.3575    0.1074  -63.3128 C   0  0  0  0  0  0
   34.7917    0.1066  -61.8264 C   0  0  0  0  0  0
   33.9601   -0.7388  -61.0765 O   0  0  0  0  0  0
   34.7056    1.4141  -61.2888 O   0  0  0  0  0  0
   35.6548    2.2724  -61.9028 C   0  0  0  0  0  0
   35.6494    3.6127  -61.1561 C   0  0  0  0  0  0
   35.9908    3.4245  -59.8098 O   0  0  0  0  0  0
   35.3378    2.4564  -63.4097 C   0  0  0  0  0  0
   36.3452    3.2196  -64.0258 O   0  0  0  0  0  0
   35.2693    1.0829  -64.0980 C   0  0  0  0  0  0
   34.8237    1.2397  -65.4206 O   0  0  0  0  0  0
   32.6138    0.2503  -64.4278 H   0  0  0  0  0  0
   32.3412   -0.1017  -62.7888 H   0  0  0  0  0  0
   32.7836    1.4696  -63.2790 H   0  0  0  0  0  0
   34.2233   -0.6317  -60.1250 H   0  0  0  0  0  0
   35.3490    2.7565  -59.4540 H   0  0  0  0  0  0
   36.2725    4.1438  -63.6706 H   0  0  0  0  0  0
   35.4451    1.8792  -65.8573 H   0  0  0  0  0  0
  1  2  1  0  0  0
  1 13  1  0  0  0
  1 14  1  0  0  0
  1 15  1  0  0  0
  2  3  1  0  0  0
  3  4  1  0  0  0
  3  5  1  0  0  0
  4 16  1  0  0  0
  5  6  1  0  0  0
  6  7  1  0  0  0
  6  9  1  0  0  0
  7  8  1  0  0  0
  8 17  1  0  0  0
  9 10  1  0  0  0
  9 11  1  0  0  0
 10 18  1  0  0  0
 11 12  1  0  0  0
 11  2  1  0  0  0
 12 19  1  0  0  0
M  END
>  <CHROM.0>
71.50217569,-61.18502332,60.42660826

>  <CHROM.1>
-168.20032328,-174.47759949,60.04057398,-55.62816884,-68.83028980,179.48065189
34.95934537,1.56623194,-62.55123450,2.33288711,-1.01346865,-1.58627346

>  <Energy>
23.84533324025274

>  <Genealogy>
[NH3+][C@@H]1C(O)O[C@H](CO)[C@@H](O)[C@@H]1O (protonated)
[NH3+][C@@H]1[C@H](O)O[C@H](CO)[C@@H](O)[C@@H]1O (chirality)
[NH3+][C@@H]1[C@H](O)O[C@H](CO)[C@@H](O)[C@@H]1O (3D coordinates assigned)
[NH3+][C@@H]1[C@H](O)O[C@H](CO)[C@@H](O)[C@@H]1O (nonaromatic ring conformer: 23.84533324025274 kcal/mol)

>  <Name>
440049

>  <RI>
1.63646e+07

>  <Rbt.Current_Directory>
/home/edward/Documentos/Virtual_Screening/rDock/N-terminal/3

>  <Rbt.Executable>
rbdock ($Id: //depot/dev/client3/rdock/2013.1/src/exe/rbdock.cxx#4 $)

>  <Rbt.Library>
libRbt.so (2013.1, Build901 2013/11/27)

>  <Rbt.Parameter_File>
/home/edward/anaconda3/envs/MD/share/rdock-2013.1-1/data/scripts/dock.prm

>  <Rbt.Receptor>
parameters.prm

>  <SCORE>
-26.6537

>  <SCORE.INTER>
-24.7715

>  <SCORE.INTER.CONST>
1

>  <SCORE.INTER.POLAR>
-5.37532

>  <SCORE.INTER.REPUL>
0

>  <SCORE.INTER.ROT>
1

>  <SCORE.INTER.VDW>
-12.8954

>  <SCORE.INTER.norm>
-2.06429

>  <SCORE.INTRA>
-1.79172

>  <SCORE.INTRA.DIHEDRAL>
-4.51714

>  <SCORE.INTRA.DIHEDRAL.0>
5.57585

>  <SCORE.INTRA.POLAR>
-0.0667068

>  <SCORE.INTRA.POLAR.0>
0

>  <SCORE.INTRA.REPUL>
0

>  <SCORE.INTRA.REPUL.0>
0

>  <SCORE.INTRA.VDW>
0.693656

>  <SCORE.INTRA.VDW.0>
-1.24841

>  <SCORE.INTRA.norm>
-0.14931

>  <SCORE.RESTR>
0

>  <SCORE.RESTR.CAVITY>
0

>  <SCORE.RESTR.norm>
0

>  <SCORE.SYSTEM>
-0.0904113

>  <SCORE.SYSTEM.CONST>
0

>  <SCORE.SYSTEM.DIHEDRAL>
0.641204

>  <SCORE.SYSTEM.POLAR>
-0.021312

>  <SCORE.SYSTEM.REPUL>
0.00394853

>  <SCORE.SYSTEM.VDW>
-0.358295

>  <SCORE.SYSTEM.norm>
-0.00753427

>  <SCORE.heavy>
12

>  <SCORE.norm>
-2.22114

>  <SMILES>
[NH3+][C@@H]1[C@H](O)O[C@H](CO)[C@@H](O)[C@@H]1O

>  <UniqueID>
206

$$$$
439281
  rDOCK(R)          3D
libRbt.so/2013.1/901 2013/11/27
 20 20  0  0  0  0  0  0  0  0999 V2000
   30.7938    0.8047  -62.9691 C   0  0  0  0  0  0
   32.1140    0.2261  -63.3638 C   0  0  0  0  0  0
   32.1621   -0.8581  -64.2397 O   0  0  0  0  0  0
   33.2041    0.7178  -62.8557 N   0  0  0  0  0  0
   34.5584    0.2421  -63.1590 C   0  0  0  0  0  0
   35.3666    0.1194  -61.8515 C   0  0  0  0  0  0
   34.7427   -0.7857  -60.9773 O   0  0  0  0  0  0
   35.4989    1.3843  -61.2211 O   0  0  0  0  0  0
   36.2785    2.2609  -62.0197 C   0  0  0  0  0  0
   36.5287    3.5554  -61.2288 C   0  0  0  0  0  0
   37.1580    3.2891  -60.0031 O   0  0  0  0  0  0
   35.5768    2.5507  -63.3702 C   0  0  0  0  0  0
   36.4062    3.3577  -64.1673 O   0  0  0  0  0  0
   35.2877    1.2255  -64.1000 C   0  0  0  0  0  0
   34.5233    1.4770  -65.2507 O   0  0  0  0  0  0
   31.3159   -1.2541  -64.6311 H   0  0  0  0  0  0
   34.6989   -1.6645  -61.4373 H   0  0  0  0  0  0
   38.0519    2.9134  -60.2157 H   0  0  0  0  0  0
   36.4011    4.2644  -63.7631 H   0  0  0  0  0  0
   35.0857    2.0330  -65.8511 H   0  0  0  0  0  0
  1  2  1  0  0  0
  2  3  1  0  0  0
  2  4  2  0  0  0
  3 16  1  0  0  0
  4  5  1  0  0  0
  5  6  1  0  0  0
  6  7  1  0  0  0
  6  8  1  0  0  0
  7 17  1  0  0  0
  8  9  1  0  0  0
  9 10  1  0  0  0
  9 12  1  0  0  0
 10 11  1  0  0  0
 11 18  1  0  0  0
 12 13  1  0  0  0
 12 14  1  0  0  0
 13 19  1  0  0  0
 14 15  1  0  0  0
 14  5  1  0  0  0
 15 20  1  0  0  0
M  END
>  <CHROM.0>
70.93696637,-177.43845333,-60.18831804

>  <CHROM.1>
1.17579150,-135.33309700,59.79818015,57.19493347,64.30588953,-71.97930357
-174.09677521,34.70039968,1.31190522,-62.71606212,2.99419005,-0.67716264
-1.18171208

>  <Energy>
25.338228116742506

>  <Genealogy>
CC(O)=N[C@@H]1C(O)O[C@H](CO)[C@@H](O)[C@@H]1O (tautomer)
CC(O)=N[C@@H]1[C@H](O)O[C@H](CO)[C@@H](O)[C@@H]1O (chirality)
CC(O)=N[C@@H]1[C@H](O)O[C@H](CO)[C@@H](O)[C@@H]1O (3D coordinates assigned)
CC(O)=N[C@@H]1[C@H](O)O[C@H](CO)[C@@H](O)[C@@H]1O (nonaromatic ring conformer: 25.338228116742506 kcal/mol)

>  <Name>
439281

>  <RI>
1.63646e+07

>  <Rbt.Current_Directory>
/home/edward/Documentos/Virtual_Screening/rDock/N-terminal/3

>  <Rbt.Executable>
rbdock ($Id: //depot/dev/client3/rdock/2013.1/src/exe/rbdock.cxx#4 $)

>  <Rbt.Library>
libRbt.so (2013.1, Build901 2013/11/27)

>  <Rbt.Parameter_File>
/home/edward/anaconda3/envs/MD/share/rdock-2013.1-1/data/scripts/dock.prm

>  <Rbt.Receptor>
parameters.prm

>  <SCORE>
-22.1266

>  <SCORE.INTER>
-20.3756

>  <SCORE.INTER.CONST>
1

>  <SCORE.INTER.POLAR>
-4.95483

>  <SCORE.INTER.REPUL>
0.0236409

>  <SCORE.INTER.ROT>
2

>  <SCORE.INTER.VDW>
-11.0474

>  <SCORE.INTER.norm>
-1.35837

>  <SCORE.INTRA>
-2.38812

>  <SCORE.INTRA.DIHEDRAL>
-6.14192

>  <SCORE.INTRA.DIHEDRAL.0>
7.54059

>  <SCORE.INTRA.POLAR>
0

>  <SCORE.INTRA.POLAR.0>
0

>  <SCORE.INTRA.REPUL>
0

>  <SCORE.INTRA.REPUL.0>
0

>  <SCORE.INTRA.VDW>
0.682843

>  <SCORE.INTRA.VDW.0>
-1.80295

>  <SCORE.INTRA.norm>
-0.159208

>  <SCORE.RESTR>
0

>  <SCORE.RESTR.CAVITY>
0

>  <SCORE.RESTR.norm>
0

>  <SCORE.SYSTEM>
0.637072

>  <SCORE.SYSTEM.CONST>
0

>  <SCORE.SYSTEM.DIHEDRAL>
0.606838

>  <SCORE.SYSTEM.POLAR>
-0.0232545

>  <SCORE.SYSTEM.REPUL>
0.0564429

>  <SCORE.SYSTEM.VDW>
0.130504

>  <SCORE.SYSTEM.norm>
0.0424715

>  <SCORE.heavy>
15

>  <SCORE.norm>
-1.47511

>  <SMILES>
CC(O)=N[C@@H]1[C@H](O)O[C@H](CO)[C@@H](O)[C@@H]1O

>  <UniqueID>
208

$$$$
439213
  rDOCK(R)          3D
libRbt.so/2013.1/901 2013/11/27
 18 18  0  0  0  0  0  0  0  0999 V2000
   34.2512   -1.0836  -63.8626 N   0  0  0  0  0  0
   34.3673    0.2243  -63.2095 C   0  0  0  0  0  0
   34.9905    0.0663  -61.8018 C   0  0  0  0  0  0
   34.1418   -0.7104  -60.9960 O   0  0  0  0  0  0
   35.1350    1.3317  -61.1829 O   0  0  0  0  0  0
   36.0725    2.1306  -61.8837 C   0  0  0  0  0  0
   36.3379    3.4017  -61.0657 C   0  0  0  0  0  0
   37.0112    3.0880  -59.8770 O   0  0  0  0  0  0
   35.5410    2.4663  -63.2948 C   0  0  0  0  0  0
   36.4992    3.2202  -63.9934 O   0  0  0  0  0  0
   35.2479    1.1650  -64.0608 C   0  0  0  0  0  0
   34.5895    1.4820  -65.2621 O   0  0  0  0  0  0
   33.5871   -0.9979  -64.6656 H   0  0  0  0  0  0
   35.1711   -1.3230  -64.2978 H   0  0  0  0  0  0
   34.1689   -1.6399  -61.3442 H   0  0  0  0  0  0
   37.9057    2.7539  -60.1473 H   0  0  0  0  0  0
   36.4495    4.1471  -63.6416 H   0  0  0  0  0  0
   35.2428    1.9555  -65.8403 H   0  0  0  0  0  0
  1  2  1  0  0  0
  1 13  1  0  0  0
  1 14  1  0  0  0
  2  3  1  0  0  0
  3  4  1  0  0  0
  3  5  1  0  0  0
  4 15  1  0  0  0
  5  6  1  0  0  0
  6  7  1  0  0  0
  6  9  1  0  0  0
  7  8  1  0  0  0
  8 16  1  0  0  0
  9 10  1  0  0  0
  9 11  1  0  0  0
 10 17  1  0  0  0
 11 12  1  0  0  0
 11  2  1  0  0  0
 12 18  1  0  0  0
M  END
>  <CHROM.0>
-175.97914932,-61.69262322,-62.29226485

>  <CHROM.1>
163.45158060,69.62951525,67.56944993,66.06904469,-77.08877533,-170.62525841
35.36122508,1.40004448,-62.54308310,2.73392886,-1.04170867,-1.31313960

>  <Energy>
21.721951505646086

>  <Genealogy>
N[C@H]1[C@H](O)O[C@H](CO)[C@@H](O)[C@@H]1O (chirality)
N[C@H]1[C@H](O)O[C@H](CO)[C@@H](O)[C@@H]1O (3D coordinates assigned)
N[C@H]1[C@H](O)O[C@H](CO)[C@@H](O)[C@@H]1O (nonaromatic ring conformer: 21.721951505646086 kcal/mol)

>  <Name>
439213

>  <RI>
1.63646e+07

>  <Rbt.Current_Directory>
/home/edward/Documentos/Virtual_Screening/rDock/N-terminal/3

>  <Rbt.Executable>
rbdock ($Id: //depot/dev/client3/rdock/2013.1/src/exe/rbdock.cxx#4 $)

>  <Rbt.Library>
libRbt.so (2013.1, Build901 2013/11/27)

>  <Rbt.Parameter_File>
/home/edward/anaconda3/envs/MD/share/rdock-2013.1-1/data/scripts/dock.prm

>  <Rbt.Receptor>
parameters.prm

>  <SCORE>
-29.3286

>  <SCORE.INTER>
-25.0043

>  <SCORE.INTER.CONST>
1

>  <SCORE.INTER.POLAR>
-5.79607

>  <SCORE.INTER.REPUL>
0

>  <SCORE.INTER.ROT>
2

>  <SCORE.INTER.VDW>
-12.6977

>  <SCORE.INTER.norm>
-2.0837

>  <SCORE.INTRA>
-3.33203

>  <SCORE.INTRA.DIHEDRAL>
-7.76699

>  <SCORE.INTRA.DIHEDRAL.0>
10.9731

>  <SCORE.INTRA.POLAR>
0

>  <SCORE.INTRA.POLAR.0>
0

>  <SCORE.INTRA.REPUL>
0

>  <SCORE.INTRA.REPUL.0>
0

>  <SCORE.INTRA.VDW>
0.551463

>  <SCORE.INTRA.VDW.0>
-0.964046

>  <SCORE.INTRA.norm>
-0.277669

>  <SCORE.RESTR>
0

>  <SCORE.RESTR.CAVITY>
0

>  <SCORE.RESTR.norm>
0

>  <SCORE.SYSTEM>
-0.992192

>  <SCORE.SYSTEM.CONST>
0

>  <SCORE.SYSTEM.DIHEDRAL>
0.119515

>  <SCORE.SYSTEM.REPUL>
0.0289122

>  <SCORE.SYSTEM.VDW>
-1.19651

>  <SCORE.SYSTEM.norm>
-0.0826827

>  <SCORE.heavy>
12

>  <SCORE.norm>
-2.44405

>  <SMILES>
N[C@H]1[C@H](O)O[C@H](CO)[C@@H](O)[C@@H]1O

>  <UniqueID>
211

$$$$
439174
  rDOCK(R)          3D
libRbt.so/2013.1/901 2013/11/27
 20 20  0  0  0  0  0  0  0  0999 V2000
   31.0797   -1.1789  -64.8551 H   0  0  0  0  0  0
   31.9272   -0.7630  -64.4880 O   0  0  0  0  0  0
   33.0763   -1.5247  -64.2845 C   0  0  0  0  0  0
   34.1327   -1.0148  -63.7196 N   0  0  0  0  0  0
   34.2978    0.3534  -63.2096 C   0  0  0  0  0  0
   34.7548    0.3763  -61.7375 C   0  0  0  0  0  0
   33.8259   -0.3325  -60.9629 O   0  0  0  0  0  0
   34.1763   -0.3323  -60.0341 H   0  0  0  0  0  0
   34.8104    1.7149  -61.2751 O   0  0  0  0  0  0
   35.8157    2.4428  -61.9633 C   0  0  0  0  0  0
   35.9453    3.8186  -61.2875 C   0  0  0  0  0  0
   36.3918    3.6970  -59.9635 O   0  0  0  0  0  0
   37.3068    3.3138  -60.0056 H   0  0  0  0  0  0
   35.4482    2.5817  -63.4633 C   0  0  0  0  0  0
   36.4746    3.2575  -64.1446 O   0  0  0  0  0  0
   36.5037    4.1812  -63.7821 H   0  0  0  0  0  0
   35.2524    1.1846  -64.0859 C   0  0  0  0  0  0
   34.7076    1.3036  -65.3756 O   0  0  0  0  0  0
   35.3556    1.8253  -65.9174 H   0  0  0  0  0  0
   33.1108   -2.9440  -64.7518 C   0  0  0  0  0  0
  1  2  1  0  0  0
  2  3  1  0  0  0
  3  4  2  0  0  0
  3 20  1  0  0  0
  4  5  1  0  0  0
  5  6  1  0  0  0
  6  7  1  0  0  0
  6  9  1  0  0  0
  7  8  1  0  0  0
  9 10  1  0  0  0
 10 11  1  0  0  0
 10 14  1  0  0  0
 11 12  1  0  0  0
 12 13  1  0  0  0
 14 15  1  0  0  0
 14 17  1  0  0  0
 15 16  1  0  0  0
 17 18  1  0  0  0
 17  5  1  0  0  0
 18 19  1  0  0  0
M  END
>  <CHROM.0>
70.32025895,-60.63284716,62.54278663

>  <CHROM.1>
-174.76056666,125.85887117,177.33911261,64.06926295,64.04284857,-65.31852792
-178.74410946,34.66830216,0.98103482,-62.96263140,2.67050117,-1.00506448
-1.57449550

>  <Energy>
26.12495674624173

>  <Genealogy>
CC(O)=N[C@H]1C(O)O[C@H](CO)[C@@H](O)[C@@H]1O (tautomer)
CC(O)=N[C@H]1[C@H](O)O[C@H](CO)[C@@H](O)[C@@H]1O (chirality)
C/C(O)=N/[C@H]1[C@H](O)O[C@H](CO)[C@@H](O)[C@@H]1O (cis-trans isomerization)
C/C(O)=N/[C@H]1[C@H](O)O[C@H](CO)[C@@H](O)[C@@H]1O (3D coordinates assigned)
C/C(O)=N/[C@H]1[C@H](O)O[C@H](CO)[C@@H](O)[C@@H]1O (nonaromatic ring conformer: 26.12495674624173 kcal/mol)

>  <Name>
439174

>  <RI>
1.63646e+07

>  <Rbt.Current_Directory>
/home/edward/Documentos/Virtual_Screening/rDock/N-terminal/3

>  <Rbt.Executable>
rbdock ($Id: //depot/dev/client3/rdock/2013.1/src/exe/rbdock.cxx#4 $)

>  <Rbt.Library>
libRbt.so (2013.1, Build901 2013/11/27)

>  <Rbt.Parameter_File>
/home/edward/anaconda3/envs/MD/share/rdock-2013.1-1/data/scripts/dock.prm

>  <Rbt.Receptor>
parameters.prm

>  <SCORE>
-26.0486

>  <SCORE.INTER>
-22.3541

>  <SCORE.INTER.CONST>
1

>  <SCORE.INTER.POLAR>
-4.2945

>  <SCORE.INTER.REPUL>
0.171338

>  <SCORE.INTER.ROT>
2

>  <SCORE.INTER.VDW>
-16.0095

>  <SCORE.INTER.norm>
-1.49027

>  <SCORE.INTRA>
-3.61613

>  <SCORE.INTRA.DIHEDRAL>
-8.37916

>  <SCORE.INTRA.DIHEDRAL.0>
9.0437

>  <SCORE.INTRA.POLAR>
0

>  <SCORE.INTRA.POLAR.0>
0

>  <SCORE.INTRA.REPUL>
0

>  <SCORE.INTRA.REPUL.0>
0

>  <SCORE.INTRA.VDW>
0.57345

>  <SCORE.INTRA.VDW.0>
-1.51125

>  <SCORE.INTRA.norm>
-0.241075

>  <SCORE.RESTR>
0

>  <SCORE.RESTR.CAVITY>
0

>  <SCORE.RESTR.norm>
0

>  <SCORE.SYSTEM>
-0.0783927

>  <SCORE.SYSTEM.CONST>
0

>  <SCORE.SYSTEM.DIHEDRAL>
0.546765

>  <SCORE.SYSTEM.POLAR>
-0.0254092

>  <SCORE.SYSTEM.REPUL>
0.000479149

>  <SCORE.SYSTEM.VDW>
-0.26778

>  <SCORE.SYSTEM.norm>
-0.00522618

>  <SCORE.heavy>
15

>  <SCORE.norm>
-1.73657

>  <SMILES>
C/C(O)=N/[C@H]1[C@H](O)O[C@H](CO)[C@@H](O)[C@@H]1O

>  <UniqueID>
215

$$$$
433580
  rDOCK(R)          3D
libRbt.so/2013.1/901 2013/11/27
 23 23  0  0  0  0  0  0  0  0999 V2000
   32.4464    3.8046  -58.5945 C   0  0  0  0  0  0
   33.7521    3.2814  -59.1996 C   0  0  0  0  0  0
   33.7015    3.3455  -60.6159 O   0  0  0  0  0  0
   34.3940    2.2694  -61.2345 C   0  0  0  0  0  0
   35.0333    2.7548  -62.5581 C   0  0  0  0  0  0
   36.1070    3.7242  -62.2975 N   0  3  0  0  0  0
   35.5717    1.5398  -63.3502 C   0  0  0  0  0  0
   36.0853    1.9796  -64.5784 O   0  0  0  0  0  0
   34.5274    0.6161  -63.6040 O   0  0  0  0  0  0
   34.0509    0.0540  -62.3937 C   0  0  0  0  0  0
   33.0513   -1.0603  -62.7383 C   0  0  0  0  0  0
   33.6555   -2.0240  -63.5585 O   0  0  0  0  0  0
   33.3832    1.1478  -61.5284 C   0  0  0  0  0  0
   32.9418    0.6007  -60.3111 O   0  0  0  0  0  0
   34.8921    4.1337  -58.7296 C   0  0  0  0  0  0
   35.7142    4.6069  -59.5582 O   0  0  0  0  0  0
   35.0713    4.3744  -57.3725 O   0  5  0  0  0  0
   35.8650    4.3321  -61.4813 H   0  0  0  0  0  0
   36.2625    4.3204  -63.1420 H   0  0  0  0  0  0
   37.0042    3.2257  -62.0983 H   0  0  0  0  0  0
   35.3496    2.4684  -65.0316 H   0  0  0  0  0  0
   34.3742   -2.4462  -63.0191 H   0  0  0  0  0  0
   33.7380    0.2280  -59.8500 H   0  0  0  0  0  0
  1  2  1  0  0  0
  2  3  1  0  0  0
  2 15  1  0  0  0
  3  4  1  0  0  0
  4  5  1  0  0  0
  5  6  1  0  0  0
  5  7  1  0  0  0
  6 18  1  0  0  0
  6 19  1  0  0  0
  6 20  1  0  0  0
  7  8  1  0  0  0
  7  9  1  0  0  0
  8 21  1  0  0  0
  9 10  1  0  0  0
 10 11  1  0  0  0
 10 13  1  0  0  0
 11 12  1  0  0  0
 12 22  1  0  0  0
 13 14  1  0  0  0
 13  4  1  0  0  0
 14 23  1  0  0  0
 15 16  2  0  0  0
 15 17  1  0  0  0
M  END
>  <CHROM.0>
-175.69280973,-175.26366470,-178.84602222

>  <CHROM.1>
-145.39361382,-129.78605783,-146.36398232,-36.09765439,-56.17392319,57.18884040
64.64301675,-60.96865569,34.39733650,2.05451461,-61.33795622,1.51753285,0.82166221
0.85908646

>  <Energy>
30.867644097560653

>  <Genealogy>
CC(OC1C([NH3+])C(O)OC(CO)C1O)C(=O)[O-] (protonated)
C[C@@H](O[C@H]1[C@H](O)[C@@H](CO)O[C@@H](O)[C@@H]1[NH3+])C(=O)[O-] (chirality)
C[C@@H](O[C@H]1[C@H](O)[C@@H](CO)O[C@@H](O)[C@@H]1[NH3+])C(=O)[O-] (3D coordinates assigned)
C[C@@H](O[C@H]1[C@H](O)[C@@H](CO)O[C@@H](O)[C@@H]1[NH3+])C(=O)[O-] (nonaromatic ring conformer: 30.867644097560653 kcal/mol)

>  <Name>
433580

>  <RI>
1.63646e+07

>  <Rbt.Current_Directory>
/home/edward/Documentos/Virtual_Screening/rDock/N-terminal/3

>  <Rbt.Executable>
rbdock ($Id: //depot/dev/client3/rdock/2013.1/src/exe/rbdock.cxx#4 $)

>  <Rbt.Library>
libRbt.so (2013.1, Build901 2013/11/27)

>  <Rbt.Parameter_File>
/home/edward/anaconda3/envs/MD/share/rdock-2013.1-1/data/scripts/dock.prm

>  <Rbt.Receptor>
parameters.prm

>  <SCORE>
-25.4828

>  <SCORE.INTER>
-17.9985

>  <SCORE.INTER.CONST>
1

>  <SCORE.INTER.POLAR>
-4.2544

>  <SCORE.INTER.REPUL>
0.120482

>  <SCORE.INTER.ROT>
4

>  <SCORE.INTER.VDW>
-13.5359

>  <SCORE.INTER.norm>
-1.05873

>  <SCORE.INTRA>
-7.04775

>  <SCORE.INTRA.DIHEDRAL>
-5.63756

>  <SCORE.INTRA.DIHEDRAL.0>
16.849

>  <SCORE.INTRA.POLAR>
-1.45833

>  <SCORE.INTRA.POLAR.0>
0

>  <SCORE.INTRA.REPUL>
0

>  <SCORE.INTRA.REPUL.0>
0

>  <SCORE.INTRA.VDW>
0.729362

>  <SCORE.INTRA.VDW.0>
-2.11885

>  <SCORE.INTRA.norm>
-0.414573

>  <SCORE.RESTR>
0

>  <SCORE.RESTR.CAVITY>
0

>  <SCORE.RESTR.norm>
0

>  <SCORE.SYSTEM>
-0.43652

>  <SCORE.SYSTEM.CONST>
0

>  <SCORE.SYSTEM.DIHEDRAL>
0.207868

>  <SCORE.SYSTEM.REPUL>
0.0781133

>  <SCORE.SYSTEM.VDW>
-0.93102

>  <SCORE.SYSTEM.norm>
-0.0256776

>  <SCORE.heavy>
17

>  <SCORE.norm>
-1.49899

>  <SMILES>
C[C@@H](O[C@H]1[C@H](O)[C@@H](CO)O[C@@H](O)[C@@H]1[NH3+])C(=O)[O-]

>  <UniqueID>
218

$$$$
408523
  rDOCK(R)          3D
libRbt.so/2013.1/901 2013/11/27
 27 27  0  0  0  0  0  0  0  0999 V2000
   34.4985   11.9385  -60.4707 C   0  0  0  0  0  0
   35.2434   11.2117  -59.4036 C   0  0  0  0  0  0
   35.4142   11.7558  -58.2789 O   0  0  0  0  0  0
   35.7079    9.9173  -59.6488 O   0  0  0  0  0  0
   36.3237    9.1159  -58.6441 C   0  0  0  0  0  0
   35.2641    8.4918  -57.7272 C   0  0  0  0  0  0
   35.8511    7.4223  -57.0007 O   0  0  0  0  0  0
   34.8779    6.7043  -56.2546 C   0  0  0  0  0  0
   33.9191    6.0851  -57.1170 O   0  0  0  0  0  0
   34.2299    5.0150  -57.9608 C   0  0  0  0  0  0
   33.1797    4.4671  -58.8654 C   0  0  0  0  0  0
   35.3739    4.4854  -57.9373 O   0  0  0  0  0  0
   34.1846    7.6157  -55.2137 C   0  0  0  0  0  0
   33.1738    6.8777  -54.4443 N   0  3  0  0  0  0
   33.5767    8.8617  -55.8931 C   0  0  0  0  0  0
   32.4501    8.4830  -56.6887 O   0  0  0  0  0  0
   31.8166    9.3411  -57.5933 C   0  0  0  0  0  0
   30.6814    8.8314  -58.4134 C   0  0  0  0  0  0
   32.2133   10.5282  -57.7457 O   0  0  0  0  0  0
   34.6476    9.5404  -56.7717 C   0  0  0  0  0  0
   35.6697   10.1068  -55.9479 O   0  0  0  0  0  0
   35.4213   11.0493  -54.9447 C   0  0  0  0  0  0
   36.5550   11.5595  -54.1229 C   0  0  0  0  0  0
   34.2487   11.4476  -54.7069 O   0  0  0  0  0  0
   33.5779    6.0106  -54.0222 H   0  0  0  0  0  0
   32.3783    6.6137  -55.0699 H   0  0  0  0  0  0
   32.8007    7.4857  -53.6794 H   0  0  0  0  0  0
  1  2  1  0  0  0
  2  3  2  0  0  0
  2  4  1  0  0  0
  4  5  1  0  0  0
  5  6  1  0  0  0
  6  7  1  0  0  0
  7  8  1  0  0  0
  8  9  1  0  0  0
  8 13  1  0  0  0
  9 10  1  0  0  0
 10 11  1  0  0  0
 10 12  2  0  0  0
 13 14  1  0  0  0
 13 15  1  0  0  0
 14 25  1  0  0  0
 14 26  1  0  0  0
 14 27  1  0  0  0
 15 16  1  0  0  0
 15 20  1  0  0  0
 16 17  1  0  0  0
 17 18  1  0  0  0
 17 19  2  0  0  0
 20 21  1  0  0  0
 20  6  1  0  0  0
 21 22  1  0  0  0
 22 23  1  0  0  0
 22 24  2  0  0  0
M  END
>  <CHROM.0>
-174.98902074,-57.71638389,-179.08803800

>  <CHROM.1>
-174.37786757,79.16637189,163.43378806,69.00551290,-177.58513518,53.03200934
-169.38427961,177.66215130,-177.48099222,178.84348227,34.34665695,8.77824639
-57.15019640,0.52937295,-1.33962046,-0.98952180

>  <Energy>
29.333860935431186

>  <Genealogy>
CC(=O)OCC1OC(OC(C)=O)C([NH3+])C(OC(C)=O)C1OC(C)=O (protonated)
CC(=O)OC[C@H]1O[C@H](OC(C)=O)[C@H]([NH3+])[C@H](OC(C)=O)[C@H]1OC(C)=O (chirality)
CC(=O)OC[C@H]1O[C@H](OC(C)=O)[C@H]([NH3+])[C@H](OC(C)=O)[C@H]1OC(C)=O (3D coordinates assigned)
CC(=O)OC[C@H]1O[C@H](OC(C)=O)[C@H]([NH3+])[C@H](OC(C)=O)[C@H]1OC(C)=O (nonaromatic ring conformer: 29.333860935431186 kcal/mol)

>  <Name>
408523

>  <RI>
1.63646e+07

>  <Rbt.Current_Directory>
/home/edward/Documentos/Virtual_Screening/rDock/N-terminal/3

>  <Rbt.Executable>
rbdock ($Id: //depot/dev/client3/rdock/2013.1/src/exe/rbdock.cxx#4 $)

>  <Rbt.Library>
libRbt.so (2013.1, Build901 2013/11/27)

>  <Rbt.Parameter_File>
/home/edward/anaconda3/envs/MD/share/rdock-2013.1-1/data/scripts/dock.prm

>  <Rbt.Receptor>
parameters.prm

>  <SCORE>
-9.76392

>  <SCORE.INTER>
-7.50512

>  <SCORE.INTER.CONST>
1

>  <SCORE.INTER.POLAR>
-1.72639

>  <SCORE.INTER.REPUL>
0

>  <SCORE.INTER.ROT>
9

>  <SCORE.INTER.VDW>
-16.0354

>  <SCORE.INTER.norm>
-0.312713

>  <SCORE.INTRA>
-1.25296

>  <SCORE.INTRA.DIHEDRAL>
1.00167

>  <SCORE.INTRA.DIHEDRAL.0>
3.07713

>  <SCORE.INTRA.POLAR>
-0.000508955

>  <SCORE.INTRA.POLAR.0>
0

>  <SCORE.INTRA.REPUL>
-0.369675

>  <SCORE.INTRA.REPUL.0>
0.487326

>  <SCORE.INTRA.VDW>
0.0963134

>  <SCORE.INTRA.VDW.0>
-3.89389

>  <SCORE.INTRA.norm>
-0.0522066

>  <SCORE.RESTR>
0

>  <SCORE.RESTR.CAVITY>
0

>  <SCORE.RESTR.norm>
0

>  <SCORE.SYSTEM>
-1.00584

>  <SCORE.SYSTEM.CONST>
0

>  <SCORE.SYSTEM.DIHEDRAL>
0.15301

>  <SCORE.SYSTEM.REPUL>
0.0261375

>  <SCORE.SYSTEM.VDW>
-1.21304

>  <SCORE.SYSTEM.norm>
-0.0419101

>  <SCORE.heavy>
24

>  <SCORE.norm>
-0.40683

>  <SMILES>
CC(=O)OC[C@H]1O[C@H](OC(C)=O)[C@H]([NH3+])[C@H](OC(C)=O)[C@H]1OC(C)=O

>  <UniqueID>
220

$$$$
312829
  rDOCK(R)          3D
libRbt.so/2013.1/901 2013/11/27
 28 28  0  0  0  0  0  0  0  0999 V2000
   32.1347   -5.7056  -63.6297 H   0  0  0  0  0  0
   31.1975   -6.0356  -63.4324 O   0  0  0  0  0  0
   30.1856   -5.1529  -63.0558 C   0  0  0  0  0  0
   30.4241   -3.8807  -62.9427 N   0  0  0  0  0  0
   31.7346   -3.2610  -63.1518 C   0  0  0  0  0  0
   32.0028   -2.1690  -62.0892 C   0  0  0  0  0  0
   30.9140   -1.2433  -62.0200 O   0  0  0  0  0  0
   30.9297   -0.1079  -61.2041 C   0  0  0  0  0  0
   31.9397    0.1683  -60.5013 O   0  0  0  0  0  0
   29.7313    0.7759  -61.1513 C   0  0  0  0  0  0
   33.2311   -1.5003  -62.3371 O   0  0  0  0  0  0
   33.2147   -0.8399  -63.5928 C   0  0  0  0  0  0
   34.4710    0.0328  -63.7093 C   0  0  0  0  0  0
   34.3962    1.1335  -62.8036 O   0  0  0  0  0  0
   35.2963    2.2051  -62.8152 C   0  0  0  0  0  0
   36.2382    2.2495  -63.6526 O   0  0  0  0  0  0
   35.1678    3.2823  -61.7932 C   0  0  0  0  0  0
   33.1071   -1.8656  -64.7443 C   0  0  0  0  0  0
   34.2156   -2.7709  -64.7244 O   0  0  0  0  0  0
   34.4543   -3.7403  -65.7056 C   0  0  0  0  0  0
   33.6617   -3.8924  -66.6744 O   0  0  0  0  0  0
   35.6890   -4.5711  -65.6270 C   0  0  0  0  0  0
   31.8053   -2.6713  -64.5729 C   0  0  0  0  0  0
   30.6660   -1.8368  -64.8037 O   0  0  0  0  0  0
   29.3962   -2.3274  -65.1247 C   0  0  0  0  0  0
   29.2030   -3.5621  -65.2929 O   0  0  0  0  0  0
   28.2483   -1.3809  -65.2124 C   0  0  0  0  0  0
   28.8020   -5.6657  -62.8184 C   0  0  0  0  0  0
  1  2  1  0  0  0
  2  3  1  0  0  0
  3  4  2  0  0  0
  3 28  1  0  0  0
  4  5  1  0  0  0
  5  6  1  0  0  0
  6  7  1  0  0  0
  6 11  1  0  0  0
  7  8  1  0  0  0
  8  9  2  0  0  0
  8 10  1  0  0  0
 11 12  1  0  0  0
 12 13  1  0  0  0
 12 18  1  0  0  0
 13 14  1  0  0  0
 14 15  1  0  0  0
 15 16  2  0  0  0
 15 17  1  0  0  0
 18 19  1  0  0  0
 18 23  1  0  0  0
 19 20  1  0  0  0
 20 21  2  0  0  0
 20 22  1  0  0  0
 23 24  1  0  0  0
 23  5  1  0  0  0
 24 25  1  0  0  0
 25 26  2  0  0  0
 25 27  1  0  0  0
M  END
>  <CHROM.0>
-174.97232965,-176.74305623,64.18847389

>  <CHROM.1>
-0.31988310,-138.98825041,-175.82797598,1.58259434,-69.27493384,-170.39796603
0.21692703,-174.50238764,-1.72376482,-78.92350627,-3.46646857,32.24462015
-1.79835955,-63.53848792,-2.23996062,0.35913440,0.52903922

>  <Energy>
31.630035146206392

>  <Genealogy>
CC(=O)OCC1OC(OC(C)=O)C(N=C(C)O)C(OC(C)=O)C1OC(C)=O (tautomer)
CC(=O)OC[C@@H]1O[C@@H](OC(C)=O)[C@@H](N=C(C)O)[C@@H](OC(C)=O)[C@@H]1OC(C)=O (chirality)
CC(=O)OC[C@@H]1O[C@@H](OC(C)=O)[C@@H](/N=C(/C)O)[C@@H](OC(C)=O)[C@@H]1OC(C)=O (cis-trans isomerization)
CC(=O)OC[C@@H]1O[C@@H](OC(C)=O)[C@@H](/N=C(/C)O)[C@@H](OC(C)=O)[C@@H]1OC(C)=O (3D coordinates assigned)
CC(=O)OC[C@@H]1O[C@@H](OC(C)=O)[C@@H](/N=C(/C)O)[C@@H](OC(C)=O)[C@@H]1OC(C)=O (nonaromatic ring conformer: 31.630035146206392 kcal/mol)

>  <Name>
312829

>  <RI>
1.63646e+07

>  <Rbt.Current_Directory>
/home/edward/Documentos/Virtual_Screening/rDock/N-terminal/3

>  <Rbt.Executable>
rbdock ($Id: //depot/dev/client3/rdock/2013.1/src/exe/rbdock.cxx#4 $)

>  <Rbt.Library>
libRbt.so (2013.1, Build901 2013/11/27)

>  <Rbt.Parameter_File>
/home/edward/anaconda3/envs/MD/share/rdock-2013.1-1/data/scripts/dock.prm

>  <Rbt.Receptor>
parameters.prm

>  <SCORE>
-8.08253

>  <SCORE.INTER>
-3.0263

>  <SCORE.INTER.CONST>
1

>  <SCORE.INTER.POLAR>
-0.959166

>  <SCORE.INTER.REPUL>
0

>  <SCORE.INTER.ROT>
10

>  <SCORE.INTER.VDW>
-15.1651

>  <SCORE.INTER.norm>
-0.112085

>  <SCORE.INTRA>
-4.54148

>  <SCORE.INTRA.DIHEDRAL>
-6.21955

>  <SCORE.INTRA.DIHEDRAL.0>
9.75454

>  <SCORE.INTRA.POLAR>
0

>  <SCORE.INTRA.POLAR.0>
0

>  <SCORE.INTRA.REPUL>
-0.336884

>  <SCORE.INTRA.REPUL.0>
0.336884

>  <SCORE.INTRA.VDW>
0.252716

>  <SCORE.INTRA.VDW.0>
-4.76447

>  <SCORE.INTRA.norm>
-0.168203

>  <SCORE.RESTR>
0

>  <SCORE.RESTR.CAVITY>
0

>  <SCORE.RESTR.norm>
0

>  <SCORE.SYSTEM>
-0.514753

>  <SCORE.SYSTEM.CONST>
0

>  <SCORE.SYSTEM.DIHEDRAL>
0.262467

>  <SCORE.SYSTEM.REPUL>
0.0789084

>  <SCORE.SYSTEM.VDW>
-1.04053

>  <SCORE.SYSTEM.norm>
-0.0190649

>  <SCORE.heavy>
27

>  <SCORE.norm>
-0.299353

>  <SMILES>
CC(=O)OC[C@@H]1O[C@@H](OC(C)=O)[C@@H](/N=C(/C)O)[C@@H](OC(C)=O)[C@@H]1OC(C)=O

>  <UniqueID>
225

$$$$
254124
  rDOCK(R)          3D
libRbt.so/2013.1/901 2013/11/27
 20 20  0  0  0  0  0  0  0  0999 V2000
   31.9985   -0.3493  -59.0559 C   0  0  0  0  0  0
   32.2291    0.8888  -59.6932 O   0  0  0  0  0  0
   33.3479    0.8140  -60.5618 C   0  0  0  0  0  0
   33.7287    2.1396  -60.8908 O   0  0  0  0  0  0
   34.9081    2.1506  -61.6801 C   0  0  0  0  0  0
   35.3791    3.6050  -61.8293 C   0  0  0  0  0  0
   36.5300    3.6819  -62.6290 O   0  0  0  0  0  0
   34.6500    1.4836  -63.0540 C   0  0  0  0  0  0
   35.8420    1.4244  -63.7969 O   0  0  0  0  0  0
   34.1279    0.0546  -62.8411 C   0  0  0  0  0  0
   33.7362   -0.4907  -64.0748 O   0  0  0  0  0  0
   32.9518    0.0431  -61.8427 C   0  0  0  0  0  0
   31.7507    0.6368  -62.4455 N   0  0  0  0  0  0
   30.4609    0.0118  -62.3850 C   0  0  0  0  0  0
   29.3003    0.6337  -63.0904 C   0  0  0  0  0  0
   30.3018   -1.0729  -61.7624 O   0  0  0  0  0  0
   36.6323    4.6319  -62.8979 H   0  0  0  0  0  0
   36.1883    2.3518  -63.8702 H   0  0  0  0  0  0
   34.5587   -0.5722  -64.6250 H   0  0  0  0  0  0
   31.8514    1.4987  -63.0286 H   0  0  0  0  0  0
  1  2  1  0  0  0
  2  3  1  0  0  0
  3  4  1  0  0  0
  4  5  1  0  0  0
  5  6  1  0  0  0
  5  8  1  0  0  0
  6  7  1  0  0  0
  7 17  1  0  0  0
  8  9  1  0  0  0
  8 10  1  0  0  0
  9 18  1  0  0  0
 10 11  1  0  0  0
 10 12  1  0  0  0
 11 19  1  0  0  0
 12 13  1  0  0  0
 12  3  1  0  0  0
 13 14  1  0  0  0
 13 20  1  0  0  0
 14 15  1  0  0  0
 14 16  2  0  0  0
M  END
>  <CHROM.0>
-177.72061736,-62.80825743,-178.50350829

>  <CHROM.1>
-165.16652238,-178.66322244,164.29074959,-56.32701624,65.23518692,-106.52129459
33.24135815,1.00406509,-62.00154143,-3.09457832,-0.53530698,-1.83292214

>  <Energy>
30.106972036154314

>  <Genealogy>
CO[C@@H]1O[C@H](CO)[C@@H](O)[C@H](O)[C@@H]1NC(C)=O (chirality)
CO[C@@H]1O[C@H](CO)[C@@H](O)[C@H](O)[C@@H]1NC(C)=O (3D coordinates assigned)
CO[C@@H]1O[C@H](CO)[C@@H](O)[C@H](O)[C@@H]1NC(C)=O (nonaromatic ring conformer: 30.106972036154314 kcal/mol)

>  <Name>
254124

>  <RI>
1.63646e+07

>  <Rbt.Current_Directory>
/home/edward/Documentos/Virtual_Screening/rDock/N-terminal/3

>  <Rbt.Executable>
rbdock ($Id: //depot/dev/client3/rdock/2013.1/src/exe/rbdock.cxx#4 $)

>  <Rbt.Library>
libRbt.so (2013.1, Build901 2013/11/27)

>  <Rbt.Parameter_File>
/home/edward/anaconda3/envs/MD/share/rdock-2013.1-1/data/scripts/dock.prm

>  <Rbt.Receptor>
parameters.prm

>  <SCORE>
-21.52

>  <SCORE.INTER>
-14.3924

>  <SCORE.INTER.CONST>
1

>  <SCORE.INTER.POLAR>
-4.01039

>  <SCORE.INTER.REPUL>
0

>  <SCORE.INTER.ROT>
3

>  <SCORE.INTER.VDW>
-9.15705

>  <SCORE.INTER.norm>
-0.899524

>  <SCORE.INTRA>
-6.09621

>  <SCORE.INTRA.DIHEDRAL>
-11.3159

>  <SCORE.INTRA.DIHEDRAL.0>
15.0949

>  <SCORE.INTRA.POLAR>
-0.66668

>  <SCORE.INTRA.POLAR.0>
0

>  <SCORE.INTRA.REPUL>
0

>  <SCORE.INTRA.REPUL.0>
0

>  <SCORE.INTRA.VDW>
1.82843

>  <SCORE.INTRA.VDW.0>
-2.2975

>  <SCORE.INTRA.norm>
-0.381013

>  <SCORE.RESTR>
0

>  <SCORE.RESTR.CAVITY>
0

>  <SCORE.RESTR.norm>
0

>  <SCORE.SYSTEM>
-1.03143

>  <SCORE.SYSTEM.CONST>
0

>  <SCORE.SYSTEM.DIHEDRAL>
0.0755019

>  <SCORE.SYSTEM.REPUL>
0.0337448

>  <SCORE.SYSTEM.VDW>
-1.2379

>  <SCORE.SYSTEM.norm>
-0.0644641

>  <SCORE.heavy>
16

>  <SCORE.norm>
-1.345

>  <SMILES>
CO[C@@H]1O[C@H](CO)[C@@H](O)[C@H](O)[C@@H]1NC(C)=O

>  <UniqueID>
228

$$$$
202260
  rDOCK(R)          3D
libRbt.so/2013.1/901 2013/11/27
 27 27  0  0  0  0  0  0  0  0999 V2000
   35.0754    0.9358  -63.5484 C   0  0  0  0  0  0
   35.5880    2.2205  -62.9930 C   0  0  0  0  0  0
   36.5271    2.8236  -63.5798 O   0  0  0  0  0  0
   35.0462    2.7198  -61.8039 O   0  0  0  0  0  0
   35.4295    3.9659  -61.2234 C   0  0  0  0  0  0
   34.8948    4.1181  -59.7881 C   0  0  0  0  0  0
   35.2293    5.4207  -59.3419 O   0  0  0  0  0  0
   34.9135    5.5786  -57.9703 C   0  0  0  0  0  0
   35.3838    6.8536  -57.5380 O   0  0  0  0  0  0
   34.9133    8.0583  -58.0695 C   0  0  0  0  0  0
   35.5391    9.3424  -57.6432 C   0  0  0  0  0  0
   33.9976    8.0672  -58.9366 O   0  0  0  0  0  0
   33.3849    5.5059  -57.7646 C   0  0  0  0  0  0
   33.0406    5.6744  -56.3454 N   0  3  0  0  0  0
   32.8579    4.1566  -58.2944 C   0  0  0  0  0  0
   31.4283    4.1706  -58.2710 O   0  0  0  0  0  0
   30.6464    5.1052  -58.9602 C   0  0  0  0  0  0
   29.2092    5.2649  -58.5998 C   0  0  0  0  0  0
   31.1502    5.8415  -59.8514 O   0  0  0  0  0  0
   33.3616    3.9130  -59.7308 C   0  0  0  0  0  0
   33.0446    2.5774  -60.1306 O   0  0  0  0  0  0
   31.7940    2.1826  -60.6186 C   0  0  0  0  0  0
   31.5553    0.7463  -60.9355 C   0  0  0  0  0  0
   30.8842    3.0287  -60.8337 O   0  0  0  0  0  0
   33.2759    6.6435  -56.0316 H   0  0  0  0  0  0
   33.5628    4.9863  -55.7551 H   0  0  0  0  0  0
   32.0136    5.5346  -56.2065 H   0  0  0  0  0  0
  1  2  1  0  0  0
  2  3  2  0  0  0
  2  4  1  0  0  0
  4  5  1  0  0  0
  5  6  1  0  0  0
  6  7  1  0  0  0
  7  8  1  0  0  0
  8  9  1  0  0  0
  8 13  1  0  0  0
  9 10  1  0  0  0
 10 11  1  0  0  0
 10 12  2  0  0  0
 13 14  1  0  0  0
 13 15  1  0  0  0
 14 25  1  0  0  0
 14 26  1  0  0  0
 14 27  1  0  0  0
 15 16  1  0  0  0
 15 20  1  0  0  0
 16 17  1  0  0  0
 17 18  1  0  0  0
 17 19  2  0  0  0
 20 21  1  0  0  0
 20  6  1  0  0  0
 21 22  1  0  0  0
 22 23  1  0  0  0
 22 24  2  0  0  0
M  END
>  <CHROM.0>
-169.42799996,-60.57591824,-60.47257042

>  <CHROM.1>
-177.27318390,-168.11845162,-175.23133887,62.17897561,-174.90161330,66.61916700
58.80541440,-164.06397174,-157.74555005,-176.69817323,33.53105341,4.52247993
-59.69309745,-1.50342777,0.33244905,0.69743017

>  <Energy>
29.57414202236387

>  <Genealogy>
CC(=O)OC[C@H]1O[C@@H](OC(C)=O)[C@H]([NH3+])[C@@H](OC(C)=O)[C@@H]1OC(C)=O (protonated)
CC(=O)OC[C@H]1O[C@@H](OC(C)=O)[C@H]([NH3+])[C@@H](OC(C)=O)[C@@H]1OC(C)=O (3D coordinates assigned)
CC(=O)OC[C@H]1O[C@@H](OC(C)=O)[C@H]([NH3+])[C@@H](OC(C)=O)[C@@H]1OC(C)=O (nonaromatic ring conformer: 29.57414202236387 kcal/mol)

>  <Name>
202260

>  <RI>
1.63646e+07

>  <Rbt.Current_Directory>
/home/edward/Documentos/Virtual_Screening/rDock/N-terminal/3

>  <Rbt.Executable>
rbdock ($Id: //depot/dev/client3/rdock/2013.1/src/exe/rbdock.cxx#4 $)

>  <Rbt.Library>
libRbt.so (2013.1, Build901 2013/11/27)

>  <Rbt.Parameter_File>
/home/edward/anaconda3/envs/MD/share/rdock-2013.1-1/data/scripts/dock.prm

>  <Rbt.Receptor>
parameters.prm

>  <SCORE>
-9.37396

>  <SCORE.INTER>
-6.86651

>  <SCORE.INTER.CONST>
1

>  <SCORE.INTER.POLAR>
-2.46097

>  <SCORE.INTER.REPUL>
0.418716

>  <SCORE.INTER.ROT>
9

>  <SCORE.INTER.VDW>
-14.9928

>  <SCORE.INTER.norm>
-0.286105

>  <SCORE.INTRA>
-1.65429

>  <SCORE.INTRA.DIHEDRAL>
-5.723

>  <SCORE.INTRA.DIHEDRAL.0>
10.6824

>  <SCORE.INTRA.POLAR>
0

>  <SCORE.INTRA.POLAR.0>
0

>  <SCORE.INTRA.REPUL>
0

>  <SCORE.INTRA.REPUL.0>
0

>  <SCORE.INTRA.VDW>
1.20721

>  <SCORE.INTRA.VDW.0>
-4.68421

>  <SCORE.INTRA.norm>
-0.0689289

>  <SCORE.RESTR>
0

>  <SCORE.RESTR.CAVITY>
0

>  <SCORE.RESTR.norm>
0

>  <SCORE.SYSTEM>
-0.853152

>  <SCORE.SYSTEM.CONST>
0

>  <SCORE.SYSTEM.DIHEDRAL>
0.540347

>  <SCORE.SYSTEM.REPUL>
0.0102396

>  <SCORE.SYSTEM.VDW>
-1.17452

>  <SCORE.SYSTEM.norm>
-0.035548

>  <SCORE.heavy>
24

>  <SCORE.norm>
-0.390581

>  <SMILES>
CC(=O)OC[C@H]1O[C@@H](OC(C)=O)[C@H]([NH3+])[C@@H](OC(C)=O)[C@@H]1OC(C)=O

>  <UniqueID>
229

$$$$
198515
  rDOCK(R)          3D
libRbt.so/2013.1/901 2013/11/27
 29 29  0  0  0  0  0  0  0  0999 V2000
   27.2012    0.3924  -65.5119 C   0  0  0  0  0  0
   28.1284   -0.7487  -65.2651 C   0  0  0  0  0  0
   28.3402   -1.1376  -64.0842 O   0  0  0  0  0  0
   28.7181   -1.3994  -66.3539 O   0  0  0  0  0  0
   29.6121   -2.5056  -66.2311 C   0  0  0  0  0  0
   30.9886   -2.0788  -65.6890 C   0  0  0  0  0  0
   30.8472   -1.5641  -64.3766 O   0  0  0  0  0  0
   32.0550   -0.9560  -63.9484 C   0  0  0  0  0  0
   31.8501   -0.3866  -62.6578 O   0  0  0  0  0  0
   30.9276    0.6353  -62.4136 C   0  0  0  0  0  0
   30.8292    1.2235  -61.0477 C   0  0  0  0  0  0
   30.2074    1.0911  -63.3435 O   0  0  0  0  0  0
   33.1887   -1.9968  -63.8540 C   0  0  0  0  0  0
   34.4359   -1.3304  -63.4675 N   0  0  0  0  0  0
   34.7348   -0.9509  -62.1160 C   0  0  0  0  0  0
   33.9312   -1.2177  -61.1823 O   0  0  0  0  0  0
   36.0291   -0.2752  -61.7968 C   0  0  0  0  0  0
   35.6937    1.2834  -60.6993 Br  0  0  0  0  0  0
   33.3646   -2.7178  -65.2077 C   0  0  0  0  0  0
   34.2777   -3.8094  -65.0738 O   0  0  0  0  0  0
   34.9557   -4.3997  -66.1461 C   0  0  0  0  0  0
   35.9167   -5.5071  -65.8822 C   0  0  0  0  0  0
   34.7288   -4.0421  -67.3339 O   0  0  0  0  0  0
   32.0030   -3.2447  -65.6985 C   0  0  0  0  0  0
   31.5387   -4.2909  -64.8394 O   0  0  0  0  0  0
   31.9833   -5.6154  -64.9065 C   0  0  0  0  0  0
   31.4803   -6.6037  -63.9111 C   0  0  0  0  0  0
   32.7603   -5.9927  -65.8251 O   0  0  0  0  0  0
   35.0987   -1.0425  -64.2232 H   0  0  0  0  0  0
  1  2  1  0  0  0
  2  3  2  0  0  0
  2  4  1  0  0  0
  4  5  1  0  0  0
  5  6  1  0  0  0
  6  7  1  0  0  0
  7  8  1  0  0  0
  8  9  1  0  0  0
  8 13  1  0  0  0
  9 10  1  0  0  0
 10 11  1  0  0  0
 10 12  2  0  0  0
 13 14  1  0  0  0
 13 19  1  0  0  0
 14 15  1  0  0  0
 14 29  1  0  0  0
 15 16  2  0  0  0
 15 17  1  0  0  0
 17 18  1  0  0  0
 19 20  1  0  0  0
 19 24  1  0  0  0
 20 21  1  0  0  0
 21 22  1  0  0  0
 21 23  2  0  0  0
 24 25  1  0  0  0
 24  6  1  0  0  0
 25 26  1  0  0  0
 26 27  1  0  0  0
 26 28  2  0  0  0
M  END
>  <CHROM.0>
74.20778677,-174.13380014,-179.88584121

>  <CHROM.1>
-179.60857625,-72.18869274,63.37083619,-62.10853490,-176.74153134,79.01863731
131.74543836,-159.91851681,178.16206373,160.48911364,176.78616362,32.64391100
-1.61049624,-63.75073151,2.15371603,0.30140598,-2.52531490

>  <Energy>
29.871165526885463

>  <Genealogy>
CC(=O)OC[C@H]1O[C@@H](OC(C)=O)[C@H](NC(=O)CBr)[C@@H](OC(C)=O)[C@H]1OC(C)=O (3D coordinates assigned)
CC(=O)OC[C@H]1O[C@@H](OC(C)=O)[C@H](NC(=O)CBr)[C@@H](OC(C)=O)[C@H]1OC(C)=O (nonaromatic ring conformer: 29.871165526885463 kcal/mol)

>  <Name>
198515

>  <RI>
1.63646e+07

>  <Rbt.Current_Directory>
/home/edward/Documentos/Virtual_Screening/rDock/N-terminal/3

>  <Rbt.Executable>
rbdock ($Id: //depot/dev/client3/rdock/2013.1/src/exe/rbdock.cxx#4 $)

>  <Rbt.Library>
libRbt.so (2013.1, Build901 2013/11/27)

>  <Rbt.Parameter_File>
/home/edward/anaconda3/envs/MD/share/rdock-2013.1-1/data/scripts/dock.prm

>  <Rbt.Receptor>
parameters.prm

>  <SCORE>
-6.26918

>  <SCORE.INTER>
-6.76806

>  <SCORE.INTER.CONST>
1

>  <SCORE.INTER.POLAR>
-1.18179

>  <SCORE.INTER.REPUL>
0

>  <SCORE.INTER.ROT>
11

>  <SCORE.INTER.VDW>
-19.15

>  <SCORE.INTER.norm>
-0.241716

>  <SCORE.INTRA>
-0.142054

>  <SCORE.INTRA.DIHEDRAL>
-3.99276

>  <SCORE.INTRA.DIHEDRAL.0>
10.9635

>  <SCORE.INTRA.POLAR>
0

>  <SCORE.INTRA.POLAR.0>
0

>  <SCORE.INTRA.REPUL>
0

>  <SCORE.INTRA.REPUL.0>
0

>  <SCORE.INTRA.VDW>
1.85433

>  <SCORE.INTRA.VDW.0>
-7.07204

>  <SCORE.INTRA.norm>
-0.00507334

>  <SCORE.RESTR>
0

>  <SCORE.RESTR.CAVITY>
0

>  <SCORE.RESTR.norm>
0

>  <SCORE.SYSTEM>
0.640932

>  <SCORE.SYSTEM.CONST>
0

>  <SCORE.SYSTEM.DIHEDRAL>
1.1196

>  <SCORE.SYSTEM.POLAR>
-0.012599

>  <SCORE.SYSTEM.REPUL>
0.0596968

>  <SCORE.SYSTEM.VDW>
-0.174513

>  <SCORE.SYSTEM.norm>
0.0228904

>  <SCORE.heavy>
28

>  <SCORE.norm>
-0.223899

>  <SMILES>
CC(=O)OC[C@H]1O[C@@H](OC(C)=O)[C@H](NC(=O)CBr)[C@@H](OC(C)=O)[C@H]1OC(C)=O

>  <UniqueID>
232

$$$$
198514
  rDOCK(R)          3D
libRbt.so/2013.1/901 2013/11/27
 29 29  0  0  0  0  0  0  0  0999 V2000
   32.5141    1.3796  -63.3338 H   0  0  0  0  0  0
   32.6160    0.4176  -63.6256 O   0  0  0  0  0  0
   32.2615   -0.6785  -62.8338 C   0  0  0  0  0  0
   32.4187   -1.9104  -63.2294 N   0  0  0  0  0  0
   32.9885   -2.3687  -64.4990 C   0  0  0  0  0  0
   34.2624   -3.1961  -64.2185 C   0  0  0  0  0  0
   35.2380   -2.3746  -63.5740 O   0  0  0  0  0  0
   36.5097   -2.8199  -63.1926 C   0  0  0  0  0  0
   36.8718   -4.0088  -63.4060 O   0  0  0  0  0  0
   37.4686   -1.8578  -62.5791 C   0  0  0  0  0  0
   34.8209   -3.6536  -65.4371 O   0  0  0  0  0  0
   33.9507   -4.5712  -66.0782 C   0  0  0  0  0  0
   34.6868   -5.1738  -67.2798 C   0  0  0  0  0  0
   35.3224   -6.3947  -66.9110 O   0  0  0  0  0  0
   34.6275   -7.6008  -66.7927 C   0  0  0  0  0  0
   33.3884   -7.6562  -67.0207 O   0  0  0  0  0  0
   35.3717   -8.8451  -66.4466 C   0  0  0  0  0  0
   32.6395   -3.8626  -66.4988 C   0  0  0  0  0  0
   31.7293   -4.7979  -67.0847 O   0  0  0  0  0  0
   31.1769   -5.8875  -66.4012 C   0  0  0  0  0  0
   31.4517   -6.1019  -65.1894 O   0  0  0  0  0  0
   30.2128   -6.7793  -67.1057 C   0  0  0  0  0  0
   31.9748   -3.2469  -65.2608 C   0  0  0  0  0  0
   30.8526   -2.4688  -65.6825 O   0  0  0  0  0  0
   29.8243   -2.0535  -64.8286 C   0  0  0  0  0  0
   29.8409   -2.3456  -63.6021 O   0  0  0  0  0  0
   28.6691   -1.2974  -65.3893 C   0  0  0  0  0  0
   31.6751   -0.4194  -61.4853 C   0  0  0  0  0  0
   31.6851   -2.0470  -60.4395 Br  0  0  0  0  0  0
  1  2  1  0  0  0
  2  3  1  0  0  0
  3  4  2  0  0  0
  3 28  1  0  0  0
  4  5  1  0  0  0
  5  6  1  0  0  0
  6  7  1  0  0  0
  6 11  1  0  0  0
  7  8  1  0  0  0
  8  9  2  0  0  0
  8 10  1  0  0  0
 11 12  1  0  0  0
 12 13  1  0  0  0
 12 18  1  0  0  0
 13 14  1  0  0  0
 14 15  1  0  0  0
 15 16  2  0  0  0
 15 17  1  0  0  0
 18 19  1  0  0  0
 18 23  1  0  0  0
 19 20  1  0  0  0
 20 21  2  0  0  0
 20 22  1  0  0  0
 23 24  1  0  0  0
 23  5  1  0  0  0
 24 25  1  0  0  0
 25 26  2  0  0  0
 25 27  1  0  0  0
 28 29  1  0  0  0
M  END
>  <CHROM.0>
74.27416906,-58.61787502,-60.15080432

>  <CHROM.1>
-179.16192685,-166.01805293,117.79170454,-179.51704168,0.03472577,93.50054103
78.76767928,0.44778893,63.09509397,0.69702324,-76.30454857,0.54921743,32.83924955
-3.48757398,-64.24832504,-1.84636001,0.18961982,-2.31741071

>  <Energy>
34.202712665053326

>  <Genealogy>
CC(=O)OC[C@H]1O[C@@H](OC(C)=O)[C@H](N=C(O)CBr)[C@@H](OC(C)=O)[C@@H]1OC(C)=O (tautomer)
CC(=O)OC[C@H]1O[C@@H](OC(C)=O)[C@H](/N=C(/O)CBr)[C@@H](OC(C)=O)[C@@H]1OC(C)=O (cis-trans isomerization)
CC(=O)OC[C@H]1O[C@@H](OC(C)=O)[C@H](/N=C(/O)CBr)[C@@H](OC(C)=O)[C@@H]1OC(C)=O (3D coordinates assigned)
CC(=O)OC[C@H]1O[C@@H](OC(C)=O)[C@H](/N=C(/O)CBr)[C@@H](OC(C)=O)[C@@H]1OC(C)=O (nonaromatic ring conformer: 34.202712665053326 kcal/mol)

>  <Name>
198514

>  <RI>
1.63646e+07

>  <Rbt.Current_Directory>
/home/edward/Documentos/Virtual_Screening/rDock/N-terminal/3

>  <Rbt.Executable>
rbdock ($Id: //depot/dev/client3/rdock/2013.1/src/exe/rbdock.cxx#4 $)

>  <Rbt.Library>
libRbt.so (2013.1, Build901 2013/11/27)

>  <Rbt.Parameter_File>
/home/edward/anaconda3/envs/MD/share/rdock-2013.1-1/data/scripts/dock.prm

>  <Rbt.Receptor>
parameters.prm

>  <SCORE>
-8.1214

>  <SCORE.INTER>
-5.17449

>  <SCORE.INTER.CONST>
1

>  <SCORE.INTER.POLAR>
-1.62391

>  <SCORE.INTER.REPUL>
0

>  <SCORE.INTER.ROT>
11

>  <SCORE.INTER.VDW>
-16.0532

>  <SCORE.INTER.norm>
-0.184803

>  <SCORE.INTRA>
-3.04284

>  <SCORE.INTRA.DIHEDRAL>
-9.53656

>  <SCORE.INTRA.DIHEDRAL.0>
16.9565

>  <SCORE.INTRA.POLAR>
0

>  <SCORE.INTRA.POLAR.0>
0

>  <SCORE.INTRA.REPUL>
0

>  <SCORE.INTRA.REPUL.0>
0

>  <SCORE.INTRA.VDW>
1.72544

>  <SCORE.INTRA.VDW.0>
-6.73826

>  <SCORE.INTRA.norm>
-0.108673

>  <SCORE.RESTR>
0

>  <SCORE.RESTR.CAVITY>
0

>  <SCORE.RESTR.norm>
0

>  <SCORE.SYSTEM>
0.0959269

>  <SCORE.SYSTEM.CONST>
0

>  <SCORE.SYSTEM.DIHEDRAL>
0.969068

>  <SCORE.SYSTEM.POLAR>
-0.0124002

>  <SCORE.SYSTEM.REPUL>
0.0120183

>  <SCORE.SYSTEM.VDW>
-0.406538

>  <SCORE.SYSTEM.norm>
0.00342596

>  <SCORE.heavy>
28

>  <SCORE.norm>
-0.29005

>  <SMILES>
CC(=O)OC[C@H]1O[C@@H](OC(C)=O)[C@H](/N=C(/O)CBr)[C@@H](OC(C)=O)[C@@H]1OC(C)=O

>  <UniqueID>
237

$$$$
193108
  rDOCK(R)          3D
libRbt.so/2013.1/901 2013/11/27
 21 21  0  0  0  0  0  0  0  0999 V2000
   38.4327    3.1972  -60.3432 H   0  0  0  0  0  0
   37.6018    3.7717  -60.2646 O   0  0  0  0  0  0
   36.3923    3.3682  -60.8231 C   0  0  0  0  0  0
   36.3495    2.2502  -61.4939 N   0  0  0  0  0  0
   35.1857    1.6533  -62.1587 C   0  0  0  0  0  0
   35.5666    1.1840  -63.5839 C   0  0  0  0  0  0
   35.9213    2.2903  -64.3707 O   0  0  0  0  0  0
   35.1318    2.8916  -64.4047 H   0  0  0  0  0  0
   34.4661    0.5410  -64.2051 O   0  0  0  0  0  0
   34.1253   -0.6488  -63.5123 C   0  0  0  0  0  0
   33.0952   -1.4440  -64.3321 C   0  0  0  0  0  0
   32.7557   -2.6510  -63.7023 O   0  0  0  0  0  0
   32.0911   -3.1021  -64.2854 H   0  0  0  0  0  0
   33.6080   -0.3196  -62.0939 C   0  0  0  0  0  0
   32.4402    0.4601  -62.1742 O   0  0  0  0  0  0
   32.6647    1.2630  -62.7130 H   0  0  0  0  0  0
   34.7058    0.4485  -61.3314 C   0  0  0  0  0  0
   34.2228    0.8939  -60.0898 O   0  0  0  0  0  0
   34.1405    0.0913  -59.5111 H   0  0  0  0  0  0
   35.1830    4.2273  -60.5843 C   0  0  0  0  0  0
   34.7261    4.2160  -58.7019 Br  0  0  0  0  0  0
  1  2  1  0  0  0
  2  3  1  0  0  0
  3  4  2  0  0  0
  3 20  1  0  0  0
  4  5  1  0  0  0
  5  6  1  0  0  0
  6  7  1  0  0  0
  6  9  1  0  0  0
  7  8  1  0  0  0
  9 10  1  0  0  0
 10 11  1  0  0  0
 10 14  1  0  0  0
 11 12  1  0  0  0
 12 13  1  0  0  0
 14 15  1  0  0  0
 14 17  1  0  0  0
 15 16  1  0  0  0
 17 18  1  0  0  0
 17  5  1  0  0  0
 18 19  1  0  0  0
 20 21  1  0  0  0
M  END
>  <CHROM.0>
-178.72602231,63.59907129,62.65060367

>  <CHROM.1>
-2.23069578,-65.55863836,133.74338146,-60.09580594,178.30819639,179.85999734
-56.03656970,-166.12248871,34.74012881,1.89041377,-61.36413835,-1.25750419
-0.68490587,-2.19895359

>  <Energy>
27.76851455213619

>  <Genealogy>
OC[C@H]1O[C@@H](O)[C@H](N=C(O)CBr)[C@@H](O)[C@H]1O (tautomer)
OC[C@H]1O[C@@H](O)[C@H](/N=C(/O)CBr)[C@@H](O)[C@H]1O (cis-trans isomerization)
OC[C@H]1O[C@@H](O)[C@H](/N=C(/O)CBr)[C@@H](O)[C@H]1O (3D coordinates assigned)
OC[C@H]1O[C@@H](O)[C@H](/N=C(/O)CBr)[C@@H](O)[C@H]1O (nonaromatic ring conformer: 27.76851455213619 kcal/mol)

>  <Name>
193108

>  <RI>
1.63646e+07

>  <Rbt.Current_Directory>
/home/edward/Documentos/Virtual_Screening/rDock/N-terminal/3

>  <Rbt.Executable>
rbdock ($Id: //depot/dev/client3/rdock/2013.1/src/exe/rbdock.cxx#4 $)

>  <Rbt.Library>
libRbt.so (2013.1, Build901 2013/11/27)

>  <Rbt.Parameter_File>
/home/edward/anaconda3/envs/MD/share/rdock-2013.1-1/data/scripts/dock.prm

>  <Rbt.Receptor>
parameters.prm

>  <SCORE>
-23.6502

>  <SCORE.INTER>
-20.4676

>  <SCORE.INTER.CONST>
1

>  <SCORE.INTER.POLAR>
-3.73284

>  <SCORE.INTER.REPUL>
0.000890007

>  <SCORE.INTER.ROT>
3

>  <SCORE.INTER.VDW>
-16.1804

>  <SCORE.INTER.norm>
-1.27923

>  <SCORE.INTRA>
-2.87408

>  <SCORE.INTRA.DIHEDRAL>
-6.95992

>  <SCORE.INTRA.DIHEDRAL.0>
9.68437

>  <SCORE.INTRA.POLAR>
-0.00264292

>  <SCORE.INTRA.POLAR.0>
0

>  <SCORE.INTRA.REPUL>
0

>  <SCORE.INTRA.REPUL.0>
0

>  <SCORE.INTRA.VDW>
0.614863

>  <SCORE.INTRA.VDW.0>
-2.79195

>  <SCORE.INTRA.norm>
-0.17963

>  <SCORE.RESTR>
0

>  <SCORE.RESTR.CAVITY>
0

>  <SCORE.RESTR.norm>
0

>  <SCORE.SYSTEM>
-0.308549

>  <SCORE.SYSTEM.CONST>
0

>  <SCORE.SYSTEM.DIHEDRAL>
0.106354

>  <SCORE.SYSTEM.REPUL>
0.176614

>  <SCORE.SYSTEM.VDW>
-1.2448

>  <SCORE.SYSTEM.norm>
-0.0192843

>  <SCORE.heavy>
16

>  <SCORE.norm>
-1.47814

>  <SMILES>
OC[C@H]1O[C@@H](O)[C@H](/N=C(/O)CBr)[C@@H](O)[C@H]1O

>  <UniqueID>
239

$$$$
129618
  rDOCK(R)          3D
libRbt.so/2013.1/901 2013/11/27
 30 30  0  0  0  0  0  0  0  0999 V2000
   32.4828   -0.6824  -55.9908 H   0  0  0  0  0  0
   32.4251   -0.5120  -56.9885 O   0  0  0  0  0  0
   31.6357    0.5080  -57.5241 C   0  0  0  0  0  0
   30.7957    1.1767  -56.7219 C   0  0  0  0  0  0
   29.7415    2.4672  -57.2841 Cl  0  0  0  0  0  0
   31.7420    0.8198  -58.9250 N   0  0  0  0  0  0
   31.2577    1.6617  -59.3101 H   0  0  0  0  0  0
   32.6710    0.1108  -59.8108 C   0  0  0  0  0  0
   31.9508   -1.0548  -60.5113 C   0  0  0  0  0  0
   31.4804   -1.9688  -59.5235 O   0  0  0  0  0  0
   30.6980   -3.0856  -59.8338 C   0  0  0  0  0  0
   30.3912   -3.3467  -61.0290 O   0  0  0  0  0  0
   30.1802   -3.9478  -58.7337 C   0  0  0  0  0  0
   32.8498   -1.7312  -61.3713 O   0  0  0  0  0  0
   33.2405   -0.8888  -62.4425 C   0  0  0  0  0  0
   34.0533   -1.7264  -63.4407 C   0  0  0  0  0  0
   33.2118   -2.6600  -64.1166 O   0  0  0  0  0  0
   33.6589   -3.4987  -65.1435 C   0  0  0  0  0  0
   34.8722   -3.5097  -65.4872 O   0  0  0  0  0  0
   32.6979   -4.4305  -65.7992 C   0  0  0  0  0  0
   34.0638    0.3088  -61.9073 C   0  0  0  0  0  0
   34.4005    1.1961  -62.9766 O   0  0  0  0  0  0
   35.3307    2.2365  -62.8692 C   0  0  0  0  0  0
   36.0121    2.3929  -61.8198 O   0  0  0  0  0  0
   35.4746    3.2051  -63.9925 C   0  0  0  0  0  0
   33.2349    1.0805  -60.8626 C   0  0  0  0  0  0
   34.0538    2.0507  -60.2062 O   0  0  0  0  0  0
   33.5491    3.1403  -59.4882 C   0  0  0  0  0  0
   32.3088    3.2813  -59.3102 O   0  0  0  0  0  0
   34.4968    4.1108  -58.8712 C   0  0  0  0  0  0
  1  2  1  0  0  0
  2  3  1  0  0  0
  3  4  2  0  0  0
  3  6  1  0  0  0
  4  5  1  0  0  0
  6  7  1  0  0  0
  6  8  1  0  0  0
  8  9  1  0  0  0
  9 10  1  0  0  0
  9 14  1  0  0  0
 10 11  1  0  0  0
 11 12  2  0  0  0
 11 13  1  0  0  0
 14 15  1  0  0  0
 15 16  1  0  0  0
 15 21  1  0  0  0
 16 17  1  0  0  0
 17 18  1  0  0  0
 18 19  2  0  0  0
 18 20  1  0  0  0
 21 22  1  0  0  0
 21 26  1  0  0  0
 22 23  1  0  0  0
 23 24  2  0  0  0
 23 25  1  0  0  0
 26 27  1  0  0  0
 26  8  1  0  0  0
 27 28  1  0  0  0
 28 29  2  0  0  0
 28 30  1  0  0  0
M  END
>  <CHROM.0>
-74.49352484,-61.60983111,58.42373215

>  <CHROM.1>
-8.68618665,94.44300069,175.16430351,1.30632582,70.01995038,175.82522385
3.24753261,-168.14783343,5.22454264,-77.28439930,4.46251563,32.75479888,-0.03781012
-60.79370920,1.99145987,0.86398686,0.63059411

>  <Energy>
32.059379892314006

>  <Genealogy>
CC(=O)OC[C@H]1O[C@@H](OC(C)=O)[C@H](NC(O)=CCl)[C@@H](OC(C)=O)[C@@H]1OC(C)=O (tautomer)
CC(=O)OC[C@H]1O[C@@H](OC(C)=O)[C@H](N/C(O)=C/Cl)[C@@H](OC(C)=O)[C@@H]1OC(C)=O (cis-trans isomerization)
CC(=O)OC[C@H]1O[C@@H](OC(C)=O)[C@H](N/C(O)=C/Cl)[C@@H](OC(C)=O)[C@@H]1OC(C)=O (3D coordinates assigned)
CC(=O)OC[C@H]1O[C@@H](OC(C)=O)[C@H](N/C(O)=C/Cl)[C@@H](OC(C)=O)[C@@H]1OC(C)=O (nonaromatic ring conformer: 32.059379892314006 kcal/mol)

>  <Name>
129618

>  <RI>
1.63646e+07

>  <Rbt.Current_Directory>
/home/edward/Documentos/Virtual_Screening/rDock/N-terminal/3

>  <Rbt.Executable>
rbdock ($Id: //depot/dev/client3/rdock/2013.1/src/exe/rbdock.cxx#4 $)

>  <Rbt.Library>
libRbt.so (2013.1, Build901 2013/11/27)

>  <Rbt.Parameter_File>
/home/edward/anaconda3/envs/MD/share/rdock-2013.1-1/data/scripts/dock.prm

>  <Rbt.Receptor>
parameters.prm

>  <SCORE>
-8.72712

>  <SCORE.INTER>
-5.07234

>  <SCORE.INTER.CONST>
1

>  <SCORE.INTER.POLAR>
-0.245354

>  <SCORE.INTER.REPUL>
0

>  <SCORE.INTER.ROT>
10

>  <SCORE.INTER.VDW>
-19.6381

>  <SCORE.INTER.norm>
-0.181155

>  <SCORE.INTRA>
-3.53028

>  <SCORE.INTRA.DIHEDRAL>
-6.79109

>  <SCORE.INTRA.DIHEDRAL.0>
12.2413

>  <SCORE.INTRA.POLAR>
-0.250872

>  <SCORE.INTRA.POLAR.0>
0

>  <SCORE.INTRA.REPUL>
0

>  <SCORE.INTRA.REPUL.0>
0

>  <SCORE.INTRA.VDW>
0.718227

>  <SCORE.INTRA.VDW.0>
-4.74664

>  <SCORE.INTRA.norm>
-0.126081

>  <SCORE.RESTR>
0

>  <SCORE.RESTR.CAVITY>
0

>  <SCORE.RESTR.norm>
0

>  <SCORE.SYSTEM>
-0.124492

>  <SCORE.SYSTEM.CONST>
0

>  <SCORE.SYSTEM.DIHEDRAL>
1.01285

>  <SCORE.SYSTEM.VDW>
-0.630916

>  <SCORE.SYSTEM.norm>
-0.00444614

>  <SCORE.heavy>
28

>  <SCORE.norm>
-0.311683

>  <SMILES>
CC(=O)OC[C@H]1O[C@@H](OC(C)=O)[C@H](N/C(O)=C/Cl)[C@@H](OC(C)=O)[C@@H]1OC(C)=O

>  <UniqueID>
242

$$$$
127132
  rDOCK(R)          3D
libRbt.so/2013.1/901 2013/11/27
 28 28  0  0  0  0  0  0  0  0999 V2000
   29.9166   -3.0125  -61.8563 H   0  0  0  0  0  0
   30.5835   -2.2809  -61.6420 O   0  0  0  0  0  0
   31.6867   -2.0471  -62.4625 C   0  0  0  0  0  0
   31.8921   -2.7743  -63.5195 N   0  0  0  0  0  0
   31.0247   -3.8754  -63.9485 C   0  0  0  0  0  0
   31.8217   -5.2000  -63.9821 C   0  0  0  0  0  0
   30.9647   -6.3214  -64.2221 O   0  0  0  0  0  0
   29.9985   -6.7659  -63.3131 C   0  0  0  0  0  0
   29.9774   -6.3339  -62.1286 O   0  0  0  0  0  0
   29.0190   -7.8065  -63.7364 C   0  0  0  0  0  0
   32.8548   -5.1454  -64.9528 O   0  0  0  0  0  0
   32.3364   -4.9828  -66.2650 C   0  0  0  0  0  0
   33.5044   -5.0736  -67.2537 C   0  0  0  0  0  0
   33.8735   -6.4344  -67.4602 O   0  0  0  0  0  0
   34.4305   -7.2261  -66.4529 C   0  0  0  0  0  0
   34.7425   -6.7260  -65.3381 O   0  0  0  0  0  0
   34.6999   -8.6680  -66.7178 C   0  0  0  0  0  0
   31.5741   -3.6406  -66.4007 C   0  0  0  0  0  0
   30.9885   -3.5364  -67.7010 O   0  0  0  0  0  0
   30.4522   -2.3558  -68.2285 C   0  0  0  0  0  0
   30.5366   -1.2659  -67.6002 O   0  0  0  0  0  0
   29.7212   -2.4030  -69.5262 C   0  0  0  0  0  0
   30.4566   -3.5746  -65.3440 C   0  0  0  0  0  0
   29.8528   -2.2782  -65.3358 O   0  0  0  0  0  0
   28.7563   -1.9333  -64.5374 C   0  0  0  0  0  0
   28.2415   -2.7697  -63.7466 O   0  0  0  0  0  0
   28.2307   -0.5393  -64.5788 C   0  0  0  0  0  0
   32.6591   -0.9678  -62.1117 C   0  0  0  0  0  0
  1  2  1  0  0  0
  2  3  1  0  0  0
  3  4  2  0  0  0
  3 28  1  0  0  0
  4  5  1  0  0  0
  5  6  1  0  0  0
  6  7  1  0  0  0
  6 11  1  0  0  0
  7  8  1  0  0  0
  8  9  2  0  0  0
  8 10  1  0  0  0
 11 12  1  0  0  0
 12 13  1  0  0  0
 12 18  1  0  0  0
 13 14  1  0  0  0
 14 15  1  0  0  0
 15 16  2  0  0  0
 15 17  1  0  0  0
 18 19  1  0  0  0
 18 23  1  0  0  0
 19 20  1  0  0  0
 20 21  2  0  0  0
 20 22  1  0  0  0
 23 24  1  0  0  0
 23  5  1  0  0  0
 24 25  1  0  0  0
 25 26  2  0  0  0
 25 27  1  0  0  0
M  END
>  <CHROM.0>
-174.19535990,59.50196979,-60.45497154

>  <CHROM.1>
-0.63610683,-119.70280908,-67.18788708,-11.87620649,78.47683261,-66.45350508
-6.42076452,-167.52484925,4.77471679,-62.39961365,1.02340764,31.28513575
-4.18665494,-65.12081743,3.04952929,0.95264762,-1.11302481

>  <Energy>
32.504354080973

>  <Genealogy>
CC(=O)OC[C@H]1OC(OC(C)=O)[C@@H](N=C(C)O)[C@@H](OC(C)=O)[C@@H]1OC(C)=O (tautomer)
CC(=O)OC[C@H]1O[C@H](OC(C)=O)[C@@H](N=C(C)O)[C@@H](OC(C)=O)[C@@H]1OC(C)=O (chirality)
CC(=O)OC[C@H]1O[C@H](OC(C)=O)[C@@H](/N=C(/C)O)[C@@H](OC(C)=O)[C@@H]1OC(C)=O (cis-trans isomerization)
CC(=O)OC[C@H]1O[C@H](OC(C)=O)[C@@H](/N=C(/C)O)[C@@H](OC(C)=O)[C@@H]1OC(C)=O (3D coordinates assigned)
CC(=O)OC[C@H]1O[C@H](OC(C)=O)[C@@H](/N=C(/C)O)[C@@H](OC(C)=O)[C@@H]1OC(C)=O (nonaromatic ring conformer: 32.504354080973 kcal/mol)

>  <Name>
127132

>  <RI>
1.63646e+07

>  <Rbt.Current_Directory>
/home/edward/Documentos/Virtual_Screening/rDock/N-terminal/3

>  <Rbt.Executable>
rbdock ($Id: //depot/dev/client3/rdock/2013.1/src/exe/rbdock.cxx#4 $)

>  <Rbt.Library>
libRbt.so (2013.1, Build901 2013/11/27)

>  <Rbt.Parameter_File>
/home/edward/anaconda3/envs/MD/share/rdock-2013.1-1/data/scripts/dock.prm

>  <Rbt.Receptor>
parameters.prm

>  <SCORE>
-7.73391

>  <SCORE.INTER>
-4.29725

>  <SCORE.INTER.CONST>
1

>  <SCORE.INTER.POLAR>
-1.97714

>  <SCORE.INTER.REPUL>
0

>  <SCORE.INTER.ROT>
10

>  <SCORE.INTER.VDW>
-12.975

>  <SCORE.INTER.norm>
-0.159157

>  <SCORE.INTRA>
-3.28803

>  <SCORE.INTRA.DIHEDRAL>
-7.56146

>  <SCORE.INTRA.DIHEDRAL.0>
11.2697

>  <SCORE.INTRA.POLAR>
0

>  <SCORE.INTRA.POLAR.0>
0

>  <SCORE.INTRA.REPUL>
-0.0264729

>  <SCORE.INTRA.REPUL.0>
0.0264729

>  <SCORE.INTRA.VDW>
0.625069

>  <SCORE.INTRA.VDW.0>
-4.57022

>  <SCORE.INTRA.norm>
-0.121779

>  <SCORE.RESTR>
0

>  <SCORE.RESTR.CAVITY>
0

>  <SCORE.RESTR.norm>
0

>  <SCORE.SYSTEM>
-0.148635

>  <SCORE.SYSTEM.CONST>
0

>  <SCORE.SYSTEM.DIHEDRAL>
0.167242

>  <SCORE.SYSTEM.REPUL>
0.164009

>  <SCORE.SYSTEM.VDW>
-1.0523

>  <SCORE.SYSTEM.norm>
-0.00550499

>  <SCORE.heavy>
27

>  <SCORE.norm>
-0.286441

>  <SMILES>
CC(=O)OC[C@H]1O[C@H](OC(C)=O)[C@@H](/N=C(/C)O)[C@@H](OC(C)=O)[C@@H]1OC(C)=O

>  <UniqueID>
245

$$$$
122253
  rDOCK(R)          3D
libRbt.so/2013.1/901 2013/11/27
 26 27  0  0  0  0  0  0  0  0999 V2000
   34.9342    5.6250  -59.2503 C   0  0  0  0  0  0
   34.9661    4.2349  -59.7953 C   0  0  0  0  0  0
   34.8058    3.2570  -59.0165 O   0  0  0  0  0  0
   35.2102    4.0206  -61.1920 N   0  0  0  0  0  0
   35.2045    2.6822  -61.7950 C   0  0  0  0  0  0
   33.9945    1.8724  -61.2760 C   0  0  0  0  0  0
   32.7973    2.6073  -61.4762 O   0  0  0  0  0  0
   31.6797    1.8470  -61.0704 C   0  0  0  0  0  0
   30.4367    2.5144  -61.5803 C   0  0  0  0  0  0
   29.8458    3.5596  -60.8507 C   0  0  0  0  0  0
   28.6604    4.1492  -61.3010 C   0  0  0  0  0  0
   28.0507    3.6912  -62.4718 C   0  0  0  0  0  0
   28.6218    2.6387  -63.1910 C   0  0  0  0  0  0
   29.8073    2.0461  -62.7444 C   0  0  0  0  0  0
   33.9297    0.5924  -61.8936 O   0  0  0  0  0  0
   33.7638    0.6993  -63.2992 C   0  0  0  0  0  0
   33.4973   -0.6952  -63.8887 C   0  0  0  0  0  0
   32.4171   -1.3246  -63.2509 O   0  0  0  0  0  0
   34.9907    1.3796  -63.9473 C   0  0  0  0  0  0
   36.1533    0.6189  -63.7229 O   0  0  0  0  0  0
   35.1692    2.7768  -63.3365 C   0  0  0  0  0  0
   36.3617    3.3430  -63.8180 O   0  0  0  0  0  0
   35.3790    4.8573  -61.7960 H   0  0  0  0  0  0
   32.6217   -1.3333  -62.2792 H   0  0  0  0  0  0
   36.0207   -0.2592  -64.1664 H   0  0  0  0  0  0
   36.3596    4.2992  -63.5501 H   0  0  0  0  0  0
  1  2  1  0  0  0
  2  3  2  0  0  0
  2  4  1  0  0  0
  4  5  1  0  0  0
  4 23  1  0  0  0
  5  6  1  0  0  0
  6  7  1  0  0  0
  6 15  1  0  0  0
  7  8  1  0  0  0
  8  9  1  0  0  0
  9 10  2  0  0  0
 10 11  1  0  0  0
 11 12  2  0  0  0
 12 13  1  0  0  0
 13 14  2  0  0  0
 14  9  1  0  0  0
 15 16  1  0  0  0
 16 17  1  0  0  0
 16 19  1  0  0  0
 17 18  1  0  0  0
 18 24  1  0  0  0
 19 20  1  0  0  0
 19 21  1  0  0  0
 20 25  1  0  0  0
 21 22  1  0  0  0
 21  5  1  0  0  0
 22 26  1  0  0  0
M  END
>  <CHROM.0>
-174.32789695,-65.04190560,-64.28461368

>  <CHROM.1>
44.51752412,176.89851364,-167.20837482,-84.48781099,54.06887801,-55.13605424
62.54971031,-69.61884982,33.09762702,2.32272953,-62.02181486,-0.11776661
-0.01964917,0.67874356

>  <Energy>
41.67887685826665

>  <Genealogy>
CC(=O)N[C@H]1[C@@H](OCc2ccccc2)O[C@H](CO)[C@H](O)[C@@H]1O (3D coordinates assigned)
CC(=O)N[C@H]1[C@@H](OCc2ccccc2)O[C@H](CO)[C@H](O)[C@@H]1O (nonaromatic ring conformer: 41.67887685826665 kcal/mol)

>  <Name>
122253

>  <RI>
1.63646e+07

>  <Rbt.Current_Directory>
/home/edward/Documentos/Virtual_Screening/rDock/N-terminal/3

>  <Rbt.Executable>
rbdock ($Id: //depot/dev/client3/rdock/2013.1/src/exe/rbdock.cxx#4 $)

>  <Rbt.Library>
libRbt.so (2013.1, Build901 2013/11/27)

>  <Rbt.Parameter_File>
/home/edward/anaconda3/envs/MD/share/rdock-2013.1-1/data/scripts/dock.prm

>  <Rbt.Receptor>
parameters.prm

>  <SCORE>
-20.0715

>  <SCORE.INTER>
-16.0426

>  <SCORE.INTER.CONST>
1

>  <SCORE.INTER.POLAR>
-3.64241

>  <SCORE.INTER.REPUL>
0.315701

>  <SCORE.INTER.ROT>
5

>  <SCORE.INTER.VDW>
-15.6369

>  <SCORE.INTER.norm>
-0.729211

>  <SCORE.INTRA>
-3.11094

>  <SCORE.INTRA.DIHEDRAL>
-9.50644

>  <SCORE.INTRA.DIHEDRAL.0>
13.0127

>  <SCORE.INTRA.POLAR>
-0.0439667

>  <SCORE.INTRA.POLAR.0>
0

>  <SCORE.INTRA.REPUL>
0

>  <SCORE.INTRA.REPUL.0>
0

>  <SCORE.INTRA.VDW>
1.79176

>  <SCORE.INTRA.VDW.0>
-2.71892

>  <SCORE.INTRA.norm>
-0.141406

>  <SCORE.RESTR>
0

>  <SCORE.RESTR.CAVITY>
0

>  <SCORE.RESTR.norm>
0

>  <SCORE.SYSTEM>
-0.917947

>  <SCORE.SYSTEM.CONST>
0

>  <SCORE.SYSTEM.DIHEDRAL>
0.372536

>  <SCORE.SYSTEM.REPUL>
0.0242746

>  <SCORE.SYSTEM.VDW>
-1.22559

>  <SCORE.SYSTEM.norm>
-0.0417249

>  <SCORE.heavy>
22

>  <SCORE.norm>
-0.912342

>  <SMILES>
CC(=O)N[C@H]1[C@@H](OCc2ccccc2)O[C@H](CO)[C@H](O)[C@@H]1O

>  <UniqueID>
247

$$$$
118328
  rDOCK(R)          3D
libRbt.so/2013.1/901 2013/11/27
 31 33  0  0  0  0  0  0  0  0999 V2000
   29.3007   -0.1544  -62.3171 C   0  0  0  0  0  0
   30.6984   -0.2243  -61.7942 C   0  0  0  0  0  0
   30.9549   -0.9780  -60.8168 O   0  0  0  0  0  0
   31.7204    0.6087  -62.3624 N   0  0  0  0  0  0
   33.0886    0.6684  -61.8380 C   0  0  0  0  0  0
   33.3415    2.0106  -61.1129 C   0  0  0  0  0  0
   32.4719    2.1150  -59.9814 O   0  0  0  0  0  0
   32.3104    3.2329  -59.1440 C   0  0  0  0  0  0
   31.0514    3.7548  -58.7887 C   0  0  0  0  0  0
   30.9555    4.8566  -57.9344 C   0  0  0  0  0  0
   32.1165    5.4644  -57.4210 C   0  0  0  0  0  0
   32.0769    6.5733  -56.5456 C   0  0  0  0  0  0
   30.7780    7.1866  -56.0909 C   0  0  0  0  0  0
   33.2876    7.1123  -56.0893 C   0  0  0  0  0  0
   34.4931    6.5445  -56.5072 C   0  0  0  0  0  0
   35.5856    7.0220  -56.1033 O   0  0  0  0  0  0
   34.4970    5.5017  -57.3290 O   0  0  0  0  0  0
   33.3804    4.9491  -57.7926 C   0  0  0  0  0  0
   33.4653    3.8490  -58.6512 C   0  0  0  0  0  0
   34.6744    2.0683  -60.6260 O   0  0  0  0  0  0
   35.6478    2.0111  -61.6622 C   0  0  0  0  0  0
   35.6741    3.3077  -62.5063 C   0  0  0  0  0  0
   36.7822    3.3109  -63.3688 O   0  0  0  0  0  0
   35.5250    0.7003  -62.4824 C   0  0  0  0  0  0
   36.4186    0.6892  -63.5653 O   0  0  0  0  0  0
   34.0899    0.5056  -62.9952 C   0  0  0  0  0  0
   33.9459   -0.7513  -63.6109 O   0  0  0  0  0  0
   31.4593    1.2533  -63.1431 H   0  0  0  0  0  0
   36.7820    4.1809  -63.8465 H   0  0  0  0  0  0
   36.3284   -0.1985  -64.0007 H   0  0  0  0  0  0
   34.5759   -0.7888  -64.3777 H   0  0  0  0  0  0
  1  2  1  0  0  0
  2  3  2  0  0  0
  2  4  1  0  0  0
  4  5  1  0  0  0
  4 28  1  0  0  0
  5  6  1  0  0  0
  6  7  1  0  0  0
  6 20  1  0  0  0
  7  8  1  0  0  0
  8  9  2  0  0  0
  9 10  1  0  0  0
 10 11  2  0  0  0
 11 12  1  0  0  0
 12 13  1  0  0  0
 12 14  2  0  0  0
 14 15  1  0  0  0
 15 16  2  0  0  0
 15 17  1  0  0  0
 17 18  1  0  0  0
 18 19  2  0  0  0
 18 11  1  0  0  0
 19  8  1  0  0  0
 20 21  1  0  0  0
 21 22  1  0  0  0
 21 24  1  0  0  0
 22 23  1  0  0  0
 23 29  1  0  0  0
 24 25  1  0  0  0
 24 26  1  0  0  0
 25 30  1  0  0  0
 26 27  1  0  0  0
 26  5  1  0  0  0
 27 31  1  0  0  0
M  END
>  <CHROM.0>
71.19847679,62.23401243,62.21187274

>  <CHROM.1>
-107.87076189,-173.68524755,131.25580767,170.24181449,-176.80497166,176.11056236
176.99219782,33.33969667,2.94993974,-60.09699794,1.49410929,-0.33049217,-2.37182685

>  <Energy>
57.49542930743766

>  <Genealogy>
CC(=O)N[C@H]1[C@H](O)[C@@H](O)[C@@H](CO)O[C@@H]1Oc1ccc2c(C)cc(=O)oc2c1 (chirality)
CC(=O)N[C@H]1[C@H](O)[C@@H](O)[C@@H](CO)O[C@@H]1Oc1ccc2c(C)cc(=O)oc2c1 (3D coordinates assigned)
CC(=O)N[C@H]1[C@H](O)[C@@H](O)[C@@H](CO)O[C@@H]1Oc1ccc2c(C)cc(=O)oc2c1 (nonaromatic ring conformer: 57.49542930743766 kcal/mol)

>  <Name>
118328

>  <RI>
1.63646e+07

>  <Rbt.Current_Directory>
/home/edward/Documentos/Virtual_Screening/rDock/N-terminal/3

>  <Rbt.Executable>
rbdock ($Id: //depot/dev/client3/rdock/2013.1/src/exe/rbdock.cxx#4 $)

>  <Rbt.Library>
libRbt.so (2013.1, Build901 2013/11/27)

>  <Rbt.Parameter_File>
/home/edward/anaconda3/envs/MD/share/rdock-2013.1-1/data/scripts/dock.prm

>  <Rbt.Receptor>
parameters.prm

>  <SCORE>
-23.9415

>  <SCORE.INTER>
-23.0071

>  <SCORE.INTER.CONST>
1

>  <SCORE.INTER.POLAR>
-4.56575

>  <SCORE.INTER.REPUL>
0

>  <SCORE.INTER.ROT>
4

>  <SCORE.INTER.VDW>
-16.8835

>  <SCORE.INTER.norm>
-0.852114

>  <SCORE.INTRA>
-1.65518

>  <SCORE.INTRA.DIHEDRAL>
-7.77637

>  <SCORE.INTRA.DIHEDRAL.0>
12.5415

>  <SCORE.INTRA.POLAR>
0

>  <SCORE.INTRA.POLAR.0>
0

>  <SCORE.INTRA.REPUL>
0.00179055

>  <SCORE.INTRA.REPUL.0>
0

>  <SCORE.INTRA.VDW>
2.22406

>  <SCORE.INTRA.VDW.0>
-3.83973

>  <SCORE.INTRA.norm>
-0.0613029

>  <SCORE.RESTR>
0

>  <SCORE.RESTR.CAVITY>
0

>  <SCORE.RESTR.norm>
0

>  <SCORE.SYSTEM>
0.720804

>  <SCORE.SYSTEM.CONST>
0

>  <SCORE.SYSTEM.DIHEDRAL>
0.650041

>  <SCORE.SYSTEM.POLAR>
-0.0223516

>  <SCORE.SYSTEM.REPUL>
0.143167

>  <SCORE.SYSTEM.VDW>
-0.244056

>  <SCORE.SYSTEM.norm>
0.0266964

>  <SCORE.heavy>
27

>  <SCORE.norm>
-0.886721

>  <SMILES>
CC(=O)N[C@H]1[C@H](O)[C@@H](O)[C@@H](CO)O[C@@H]1Oc1ccc2c(C)cc(=O)oc2c1

>  <UniqueID>
251

$$$$
112106
  rDOCK(R)          3D
libRbt.so/2013.1/901 2013/11/27
 29 31  0  0  0  0  0  0  0  0999 V2000
   32.7065   -2.6193  -64.6276 C   0  0  0  0  0  0
   32.7499   -1.2151  -64.1200 C   0  0  0  0  0  0
   31.6724   -0.6187  -63.8500 O   0  0  0  0  0  0
   34.0109   -0.5468  -63.9734 N   0  0  0  0  0  0
   34.1437    0.7575  -63.3164 C   0  0  0  0  0  0
   34.3671    0.5644  -61.8067 C   0  0  0  0  0  0
   33.2366   -0.1123  -61.2599 O   0  0  0  0  0  0
   31.9169    0.3725  -61.2703 C   0  0  0  0  0  0
   31.6316    1.7436  -61.4278 C   0  0  0  0  0  0
   30.3120    2.1983  -61.4364 C   0  0  0  0  0  0
   29.2557    1.3003  -61.2862 C   0  0  0  0  0  0
   29.5121   -0.0678  -61.1243 C   0  0  0  0  0  0
   28.4511   -0.9738  -60.9691 C   0  0  0  0  0  0
   28.7091   -2.3366  -60.8059 C   0  0  0  0  0  0
   30.0237   -2.8061  -60.7961 C   0  0  0  0  0  0
   31.0904   -1.9166  -60.9499 C   0  0  0  0  0  0
   30.8505   -0.5392  -61.1160 C   0  0  0  0  0  0
   34.5035    1.8239  -61.1707 O   0  0  0  0  0  0
   35.6868    2.4760  -61.6025 C   0  0  0  0  0  0
   35.8962    3.7310  -60.7401 C   0  0  0  0  0  0
   34.7405    4.5260  -60.7082 O   0  0  0  0  0  0
   35.5939    2.8224  -63.1103 C   0  0  0  0  0  0
   36.7960    3.4002  -63.5538 O   0  0  0  0  0  0
   35.3329    1.5351  -63.9147 C   0  0  0  0  0  0
   35.1117    1.8274  -65.2727 O   0  0  0  0  0  0
   34.8809   -1.0807  -64.1997 H   0  0  0  0  0  0
   34.7281    5.0473  -61.5530 H   0  0  0  0  0  0
   36.7279    4.3771  -63.3916 H   0  0  0  0  0  0
   34.3826    2.4998  -65.3226 H   0  0  0  0  0  0
  1  2  1  0  0  0
  2  3  2  0  0  0
  2  4  1  0  0  0
  4  5  1  0  0  0
  4 26  1  0  0  0
  5  6  1  0  0  0
  6  7  1  0  0  0
  6 18  1  0  0  0
  7  8  1  0  0  0
  8  9  2  0  0  0
  9 10  1  0  0  0
 10 11  2  0  0  0
 11 12  1  0  0  0
 12 13  2  0  0  0
 13 14  1  0  0  0
 14 15  2  0  0  0
 15 16  1  0  0  0
 16 17  2  0  0  0
 17  8  1  0  0  0
 17 12  1  0  0  0
 18 19  1  0  0  0
 19 20  1  0  0  0
 19 22  1  0  0  0
 20 21  1  0  0  0
 21 27  1  0  0  0
 22 23  1  0  0  0
 22 24  1  0  0  0
 23 28  1  0  0  0
 24 25  1  0  0  0
 24  5  1  0  0  0
 25 29  1  0  0  0
M  END
>  <CHROM.0>
71.88366197,-58.24239686,62.88402679

>  <CHROM.1>
88.93270111,-61.24643658,-21.05331117,-51.55807664,-79.98901606,-87.62199606
69.28997677,32.87323299,0.69722625,-62.22754122,-2.80574961,0.55630339,0.68988593

>  <Energy>
47.44340627773158

>  <Genealogy>
CC(=O)N[C@H]1[C@H](Oc2cccc3ccccc23)O[C@H](CO)[C@@H](O)[C@@H]1O (3D coordinates assigned)
CC(=O)N[C@H]1[C@H](Oc2cccc3ccccc23)O[C@H](CO)[C@@H](O)[C@@H]1O (nonaromatic ring conformer: 47.44340627773158 kcal/mol)

>  <Name>
112106

>  <RI>
1.63646e+07

>  <Rbt.Current_Directory>
/home/edward/Documentos/Virtual_Screening/rDock/N-terminal/3

>  <Rbt.Executable>
rbdock ($Id: //depot/dev/client3/rdock/2013.1/src/exe/rbdock.cxx#4 $)

>  <Rbt.Library>
libRbt.so (2013.1, Build901 2013/11/27)

>  <Rbt.Parameter_File>
/home/edward/anaconda3/envs/MD/share/rdock-2013.1-1/data/scripts/dock.prm

>  <Rbt.Receptor>
parameters.prm

>  <SCORE>
-20.5492

>  <SCORE.INTER>
-19.5345

>  <SCORE.INTER.CONST>
1

>  <SCORE.INTER.POLAR>
-4.0423

>  <SCORE.INTER.REPUL>
0.276785

>  <SCORE.INTER.ROT>
4

>  <SCORE.INTER.VDW>
-16.5746

>  <SCORE.INTER.norm>
-0.78138

>  <SCORE.INTRA>
-0.940894

>  <SCORE.INTRA.DIHEDRAL>
0.170156

>  <SCORE.INTRA.DIHEDRAL.0>
6.99285

>  <SCORE.INTRA.POLAR>
0

>  <SCORE.INTRA.POLAR.0>
0

>  <SCORE.INTRA.REPUL>
0

>  <SCORE.INTRA.REPUL.0>
0

>  <SCORE.INTRA.VDW>
-1.02597

>  <SCORE.INTRA.VDW.0>
-2.52615

>  <SCORE.INTRA.norm>
-0.0376358

>  <SCORE.RESTR>
0

>  <SCORE.RESTR.CAVITY>
0

>  <SCORE.RESTR.norm>
0

>  <SCORE.SYSTEM>
-0.0737775

>  <SCORE.SYSTEM.CONST>
0

>  <SCORE.SYSTEM.DIHEDRAL>
0.730905

>  <SCORE.SYSTEM.POLAR>
-0.020021

>  <SCORE.SYSTEM.REPUL>
0.00506489

>  <SCORE.SYSTEM.VDW>
-0.396483

>  <SCORE.SYSTEM.norm>
-0.0029511

>  <SCORE.heavy>
25

>  <SCORE.norm>
-0.821967

>  <SMILES>
CC(=O)N[C@H]1[C@H](Oc2cccc3ccccc23)O[C@H](CO)[C@@H](O)[C@@H]1O

>  <UniqueID>
253

$$$$
102416
  rDOCK(R)          3D
libRbt.so/2013.1/901 2013/11/27
 28 29  0  0  0  0  0  0  0  0999 V2000
   31.8484   -2.1409  -64.0319 C   0  0  0  0  0  0
   32.2256   -0.7546  -63.6232 C   0  0  0  0  0  0
   31.3329    0.1308  -63.5317 O   0  0  0  0  0  0
   33.5906   -0.4511  -63.3017 N   0  0  0  0  0  0
   34.0117    0.8543  -62.7829 C   0  0  0  0  0  0
   34.5945    0.6960  -61.3674 C   0  0  0  0  0  0
   33.5837    0.1673  -60.5104 O   0  0  0  0  0  0
   32.6488    0.9367  -59.8014 C   0  0  0  0  0  0
   32.2819    2.2372  -60.1951 C   0  0  0  0  0  0
   31.3445    2.9610  -59.4522 C   0  0  0  0  0  0
   30.7570    2.4020  -58.3030 C   0  0  0  0  0  0
   29.7916    3.1441  -57.5355 N   0  3  0  0  0  0
   29.4578    4.2980  -57.8764 O   0  0  0  0  0  0
   29.2192    2.5936  -56.4115 O   0  5  0  0  0  0
   31.1285    1.1036  -57.9140 C   0  0  0  0  0  0
   32.0655    0.3813  -58.6581 C   0  0  0  0  0  0
   35.0063    1.9575  -60.8683 O   0  0  0  0  0  0
   36.1058    2.4575  -61.6113 C   0  0  0  0  0  0
   36.6092    3.7295  -60.9097 C   0  0  0  0  0  0
   37.3114    3.4203  -59.7357 O   0  0  0  0  0  0
   35.6689    2.7495  -63.0723 C   0  0  0  0  0  0
   36.7385    3.2317  -63.8478 O   0  0  0  0  0  0
   35.0767    1.4737  -63.7096 C   0  0  0  0  0  0
   34.5408    1.7486  -64.9804 O   0  0  0  0  0  0
   34.2823   -1.2353  -63.3016 H   0  0  0  0  0  0
   38.1590    2.9865  -60.0169 H   0  0  0  0  0  0
   36.8363    4.2012  -63.6562 H   0  0  0  0  0  0
   35.2639    2.1437  -65.5345 H   0  0  0  0  0  0
  1  2  1  0  0  0
  2  3  2  0  0  0
  2  4  1  0  0  0
  4  5  1  0  0  0
  4 25  1  0  0  0
  5  6  1  0  0  0
  6  7  1  0  0  0
  6 17  1  0  0  0
  7  8  1  0  0  0
  8  9  2  0  0  0
  9 10  1  0  0  0
 10 11  2  0  0  0
 11 12  1  0  0  0
 11 15  1  0  0  0
 12 13  2  0  0  0
 12 14  1  0  0  0
 15 16  2  0  0  0
 16  8  1  0  0  0
 17 18  1  0  0  0
 18 19  1  0  0  0
 18 21  1  0  0  0
 19 20  1  0  0  0
 20 26  1  0  0  0
 21 22  1  0  0  0
 21 23  1  0  0  0
 22 27  1  0  0  0
 23 24  1  0  0  0
 23  5  1  0  0  0
 24 28  1  0  0  0
M  END
>  <CHROM.0>
-177.54172771,-59.40013039,-56.90983999

>  <CHROM.1>
117.04830375,-87.90137769,23.31663006,74.32964093,69.30104368,-81.06360918
-179.99360096,33.25879788,1.67092396,-61.04216441,0.74125034,-0.44661052
-2.19098343

>  <Energy>
39.90982295271113

>  <Genealogy>
CC(=O)N[C@H]1[C@H](Oc2ccc([N+](=O)[O-])cc2)O[C@H](CO)[C@@H](O)[C@@H]1O (3D coordinates assigned)
CC(=O)N[C@H]1[C@H](Oc2ccc([N+](=O)[O-])cc2)O[C@H](CO)[C@@H](O)[C@@H]1O (nonaromatic ring conformer: 39.90982295271113 kcal/mol)

>  <Name>
102416

>  <RI>
1.63646e+07

>  <Rbt.Current_Directory>
/home/edward/Documentos/Virtual_Screening/rDock/N-terminal/3

>  <Rbt.Executable>
rbdock ($Id: //depot/dev/client3/rdock/2013.1/src/exe/rbdock.cxx#4 $)

>  <Rbt.Library>
libRbt.so (2013.1, Build901 2013/11/27)

>  <Rbt.Parameter_File>
/home/edward/anaconda3/envs/MD/share/rdock-2013.1-1/data/scripts/dock.prm

>  <Rbt.Receptor>
parameters.prm

>  <SCORE>
-20.8202

>  <SCORE.INTER>
-22.6106

>  <SCORE.INTER.CONST>
1

>  <SCORE.INTER.POLAR>
-4.08861

>  <SCORE.INTER.REPUL>
0.211032

>  <SCORE.INTER.ROT>
4

>  <SCORE.INTER.VDW>
-19.1645

>  <SCORE.INTER.norm>
-0.942109

>  <SCORE.INTRA>
2.7162

>  <SCORE.INTRA.DIHEDRAL>
5.88674

>  <SCORE.INTRA.DIHEDRAL.0>
2.44558

>  <SCORE.INTRA.POLAR>
-0.000893914

>  <SCORE.INTRA.POLAR.0>
0

>  <SCORE.INTRA.REPUL>
0

>  <SCORE.INTRA.REPUL.0>
0

>  <SCORE.INTRA.VDW>
-0.224131

>  <SCORE.INTRA.VDW.0>
-2.02212

>  <SCORE.INTRA.norm>
0.113175

>  <SCORE.RESTR>
0

>  <SCORE.RESTR.CAVITY>
0

>  <SCORE.RESTR.norm>
0

>  <SCORE.SYSTEM>
-0.925803

>  <SCORE.SYSTEM.CONST>
0

>  <SCORE.SYSTEM.DIHEDRAL>
0.0785761

>  <SCORE.SYSTEM.REPUL>
0.0332513

>  <SCORE.SYSTEM.VDW>
-1.13135

>  <SCORE.SYSTEM.norm>
-0.0385751

>  <SCORE.heavy>
24

>  <SCORE.norm>
-0.867509

>  <SMILES>
CC(=O)N[C@H]1[C@H](Oc2ccc([N+](=O)[O-])cc2)O[C@H](CO)[C@@H](O)[C@@H]1O

>  <UniqueID>
257

$$$$
99461
  rDOCK(R)          3D
libRbt.so/2013.1/901 2013/11/27
 28 28  0  0  0  0  0  0  0  0999 V2000
   28.4596   -6.4186  -63.0035 H   0  0  0  0  0  0
   28.7079   -5.4419  -62.9015 O   0  0  0  0  0  0
   30.0146   -4.9966  -63.0853 C   0  0  0  0  0  0
   30.2565   -3.7237  -62.9525 N   0  0  0  0  0  0
   31.5482   -3.0472  -63.1128 C   0  0  0  0  0  0
   31.5679   -2.2781  -64.4477 C   0  0  0  0  0  0
   31.4253   -3.2030  -65.5222 O   0  0  0  0  0  0
   32.3212   -4.2514  -65.7506 C   0  0  0  0  0  0
   33.2518   -4.4945  -64.9350 O   0  0  0  0  0  0
   32.2044   -5.0561  -66.9997 C   0  0  0  0  0  0
   32.7955   -1.5871  -64.5992 O   0  0  0  0  0  0
   32.9192   -0.5710  -63.6189 C   0  0  0  0  0  0
   34.1578    0.2682  -63.9508 C   0  0  0  0  0  0
   34.3299    1.3017  -62.9849 O   0  0  0  0  0  0
   35.4070    2.1909  -63.0155 C   0  0  0  0  0  0
   36.2683    2.1288  -63.9345 O   0  0  0  0  0  0
   35.5060    3.2587  -61.9803 C   0  0  0  0  0  0
   33.0043   -1.1988  -62.2052 C   0  0  0  0  0  0
   33.0642   -0.1784  -61.2043 O   0  0  0  0  0  0
   32.0981    0.8225  -61.0460 C   0  0  0  0  0  0
   31.0639    0.8474  -61.7670 O   0  0  0  0  0  0
   32.3168    1.8988  -60.0386 C   0  0  0  0  0  0
   31.7580   -2.0590  -61.9495 C   0  0  0  0  0  0
   31.9387   -2.7709  -60.7228 O   0  0  0  0  0  0
   30.8857   -3.2264  -59.9214 C   0  0  0  0  0  0
   31.1025   -3.9714  -58.9274 O   0  0  0  0  0  0
   29.4839   -2.8737  -60.2844 C   0  0  0  0  0  0
   31.0967   -5.9944  -63.3983 C   0  0  0  0  0  0
  1  2  1  0  0  0
  2  3  1  0  0  0
  3  4  2  0  0  0
  3 28  1  0  0  0
  4  5  1  0  0  0
  5  6  1  0  0  0
  6  7  1  0  0  0
  6 11  1  0  0  0
  7  8  1  0  0  0
  8  9  2  0  0  0
  8 10  1  0  0  0
 11 12  1  0  0  0
 12 13  1  0  0  0
 12 18  1  0  0  0
 13 14  1  0  0  0
 14 15  1  0  0  0
 15 16  2  0  0  0
 15 17  1  0  0  0
 18 19  1  0  0  0
 18 23  1  0  0  0
 19 20  1  0  0  0
 20 21  2  0  0  0
 20 22  1  0  0  0
 23 24  1  0  0  0
 23  5  1  0  0  0
 24 25  1  0  0  0
 25 26  2  0  0  0
 25 27  1  0  0  0
M  END
>  <CHROM.0>
-178.32081716,60.90714918,63.98698630

>  <CHROM.1>
179.23156262,105.37119322,-59.33808671,5.97695612,-179.63585241,177.78284112
1.58920852,57.08168526,2.90056448,-84.70399960,172.29021430,32.24063871,-1.79108513
-62.78489248,2.45803990,-0.88704616,-2.23143640

>  <Energy>
33.25353098664272

>  <Genealogy>
CC(=O)OC[C@H]1O[C@@H](OC(C)=O)[C@H](N=C(C)O)[C@@H](OC(C)=O)[C@@H]1OC(C)=O (tautomer)
CC(=O)OC[C@H]1O[C@@H](OC(C)=O)[C@H](/N=C(/C)O)[C@@H](OC(C)=O)[C@@H]1OC(C)=O (cis-trans isomerization)
CC(=O)OC[C@H]1O[C@@H](OC(C)=O)[C@H](/N=C(/C)O)[C@@H](OC(C)=O)[C@@H]1OC(C)=O (3D coordinates assigned)
CC(=O)OC[C@H]1O[C@@H](OC(C)=O)[C@H](/N=C(/C)O)[C@@H](OC(C)=O)[C@@H]1OC(C)=O (nonaromatic ring conformer: 33.25353098664272 kcal/mol)

>  <Name>
99461

>  <RI>
1.63646e+07

>  <Rbt.Current_Directory>
/home/edward/Documentos/Virtual_Screening/rDock/N-terminal/3

>  <Rbt.Executable>
rbdock ($Id: //depot/dev/client3/rdock/2013.1/src/exe/rbdock.cxx#4 $)

>  <Rbt.Library>
libRbt.so (2013.1, Build901 2013/11/27)

>  <Rbt.Parameter_File>
/home/edward/anaconda3/envs/MD/share/rdock-2013.1-1/data/scripts/dock.prm

>  <Rbt.Receptor>
parameters.prm

>  <SCORE>
-6.79679

>  <SCORE.INTER>
-5.95463

>  <SCORE.INTER.CONST>
1

>  <SCORE.INTER.POLAR>
-1.51198

>  <SCORE.INTER.REPUL>
0.0402784

>  <SCORE.INTER.ROT>
10

>  <SCORE.INTER.VDW>
-16.4153

>  <SCORE.INTER.norm>
-0.220542

>  <SCORE.INTRA>
-0.548741

>  <SCORE.INTRA.DIHEDRAL>
-5.19409

>  <SCORE.INTRA.DIHEDRAL.0>
9.02911

>  <SCORE.INTRA.POLAR>
0

>  <SCORE.INTRA.POLAR.0>
0

>  <SCORE.INTRA.REPUL>
0

>  <SCORE.INTRA.REPUL.0>
0

>  <SCORE.INTRA.VDW>
2.0483

>  <SCORE.INTRA.VDW.0>
-4.59367

>  <SCORE.INTRA.norm>
-0.0203237

>  <SCORE.RESTR>
0

>  <SCORE.RESTR.CAVITY>
0

>  <SCORE.RESTR.norm>
0

>  <SCORE.SYSTEM>
-0.293416

>  <SCORE.SYSTEM.CONST>
0

>  <SCORE.SYSTEM.DIHEDRAL>
0.0961251

>  <SCORE.SYSTEM.REPUL>
0.175504

>  <SCORE.SYSTEM.VDW>
-1.219

>  <SCORE.SYSTEM.norm>
-0.0108673

>  <SCORE.heavy>
27

>  <SCORE.norm>
-0.251733

>  <SMILES>
CC(=O)OC[C@H]1O[C@@H](OC(C)=O)[C@H](/N=C(/C)O)[C@@H](OC(C)=O)[C@@H]1OC(C)=O

>  <UniqueID>
261

$$$$
96523
  rDOCK(R)          3D
libRbt.so/2013.1/901 2013/11/27
 20 20  0  0  0  0  0  0  0  0999 V2000
   34.7550   -3.6570  -64.1415 H   0  0  0  0  0  0
   33.8644   -3.2056  -64.3121 O   0  0  0  0  0  0
   33.6410   -1.8747  -63.9683 C   0  0  0  0  0  0
   34.6095   -1.2127  -63.4025 N   0  0  0  0  0  0
   34.5749    0.1814  -62.9471 C   0  0  0  0  0  0
   35.2817    0.3173  -61.5820 C   0  0  0  0  0  0
   36.5883   -0.2352  -61.6460 O   0  0  0  0  0  0
   36.5321   -1.6350  -61.4788 C   0  0  0  0  0  0
   35.3076    1.6759  -61.1648 O   0  0  0  0  0  0
   36.0531    2.4901  -62.0580 C   0  0  0  0  0  0
   36.1296    3.8994  -61.4539 C   0  0  0  0  0  0
   34.8433    4.4096  -61.2342 O   0  0  0  0  0  0
   34.9143    5.3932  -61.3452 H   0  0  0  0  0  0
   35.3900    2.5079  -63.4574 C   0  0  0  0  0  0
   36.1683    3.2584  -64.3562 O   0  0  0  0  0  0
   36.1785    4.1946  -64.0262 H   0  0  0  0  0  0
   35.2679    1.0706  -63.9890 C   0  0  0  0  0  0
   34.5161    1.0610  -65.1759 O   0  0  0  0  0  0
   35.1114    1.3930  -65.8977 H   0  0  0  0  0  0
   32.3112   -1.2442  -64.2838 C   0  0  0  0  0  0
  1  2  1  0  0  0
  2  3  1  0  0  0
  3  4  2  0  0  0
  3 20  1  0  0  0
  4  5  1  0  0  0
  5  6  1  0  0  0
  6  7  1  0  0  0
  6  9  1  0  0  0
  7  8  1  0  0  0
  9 10  1  0  0  0
 10 11  1  0  0  0
 10 14  1  0  0  0
 11 12  1  0  0  0
 12 13  1  0  0  0
 14 15  1  0  0  0
 14 17  1  0  0  0
 15 16  1  0  0  0
 17 18  1  0  0  0
 17  5  1  0  0  0
 18 19  1  0  0  0
M  END
>  <CHROM.0>
-177.27940860,-178.79317536,62.11020151

>  <CHROM.1>
-0.63896024,138.42208379,-82.15191846,-57.54737317,-149.10840946,-63.70357891
-162.60234183,35.07925285,0.74906804,-62.91963111,-2.16807464,-1.03774269
-0.21295947

>  <Energy>
32.04337113203077

>  <Genealogy>
CO[C@H]1O[C@H](CO)[C@@H](O)[C@H](O)[C@H]1N=C(C)O (tautomer)
CO[C@H]1O[C@H](CO)[C@@H](O)[C@H](O)[C@H]1/N=C(\C)O (cis-trans isomerization)
CO[C@H]1O[C@H](CO)[C@@H](O)[C@H](O)[C@H]1/N=C(\C)O (3D coordinates assigned)
CO[C@H]1O[C@H](CO)[C@@H](O)[C@H](O)[C@H]1/N=C(\C)O (nonaromatic ring conformer: 32.04337113203077 kcal/mol)

>  <Name>
96523

>  <RI>
1.63646e+07

>  <Rbt.Current_Directory>
/home/edward/Documentos/Virtual_Screening/rDock/N-terminal/3

>  <Rbt.Executable>
rbdock ($Id: //depot/dev/client3/rdock/2013.1/src/exe/rbdock.cxx#4 $)

>  <Rbt.Library>
libRbt.so (2013.1, Build901 2013/11/27)

>  <Rbt.Parameter_File>
/home/edward/anaconda3/envs/MD/share/rdock-2013.1-1/data/scripts/dock.prm

>  <Rbt.Receptor>
parameters.prm

>  <SCORE>
-21.5367

>  <SCORE.INTER>
-21.1694

>  <SCORE.INTER.CONST>
1

>  <SCORE.INTER.POLAR>
-3.81579

>  <SCORE.INTER.REPUL>
0.00388817

>  <SCORE.INTER.ROT>
3

>  <SCORE.INTER.VDW>
-16.6151

>  <SCORE.INTER.norm>
-1.32308

>  <SCORE.INTRA>
0.175037

>  <SCORE.INTRA.DIHEDRAL>
-2.3679

>  <SCORE.INTRA.DIHEDRAL.0>
10.3313

>  <SCORE.INTRA.POLAR>
0

>  <SCORE.INTRA.POLAR.0>
0

>  <SCORE.INTRA.REPUL>
0

>  <SCORE.INTRA.REPUL.0>
0

>  <SCORE.INTRA.VDW>
1.35899

>  <SCORE.INTRA.VDW.0>
-1.37951

>  <SCORE.INTRA.norm>
0.0109398

>  <SCORE.RESTR>
0

>  <SCORE.RESTR.CAVITY>
0

>  <SCORE.RESTR.norm>
0

>  <SCORE.SYSTEM>
-0.542405

>  <SCORE.SYSTEM.CONST>
0

>  <SCORE.SYSTEM.DIHEDRAL>
0.0656007

>  <SCORE.SYSTEM.REPUL>
0.0892939

>  <SCORE.SYSTEM.VDW>
-1.02167

>  <SCORE.SYSTEM.norm>
-0.0339003

>  <SCORE.heavy>
16

>  <SCORE.norm>
-1.34605

>  <SMILES>
CO[C@H]1O[C@H](CO)[C@@H](O)[C@H](O)[C@H]1/N=C(\C)O

>  <UniqueID>
263

$$$$
90220
  rDOCK(R)          3D
libRbt.so/2013.1/901 2013/11/27
 28 29  0  0  0  0  0  0  0  0999 V2000
   36.0670    3.9109  -63.3892 H   0  0  0  0  0  0
   36.0523    3.0121  -63.8559 O   0  0  0  0  0  0
   35.0988    2.0473  -63.5326 C   0  0  0  0  0  0
   34.3379    2.1887  -62.4893 N   0  0  0  0  0  0
   34.3837    3.3202  -61.5620 C   0  0  0  0  0  0
   32.9855    3.5468  -60.9354 C   0  0  0  0  0  0
   32.4708    2.3560  -60.3203 O   0  0  0  0  0  0
   32.1828    1.1362  -60.9573 C   0  0  0  0  0  0
   31.2138    1.1404  -61.9661 C   0  0  0  0  0  0
   30.8744   -0.0382  -62.6360 C   0  0  0  0  0  0
   31.5051   -1.2502  -62.3098 C   0  0  0  0  0  0
   31.1519   -2.4640  -62.9980 N   0  3  0  0  0  0
   31.7086   -3.5441  -62.7110 O   0  0  0  0  0  0
   30.1924   -2.4546  -63.9845 O   0  5  0  0  0  0
   32.4856   -1.2549  -61.3020 C   0  0  0  0  0  0
   32.8258   -0.0747  -60.6343 C   0  0  0  0  0  0
   33.0237    4.6061  -59.9904 O   0  0  0  0  0  0
   33.8891    4.3075  -58.9048 C   0  0  0  0  0  0
   33.7571    5.4083  -57.8423 C   0  0  0  0  0  0
   34.5024    5.0771  -56.7015 O   0  0  0  0  0  0
   34.1115    4.2404  -56.3372 H   0  0  0  0  0  0
   35.3487    4.1741  -59.3927 C   0  0  0  0  0  0
   35.7950    5.3877  -59.9481 O   0  0  0  0  0  0
   35.1918    5.6016  -60.7069 H   0  0  0  0  0  0
   35.4259    3.0652  -60.4556 C   0  0  0  0  0  0
   36.7148    3.0220  -61.0111 O   0  0  0  0  0  0
   36.8956    3.9234  -61.3859 H   0  0  0  0  0  0
   34.9594    0.8257  -64.3821 C   0  0  0  0  0  0
  1  2  1  0  0  0
  2  3  1  0  0  0
  3  4  2  0  0  0
  3 28  1  0  0  0
  4  5  1  0  0  0
  5  6  1  0  0  0
  6  7  1  0  0  0
  6 17  1  0  0  0
  7  8  1  0  0  0
  8  9  2  0  0  0
  9 10  1  0  0  0
 10 11  2  0  0  0
 11 12  1  0  0  0
 11 15  1  0  0  0
 12 13  2  0  0  0
 12 14  1  0  0  0
 15 16  2  0  0  0
 16  8  1  0  0  0
 17 18  1  0  0  0
 18 19  1  0  0  0
 18 22  1  0  0  0
 19 20  1  0  0  0
 20 21  1  0  0  0
 22 23  1  0  0  0
 22 25  1  0  0  0
 23 24  1  0  0  0
 25 26  1  0  0  0
 25  5  1  0  0  0
 26 27  1  0  0  0
M  END
>  <CHROM.0>
-174.83023442,-178.46522979,177.37813805

>  <CHROM.1>
-10.76252416,151.11242051,-61.84376555,-61.10979425,174.35622387,-62.34467630
-59.49436381,63.83896894,33.51341895,1.87438571,-61.26712906,-1.02270339
-0.65386981,-2.26834414

>  <Energy>
43.0574442712791

>  <Genealogy>
CC(O)=N[C@H]1[C@@H](Oc2ccc([N+](=O)[O-])cc2)O[C@H](CO)[C@H](O)[C@@H]1O (tautomer)
C/C(O)=N\[C@H]1[C@@H](Oc2ccc([N+](=O)[O-])cc2)O[C@H](CO)[C@H](O)[C@@H]1O (cis-trans isomerization)
C/C(O)=N\[C@H]1[C@@H](Oc2ccc([N+](=O)[O-])cc2)O[C@H](CO)[C@H](O)[C@@H]1O (3D coordinates assigned)
C/C(O)=N\[C@H]1[C@@H](Oc2ccc([N+](=O)[O-])cc2)O[C@H](CO)[C@H](O)[C@@H]1O (nonaromatic ring conformer: 43.0574442712791 kcal/mol)

>  <Name>
90220

>  <RI>
1.63646e+07

>  <Rbt.Current_Directory>
/home/edward/Documentos/Virtual_Screening/rDock/N-terminal/3

>  <Rbt.Executable>
rbdock ($Id: //depot/dev/client3/rdock/2013.1/src/exe/rbdock.cxx#4 $)

>  <Rbt.Library>
libRbt.so (2013.1, Build901 2013/11/27)

>  <Rbt.Parameter_File>
/home/edward/anaconda3/envs/MD/share/rdock-2013.1-1/data/scripts/dock.prm

>  <Rbt.Receptor>
parameters.prm

>  <SCORE>
-21.5377

>  <SCORE.INTER>
-18.7373

>  <SCORE.INTER.CONST>
1

>  <SCORE.INTER.POLAR>
-3.60236

>  <SCORE.INTER.REPUL>
0

>  <SCORE.INTER.ROT>
4

>  <SCORE.INTER.VDW>
-15.8893

>  <SCORE.INTER.norm>
-0.780723

>  <SCORE.INTRA>
-2.36522

>  <SCORE.INTRA.DIHEDRAL>
-4.66506

>  <SCORE.INTRA.DIHEDRAL.0>
10.6762

>  <SCORE.INTRA.POLAR>
-0.000188992

>  <SCORE.INTRA.POLAR.0>
0

>  <SCORE.INTRA.REPUL>
0

>  <SCORE.INTRA.REPUL.0>
0

>  <SCORE.INTRA.VDW>
-0.0320475

>  <SCORE.INTRA.VDW.0>
-2.77799

>  <SCORE.INTRA.norm>
-0.0985507

>  <SCORE.RESTR>
0

>  <SCORE.RESTR.CAVITY>
0

>  <SCORE.RESTR.norm>
0

>  <SCORE.SYSTEM>
-0.435158

>  <SCORE.SYSTEM.CONST>
0

>  <SCORE.SYSTEM.DIHEDRAL>
0.176574

>  <SCORE.SYSTEM.REPUL>
0.081823

>  <SCORE.SYSTEM.VDW>
-0.93256

>  <SCORE.SYSTEM.norm>
-0.0181316

>  <SCORE.heavy>
24

>  <SCORE.norm>
-0.897405

>  <SMILES>
C/C(O)=N\[C@H]1[C@@H](Oc2ccc([N+](=O)[O-])cc2)O[C@H](CO)[C@H](O)[C@@H]1O

>  <UniqueID>
267

$$$$
84265
  rDOCK(R)          3D
libRbt.so/2013.1/901 2013/11/27
 20 20  0  0  0  0  0  0  0  0999 V2000
   31.6671   -0.5864  -63.4463 C   0  0  0  0  0  0
   32.9782   -1.1357  -63.9206 C   0  0  0  0  0  0
   33.0077   -2.2881  -64.4293 O   0  0  0  0  0  0
   34.1972   -0.3804  -63.8301 N   0  0  0  0  0  0
   34.3128    0.9127  -63.1447 C   0  0  0  0  0  0
   34.1054    0.7291  -61.6261 C   0  0  0  0  0  0
   34.9543   -0.2712  -61.1196 O   0  0  0  0  0  0
   34.2803    1.9540  -60.9262 O   0  0  0  0  0  0
   35.5956    2.4641  -61.0880 C   0  0  0  0  0  0
   35.7603    3.6853  -60.1747 C   0  0  0  0  0  0
   34.7058    4.5866  -60.3736 O   0  0  0  0  0  0
   35.8683    2.8129  -62.5712 C   0  0  0  0  0  0
   34.9795    3.8107  -63.0130 O   0  0  0  0  0  0
   35.6887    1.5499  -63.4263 C   0  0  0  0  0  0
   35.8007    1.8877  -64.7855 O   0  0  0  0  0  0
   35.0753   -0.8478  -64.1529 H   0  0  0  0  0  0
   34.6575   -0.4445  -60.1884 H   0  0  0  0  0  0
   34.8290    4.9572  -61.2859 H   0  0  0  0  0  0
   35.3380    4.1639  -63.8687 H   0  0  0  0  0  0
   35.5643    1.0759  -65.3056 H   0  0  0  0  0  0
  1  2  1  0  0  0
  2  3  2  0  0  0
  2  4  1  0  0  0
  4  5  1  0  0  0
  4 16  1  0  0  0
  5  6  1  0  0  0
  6  7  1  0  0  0
  6  8  1  0  0  0
  7 17  1  0  0  0
  8  9  1  0  0  0
  9 10  1  0  0  0
  9 12  1  0  0  0
 10 11  1  0  0  0
 11 18  1  0  0  0
 12 13  1  0  0  0
 12 14  1  0  0  0
 13 19  1  0  0  0
 14 15  1  0  0  0
 14  5  1  0  0  0
 15 20  1  0  0  0
M  END
>  <CHROM.0>
-175.50575200,-60.66292990,-61.39328699

>  <CHROM.1>
66.78188576,-170.26231730,-50.98558448,-68.32378380,165.47893762,-51.72148347
34.53248486,1.34716094,-62.52530879,2.30175439,-0.99516135,-1.97902168

>  <Energy>
26.073296034015424

>  <Genealogy>
CC(=O)N[C@H]1[C@@H](O)O[C@H](CO)[C@H](O)[C@@H]1O (3D coordinates assigned)
CC(=O)N[C@H]1[C@@H](O)O[C@H](CO)[C@H](O)[C@@H]1O (nonaromatic ring conformer: 26.073296034015424 kcal/mol)

>  <Name>
84265

>  <RI>
1.63646e+07

>  <Rbt.Current_Directory>
/home/edward/Documentos/Virtual_Screening/rDock/N-terminal/3

>  <Rbt.Executable>
rbdock ($Id: //depot/dev/client3/rdock/2013.1/src/exe/rbdock.cxx#4 $)

>  <Rbt.Library>
libRbt.so (2013.1, Build901 2013/11/27)

>  <Rbt.Parameter_File>
/home/edward/anaconda3/envs/MD/share/rdock-2013.1-1/data/scripts/dock.prm

>  <Rbt.Receptor>
parameters.prm

>  <SCORE>
-23.2592

>  <SCORE.INTER>
-19.2775

>  <SCORE.INTER.CONST>
1

>  <SCORE.INTER.POLAR>
-3.8999

>  <SCORE.INTER.REPUL>
0.129884

>  <SCORE.INTER.ROT>
2

>  <SCORE.INTER.VDW>
-14.0673

>  <SCORE.INTER.norm>
-1.28517

>  <SCORE.INTRA>
-2.99141

>  <SCORE.INTRA.DIHEDRAL>
-3.6974

>  <SCORE.INTRA.DIHEDRAL.0>
7.21632

>  <SCORE.INTRA.POLAR>
-0.490579

>  <SCORE.INTRA.POLAR.0>
0

>  <SCORE.INTRA.REPUL>
0

>  <SCORE.INTRA.REPUL.0>
0

>  <SCORE.INTRA.VDW>
0.525261

>  <SCORE.INTRA.VDW.0>
-1.7955

>  <SCORE.INTRA.norm>
-0.199427

>  <SCORE.RESTR>
0

>  <SCORE.RESTR.CAVITY>
0

>  <SCORE.RESTR.norm>
0

>  <SCORE.SYSTEM>
-0.99024

>  <SCORE.SYSTEM.CONST>
0

>  <SCORE.SYSTEM.DIHEDRAL>
0.110959

>  <SCORE.SYSTEM.REPUL>
0.0275879

>  <SCORE.SYSTEM.VDW>
-1.18366

>  <SCORE.SYSTEM.norm>
-0.066016

>  <SCORE.heavy>
15

>  <SCORE.norm>
-1.55061

>  <SMILES>
CC(=O)N[C@H]1[C@@H](O)O[C@H](CO)[C@H](O)[C@@H]1O

>  <UniqueID>
269

$$$$
82398
  rDOCK(R)          3D
libRbt.so/2013.1/901 2013/11/27
 28 29  0  0  0  0  0  0  0  0999 V2000
   38.1158    9.8104  -61.7112 H   0  0  0  0  0  0
   37.3330   10.4537  -61.7125 O   0  0  0  0  0  0
   36.2418   10.2596  -60.8703 C   0  0  0  0  0  0
   36.1964    9.1879  -60.1298 N   0  0  0  0  0  0
   35.1248    8.8077  -59.2044 C   0  0  0  0  0  0
   34.4454    7.4878  -59.6429 C   0  0  0  0  0  0
   35.3937    6.4189  -59.7847 O   0  0  0  0  0  0
   35.1076    5.0735  -60.0705 C   0  0  0  0  0  0
   33.7973    4.5674  -60.1632 C   0  0  0  0  0  0
   33.5805    3.2187  -60.4606 C   0  0  0  0  0  0
   34.6651    2.3464  -60.6595 C   0  0  0  0  0  0
   34.4453    0.9577  -60.9673 N   0  3  0  0  0  0
   33.2867    0.5031  -61.0677 O   0  0  0  0  0  0
   35.5099    0.1068  -61.1586 O   0  5  0  0  0  0
   35.9709    2.8523  -60.5487 C   0  0  0  0  0  0
   36.1856    4.2012  -60.2534 C   0  0  0  0  0  0
   33.4363    7.1248  -58.7130 O   0  0  0  0  0  0
   33.9709    6.8499  -57.4248 C   0  0  0  0  0  0
   32.8227    6.3458  -56.5390 C   0  0  0  0  0  0
   33.2314    6.2720  -55.2008 O   0  0  0  0  0  0
   33.6841    5.3947  -55.0988 H   0  0  0  0  0  0
   34.6320    8.1169  -56.8268 C   0  0  0  0  0  0
   35.2379    7.8187  -55.5939 O   0  0  0  0  0  0
   34.5337    7.4449  -55.0024 H   0  0  0  0  0  0
   35.7101    8.6385  -57.7924 C   0  0  0  0  0  0
   36.2563    9.8481  -57.3256 O   0  0  0  0  0  0
   35.5271   10.5219  -57.3033 H   0  0  0  0  0  0
   35.1671   11.3060  -60.8417 C   0  0  0  0  0  0
  1  2  1  0  0  0
  2  3  1  0  0  0
  3  4  2  0  0  0
  3 28  1  0  0  0
  4  5  1  0  0  0
  5  6  1  0  0  0
  6  7  1  0  0  0
  6 17  1  0  0  0
  7  8  1  0  0  0
  8  9  2  0  0  0
  9 10  1  0  0  0
 10 11  2  0  0  0
 11 12  1  0  0  0
 11 15  1  0  0  0
 12 13  2  0  0  0
 12 14  1  0  0  0
 15 16  2  0  0  0
 16  8  1  0  0  0
 17 18  1  0  0  0
 18 19  1  0  0  0
 18 22  1  0  0  0
 19 20  1  0  0  0
 20 21  1  0  0  0
 22 23  1  0  0  0
 22 25  1  0  0  0
 23 24  1  0  0  0
 25 26  1  0  0  0
 25  5  1  0  0  0
 26 27  1  0  0  0
M  END
>  <CHROM.0>
-72.95944477,-177.20718788,62.05759069

>  <CHROM.1>
-4.18110832,116.94387847,174.94781615,-4.85822911,-170.01530005,-84.32651450
-57.23970708,60.12172209,34.91055885,6.24078674,-59.23055127,-1.25974561
-1.12847960,-2.62609816

>  <Energy>
45.29965750368525

>  <Genealogy>
CC(O)=N[C@H]1[C@@H](Oc2ccc([N+](=O)[O-])cc2)O[C@H](CO)[C@@H](O)[C@@H]1O (tautomer)
C/C(O)=N\[C@H]1[C@@H](Oc2ccc([N+](=O)[O-])cc2)O[C@H](CO)[C@@H](O)[C@@H]1O (cis-trans isomerization)
C/C(O)=N\[C@H]1[C@@H](Oc2ccc([N+](=O)[O-])cc2)O[C@H](CO)[C@@H](O)[C@@H]1O (3D coordinates assigned)
C/C(O)=N\[C@H]1[C@@H](Oc2ccc([N+](=O)[O-])cc2)O[C@H](CO)[C@@H](O)[C@@H]1O (nonaromatic ring conformer: 45.29965750368525 kcal/mol)

>  <Name>
82398

>  <RI>
1.63646e+07

>  <Rbt.Current_Directory>
/home/edward/Documentos/Virtual_Screening/rDock/N-terminal/3

>  <Rbt.Executable>
rbdock ($Id: //depot/dev/client3/rdock/2013.1/src/exe/rbdock.cxx#4 $)

>  <Rbt.Library>
libRbt.so (2013.1, Build901 2013/11/27)

>  <Rbt.Parameter_File>
/home/edward/anaconda3/envs/MD/share/rdock-2013.1-1/data/scripts/dock.prm

>  <Rbt.Receptor>
parameters.prm

>  <SCORE>
-20.0239

>  <SCORE.INTER>
-16.9831

>  <SCORE.INTER.CONST>
1

>  <SCORE.INTER.POLAR>
-2.05206

>  <SCORE.INTER.REPUL>
0

>  <SCORE.INTER.ROT>
4

>  <SCORE.INTER.VDW>
-19.4061

>  <SCORE.INTER.norm>
-0.707629

>  <SCORE.INTRA>
-3.4748

>  <SCORE.INTRA.DIHEDRAL>
-6.18711

>  <SCORE.INTRA.DIHEDRAL.0>
9.49134

>  <SCORE.INTRA.POLAR>
-0.625727

>  <SCORE.INTRA.POLAR.0>
0

>  <SCORE.INTRA.REPUL>
0

>  <SCORE.INTRA.REPUL.0>
0

>  <SCORE.INTRA.VDW>
1.74623

>  <SCORE.INTRA.VDW.0>
-3.18897

>  <SCORE.INTRA.norm>
-0.144783

>  <SCORE.RESTR>
0

>  <SCORE.RESTR.CAVITY>
0

>  <SCORE.RESTR.norm>
0

>  <SCORE.SYSTEM>
0.43399

>  <SCORE.SYSTEM.CONST>
0

>  <SCORE.SYSTEM.DIHEDRAL>
0.856764

>  <SCORE.SYSTEM.REPUL>
0.0537072

>  <SCORE.SYSTEM.VDW>
-0.262928

>  <SCORE.SYSTEM.norm>
0.0180829

>  <SCORE.heavy>
24

>  <SCORE.norm>
-0.83433

>  <SMILES>
C/C(O)=N\[C@H]1[C@@H](Oc2ccc([N+](=O)[O-])cc2)O[C@H](CO)[C@@H](O)[C@@H]1O

>  <UniqueID>
273

$$$$
82313
  rDOCK(R)          3D
libRbt.so/2013.1/901 2013/11/27
 20 20  0  0  0  0  0  0  0  0999 V2000
   32.6990   -2.7719  -64.3400 C   0  0  0  0  0  0
   32.8695   -1.4655  -63.6355 C   0  0  0  0  0  0
   31.8636   -0.8943  -63.1342 O   0  0  0  0  0  0
   34.1667   -0.8564  -63.5651 N   0  0  0  0  0  0
   34.3941    0.4653  -62.9704 C   0  0  0  0  0  0
   35.0415    0.3285  -61.5778 C   0  0  0  0  0  0
   36.2123   -0.4491  -61.6322 O   0  0  0  0  0  0
   35.3001    1.6050  -61.0108 O   0  0  0  0  0  0
   36.2283    2.3495  -61.7885 C   0  0  0  0  0  0
   36.5428    3.6570  -61.0463 C   0  0  0  0  0  0
   37.2550    3.3902  -59.8676 O   0  0  0  0  0  0
   35.6540    2.6413  -63.1964 C   0  0  0  0  0  0
   36.6062    3.3142  -63.9820 O   0  0  0  0  0  0
   35.2896    1.3161  -63.8884 C   0  0  0  0  0  0
   34.6631    1.5532  -65.1253 O   0  0  0  0  0  0
   34.9531   -1.3186  -64.0760 H   0  0  0  0  0  0
   35.9366   -1.3470  -61.9528 H   0  0  0  0  0  0
   38.1246    2.9963  -60.1402 H   0  0  0  0  0  0
   36.6268    4.2579  -63.6746 H   0  0  0  0  0  0
   35.3240    1.9958  -65.7199 H   0  0  0  0  0  0
  1  2  1  0  0  0
  2  3  2  0  0  0
  2  4  1  0  0  0
  4  5  1  0  0  0
  4 16  1  0  0  0
  5  6  1  0  0  0
  6  7  1  0  0  0
  6  8  1  0  0  0
  7 17  1  0  0  0
  8  9  1  0  0  0
  9 10  1  0  0  0
  9 12  1  0  0  0
 10 11  1  0  0  0
 11 18  1  0  0  0
 12 13  1  0  0  0
 12 14  1  0  0  0
 13 19  1  0  0  0
 14 15  1  0  0  0
 14  5  1  0  0  0
 15 20  1  0  0  0
M  END
>  <CHROM.0>
72.95115765,-57.85411750,-177.03004121

>  <CHROM.1>
104.40568324,-61.21456012,67.71240471,64.10394730,-76.25861864,-172.48170184
35.03222767,0.97376913,-62.71223278,3.10372594,-0.94886391,-1.13467964

>  <Energy>
26.06256576449316

>  <Genealogy>
CC(=O)N[C@H]1[C@@H](O)O[C@H](CO)[C@@H](O)[C@@H]1O (3D coordinates assigned)
CC(=O)N[C@H]1[C@@H](O)O[C@H](CO)[C@@H](O)[C@@H]1O (nonaromatic ring conformer: 26.06256576449316 kcal/mol)

>  <Name>
82313

>  <RI>
1.63646e+07

>  <Rbt.Current_Directory>
/home/edward/Documentos/Virtual_Screening/rDock/N-terminal/3

>  <Rbt.Executable>
rbdock ($Id: //depot/dev/client3/rdock/2013.1/src/exe/rbdock.cxx#4 $)

>  <Rbt.Library>
libRbt.so (2013.1, Build901 2013/11/27)

>  <Rbt.Parameter_File>
/home/edward/anaconda3/envs/MD/share/rdock-2013.1-1/data/scripts/dock.prm

>  <Rbt.Receptor>
parameters.prm

>  <SCORE>
-28.594

>  <SCORE.INTER>
-26.4908

>  <SCORE.INTER.CONST>
1

>  <SCORE.INTER.POLAR>
-5.24577

>  <SCORE.INTER.REPUL>
0

>  <SCORE.INTER.ROT>
2

>  <SCORE.INTER.VDW>
-16.0552

>  <SCORE.INTER.norm>
-1.76605

>  <SCORE.INTRA>
-2.14217

>  <SCORE.INTRA.DIHEDRAL>
-5.09504

>  <SCORE.INTRA.DIHEDRAL.0>
8.41706

>  <SCORE.INTRA.POLAR>
0

>  <SCORE.INTRA.POLAR.0>
0

>  <SCORE.INTRA.REPUL>
0

>  <SCORE.INTRA.REPUL.0>
0

>  <SCORE.INTRA.VDW>
0.405345

>  <SCORE.INTRA.VDW.0>
-1.69968

>  <SCORE.INTRA.norm>
-0.142812

>  <SCORE.RESTR>
0

>  <SCORE.RESTR.CAVITY>
0

>  <SCORE.RESTR.norm>
0

>  <SCORE.SYSTEM>
0.0390333

>  <SCORE.SYSTEM.CONST>
0

>  <SCORE.SYSTEM.DIHEDRAL>
0.86263

>  <SCORE.SYSTEM.POLAR>
-0.0165088

>  <SCORE.SYSTEM.REPUL>
0.00817923

>  <SCORE.SYSTEM.VDW>
-0.377048

>  <SCORE.SYSTEM.norm>
0.00260222

>  <SCORE.heavy>
15

>  <SCORE.norm>
-1.90626

>  <SMILES>
CC(=O)N[C@H]1[C@@H](O)O[C@H](CO)[C@@H](O)[C@@H]1O

>  <UniqueID>
274

$$$$
35717
  rDOCK(R)          3D
libRbt.so/2013.1/901 2013/11/27
 20 20  0  0  0  0  0  0  0  0999 V2000
   32.8843   -2.3567  -64.5410 C   0  0  0  0  0  0
   32.9165   -1.0646  -63.7920 C   0  0  0  0  0  0
   31.8898   -0.6810  -63.1689 O   0  0  0  0  0  0
   34.0977   -0.2513  -63.8195 N   0  0  0  0  0  0
   34.1969    1.0158  -63.0853 C   0  0  0  0  0  0
   34.0551    0.7736  -61.5662 C   0  0  0  0  0  0
   34.9577   -0.2124  -61.1295 O   0  0  0  0  0  0
   34.2141    1.9798  -60.8301 O   0  0  0  0  0  0
   35.5048    2.5437  -61.0151 C   0  0  0  0  0  0
   35.6526    3.7397  -60.0627 C   0  0  0  0  0  0
   34.6200    4.6685  -60.2636 O   0  0  0  0  0  0
   35.7130    2.9581  -62.4898 C   0  0  0  0  0  0
   34.7784    3.9497  -62.8401 O   0  0  0  0  0  0
   35.5416    1.7156  -63.3839 C   0  0  0  0  0  0
   35.6634    2.0476  -64.7459 O   0  0  0  0  0  0
   34.9003   -0.5691  -64.4097 H   0  0  0  0  0  0
   34.7319   -0.3975  -60.1809 H   0  0  0  0  0  0
   34.7514    5.0551  -61.1683 H   0  0  0  0  0  0
   33.8757    3.5644  -62.6912 H   0  0  0  0  0  0
   34.9108    2.6488  -64.9853 H   0  0  0  0  0  0
  1  2  1  0  0  0
  2  3  2  0  0  0
  2  4  1  0  0  0
  4  5  1  0  0  0
  4 16  1  0  0  0
  5  6  1  0  0  0
  6  7  1  0  0  0
  6  8  1  0  0  0
  7 17  1  0  0  0
  8  9  1  0  0  0
  9 10  1  0  0  0
  9 12  1  0  0  0
 10 11  1  0  0  0
 11 18  1  0  0  0
 12 13  1  0  0  0
 12 14  1  0  0  0
 13 19  1  0  0  0
 14 15  1  0  0  0
 14  5  1  0  0  0
 15 20  1  0  0  0
M  END
>  <CHROM.0>
-178.31952051,-175.17218304,-60.47373631

>  <CHROM.1>
62.02703796,-172.88311776,-55.71325114,-66.76853684,-58.64379852,59.09795675
34.43927656,1.43025831,-62.43941383,2.34094142,-1.05237480,-1.92517976

>  <Energy>
26.736496817338143

>  <Genealogy>
CC(=O)N[C@H]1[C@@H](O)O[C@H](CO)[C@H](O)[C@@H]1O (chirality)
CC(=O)N[C@H]1[C@@H](O)O[C@H](CO)[C@H](O)[C@@H]1O (3D coordinates assigned)
CC(=O)N[C@H]1[C@@H](O)O[C@H](CO)[C@H](O)[C@@H]1O (nonaromatic ring conformer: 26.736496817338143 kcal/mol)

>  <Name>
35717

>  <RI>
1.63646e+07

>  <Rbt.Current_Directory>
/home/edward/Documentos/Virtual_Screening/rDock/N-terminal/3

>  <Rbt.Executable>
rbdock ($Id: //depot/dev/client3/rdock/2013.1/src/exe/rbdock.cxx#4 $)

>  <Rbt.Library>
libRbt.so (2013.1, Build901 2013/11/27)

>  <Rbt.Parameter_File>
/home/edward/anaconda3/envs/MD/share/rdock-2013.1-1/data/scripts/dock.prm

>  <Rbt.Receptor>
parameters.prm

>  <SCORE>
-25.2592

>  <SCORE.INTER>
-20.6182

>  <SCORE.INTER.CONST>
1

>  <SCORE.INTER.POLAR>
-4.15109

>  <SCORE.INTER.REPUL>
0.000537274

>  <SCORE.INTER.ROT>
2

>  <SCORE.INTER.VDW>
-13.9072

>  <SCORE.INTER.norm>
-1.37455

>  <SCORE.INTRA>
-4.25402

>  <SCORE.INTRA.DIHEDRAL>
-7.74322

>  <SCORE.INTRA.DIHEDRAL.0>
9.62128

>  <SCORE.INTRA.POLAR>
-0.273944

>  <SCORE.INTRA.POLAR.0>
0

>  <SCORE.INTRA.REPUL>
0

>  <SCORE.INTRA.REPUL.0>
0

>  <SCORE.INTRA.VDW>
0.549

>  <SCORE.INTRA.VDW.0>
-1.56937

>  <SCORE.INTRA.norm>
-0.283601

>  <SCORE.RESTR>
0

>  <SCORE.RESTR.CAVITY>
0

>  <SCORE.RESTR.norm>
0

>  <SCORE.SYSTEM>
-0.387027

>  <SCORE.SYSTEM.CONST>
0

>  <SCORE.SYSTEM.DIHEDRAL>
0.129443

>  <SCORE.SYSTEM.REPUL>
0.0852205

>  <SCORE.SYSTEM.VDW>
-0.877851

>  <SCORE.SYSTEM.norm>
-0.0258018

>  <SCORE.heavy>
15

>  <SCORE.norm>
-1.68395

>  <SMILES>
CC(=O)N[C@H]1[C@@H](O)O[C@H](CO)[C@H](O)[C@@H]1O

>  <UniqueID>
277

$$$$
29327
  rDOCK(R)          3D
libRbt.so/2013.1/901 2013/11/27
 23 23  0  0  0  0  0  0  0  0999 V2000
   31.3469   -3.5828  -64.7928 C   0  0  0  0  0  0
   32.6138   -2.8814  -64.5627 N   0  0  0  0  0  0
   33.8195   -3.4205  -65.0468 N   0  0  0  0  0  0
   33.8397   -4.4482  -65.7559 O   0  0  0  0  0  0
   32.6197   -1.5681  -63.9716 C   0  0  0  0  0  0
   31.5283   -1.0168  -63.6601 O   0  0  0  0  0  0
   33.8603   -0.8792  -63.7362 N   0  0  0  0  0  0
   33.9210    0.4808  -63.1875 C   0  0  0  0  0  0
   34.1106    0.4409  -61.6581 C   0  0  0  0  0  0
   35.2284   -0.3348  -61.3009 O   0  0  0  0  0  0
   34.2060    1.7540  -61.1246 O   0  0  0  0  0  0
   35.3403    2.4482  -61.6268 C   0  0  0  0  0  0
   35.4235    3.7991  -60.8957 C   0  0  0  0  0  0
   34.2191    4.5104  -61.0005 O   0  0  0  0  0  0
   35.2287    2.6399  -63.1611 C   0  0  0  0  0  0
   36.3856    3.2603  -63.6641 O   0  0  0  0  0  0
   35.0701    1.2688  -63.8410 C   0  0  0  0  0  0
   34.8572    1.4176  -65.2234 O   0  0  0  0  0  0
   34.7477   -1.3086  -64.0804 H   0  0  0  0  0  0
   35.2695   -0.3253  -60.3091 H   0  0  0  0  0  0
   34.2425    4.9836  -61.8728 H   0  0  0  0  0  0
   36.3282    4.2235  -63.4297 H   0  0  0  0  0  0
   35.5537    2.0333  -65.5729 H   0  0  0  0  0  0
  1  2  1  0  0  0
  2  3  1  0  0  0
  2  5  1  0  0  0
  3  4  2  0  0  0
  5  6  2  0  0  0
  5  7  1  0  0  0
  7  8  1  0  0  0
  7 19  1  0  0  0
  8  9  1  0  0  0
  9 10  1  0  0  0
  9 11  1  0  0  0
 10 20  1  0  0  0
 11 12  1  0  0  0
 12 13  1  0  0  0
 12 15  1  0  0  0
 13 14  1  0  0  0
 14 21  1  0  0  0
 15 16  1  0  0  0
 15 17  1  0  0  0
 16 22  1  0  0  0
 17 18  1  0  0  0
 17  8  1  0  0  0
 18 23  1  0  0  0
M  END
>  <CHROM.0>
-175.20461179,-59.82387714,62.70001970

>  <CHROM.1>
4.96684192,94.78904327,-178.87473648,-54.00074694,-83.43445182,-76.23960329
172.35667695,34.11236946,0.25158359,-63.23396124,2.07397478,-0.85093977,-2.31246696

>  <Energy>
31.60248801215496

>  <Genealogy>
CN(N=O)C(=O)N[C@H]1[C@@H](O)O[C@H](CO)[C@@H](O)[C@@H]1O (3D coordinates assigned)
CN(N=O)C(=O)N[C@H]1[C@@H](O)O[C@H](CO)[C@@H](O)[C@@H]1O (nonaromatic ring conformer: 31.60248801215496 kcal/mol)

>  <Name>
29327

>  <RI>
1.63646e+07

>  <Rbt.Current_Directory>
/home/edward/Documentos/Virtual_Screening/rDock/N-terminal/3

>  <Rbt.Executable>
rbdock ($Id: //depot/dev/client3/rdock/2013.1/src/exe/rbdock.cxx#4 $)

>  <Rbt.Library>
libRbt.so (2013.1, Build901 2013/11/27)

>  <Rbt.Parameter_File>
/home/edward/anaconda3/envs/MD/share/rdock-2013.1-1/data/scripts/dock.prm

>  <Rbt.Receptor>
parameters.prm

>  <SCORE>
-27.6694

>  <SCORE.INTER>
-25.5095

>  <SCORE.INTER.CONST>
1

>  <SCORE.INTER.POLAR>
-5.51603

>  <SCORE.INTER.REPUL>
0.0865808

>  <SCORE.INTER.ROT>
3

>  <SCORE.INTER.VDW>
-15.5879

>  <SCORE.INTER.norm>
-1.4172

>  <SCORE.INTRA>
-1.04407

>  <SCORE.INTRA.DIHEDRAL>
-2.53988

>  <SCORE.INTRA.DIHEDRAL.0>
8.26221

>  <SCORE.INTRA.POLAR>
-0.0170904

>  <SCORE.INTRA.POLAR.0>
0

>  <SCORE.INTRA.REPUL>
0

>  <SCORE.INTRA.REPUL.0>
0

>  <SCORE.INTRA.VDW>
0.283982

>  <SCORE.INTRA.VDW.0>
-0.880099

>  <SCORE.INTRA.norm>
-0.0580037

>  <SCORE.RESTR>
0

>  <SCORE.RESTR.CAVITY>
0

>  <SCORE.RESTR.norm>
0

>  <SCORE.SYSTEM>
-1.11576

>  <SCORE.SYSTEM.CONST>
0

>  <SCORE.SYSTEM.DIHEDRAL>
0.148953

>  <SCORE.SYSTEM.REPUL>
0.0267433

>  <SCORE.SYSTEM.VDW>
-1.32395

>  <SCORE.SYSTEM.norm>
-0.0619864

>  <SCORE.heavy>
18

>  <SCORE.norm>
-1.53719

>  <SMILES>
CN(N=O)C(=O)N[C@H]1[C@@H](O)O[C@H](CO)[C@@H](O)[C@@H]1O

>  <UniqueID>
280

$$$$
24154
  rDOCK(R)          3D
libRbt.so/2013.1/901 2013/11/27
 18 18  0  0  0  0  0  0  0  0999 V2000
   36.2333    2.8352  -63.8569 N   0  0  0  0  0  0
   35.0670    2.4045  -63.0794 C   0  0  0  0  0  0
   34.6383    0.9772  -63.5042 C   0  0  0  0  0  0
   34.2179    0.9930  -64.8444 O   0  0  0  0  0  0
   33.5502    0.5270  -62.7151 O   0  0  0  0  0  0
   33.9375    0.3890  -61.3588 C   0  0  0  0  0  0
   32.8052   -0.3072  -60.5933 C   0  0  0  0  0  0
   32.5696   -1.5806  -61.1287 O   0  0  0  0  0  0
   34.2627    1.7745  -60.7601 C   0  0  0  0  0  0
   33.1175    2.5909  -60.8007 O   0  0  0  0  0  0
   35.4025    2.4167  -61.5704 C   0  0  0  0  0  0
   35.6043    3.7349  -61.1243 O   0  0  0  0  0  0
   36.4623    3.8216  -63.5969 H   0  0  0  0  0  0
   35.9645    2.8779  -64.8663 H   0  0  0  0  0  0
   35.0026    1.2408  -65.4001 H   0  0  0  0  0  0
   33.3953   -2.1057  -60.9636 H   0  0  0  0  0  0
   32.8352    2.6478  -61.7507 H   0  0  0  0  0  0
   35.8576    3.6866  -60.1657 H   0  0  0  0  0  0
  1  2  1  0  0  0
  1 13  1  0  0  0
  1 14  1  0  0  0
  2  3  1  0  0  0
  3  4  1  0  0  0
  3  5  1  0  0  0
  4 15  1  0  0  0
  5  6  1  0  0  0
  6  7  1  0  0  0
  6  9  1  0  0  0
  7  8  1  0  0  0
  8 16  1  0  0  0
  9 10  1  0  0  0
  9 11  1  0  0  0
 10 17  1  0  0  0
 11 12  1  0  0  0
 11  2  1  0  0  0
 12 18  1  0  0  0
M  END
>  <CHROM.0>
-175.99893107,-175.45312493,-61.47610101

>  <CHROM.1>
176.29847283,63.91606432,60.78710462,64.57836247,-57.88669047,-177.37823164
34.26845478,1.40402890,-62.13631322,0.00680074,-0.96484656,-2.04263546

>  <Energy>
22.33723185269607

>  <Genealogy>
N[C@H]1[C@H](O)O[C@H](CO)[C@H](O)[C@@H]1O (chirality)
N[C@H]1[C@H](O)O[C@H](CO)[C@H](O)[C@@H]1O (3D coordinates assigned)
N[C@H]1[C@H](O)O[C@H](CO)[C@H](O)[C@@H]1O (nonaromatic ring conformer: 22.33723185269607 kcal/mol)

>  <Name>
24154

>  <RI>
1.63646e+07

>  <Rbt.Current_Directory>
/home/edward/Documentos/Virtual_Screening/rDock/N-terminal/3

>  <Rbt.Executable>
rbdock ($Id: //depot/dev/client3/rdock/2013.1/src/exe/rbdock.cxx#4 $)

>  <Rbt.Library>
libRbt.so (2013.1, Build901 2013/11/27)

>  <Rbt.Parameter_File>
/home/edward/anaconda3/envs/MD/share/rdock-2013.1-1/data/scripts/dock.prm

>  <Rbt.Receptor>
parameters.prm

>  <SCORE>
-23.6375

>  <SCORE.INTER>
-18.5635

>  <SCORE.INTER.CONST>
1

>  <SCORE.INTER.POLAR>
-4.75504

>  <SCORE.INTER.REPUL>
0

>  <SCORE.INTER.ROT>
2

>  <SCORE.INTER.VDW>
-9.79633

>  <SCORE.INTER.norm>
-1.54696

>  <SCORE.INTRA>
-4.67959

>  <SCORE.INTRA.DIHEDRAL>
-11.1143

>  <SCORE.INTRA.DIHEDRAL.0>
11.3836

>  <SCORE.INTRA.POLAR>
-0.00298171

>  <SCORE.INTRA.POLAR.0>
0

>  <SCORE.INTRA.REPUL>
0

>  <SCORE.INTRA.REPUL.0>
0

>  <SCORE.INTRA.VDW>
0.88769

>  <SCORE.INTRA.VDW.0>
-0.950966

>  <SCORE.INTRA.norm>
-0.389966

>  <SCORE.RESTR>
0

>  <SCORE.RESTR.CAVITY>
0

>  <SCORE.RESTR.norm>
0

>  <SCORE.SYSTEM>
-0.394468

>  <SCORE.SYSTEM.CONST>
0

>  <SCORE.SYSTEM.DIHEDRAL>
0.190999

>  <SCORE.SYSTEM.REPUL>
0.0793281

>  <SCORE.SYSTEM.VDW>
-0.886608

>  <SCORE.SYSTEM.norm>
-0.0328724

>  <SCORE.heavy>
12

>  <SCORE.norm>
-1.96979

>  <SMILES>
N[C@H]1[C@H](O)O[C@H](CO)[C@H](O)[C@@H]1O

>  <UniqueID>
283

$$$$
24139
  rDOCK(R)          3D
libRbt.so/2013.1/901 2013/11/27
 20 20  0  0  0  0  0  0  0  0999 V2000
   32.4414   -2.6071  -64.4749 C   0  0  0  0  0  0
   32.6528   -1.2849  -63.8126 C   0  0  0  0  0  0
   31.6587   -0.6381  -63.3850 O   0  0  0  0  0  0
   33.9777   -0.7463  -63.7009 N   0  0  0  0  0  0
   34.2548    0.5784  -63.1361 C   0  0  0  0  0  0
   34.8252    0.4328  -61.7099 C   0  0  0  0  0  0
   33.8975   -0.2239  -60.8861 O   0  0  0  0  0  0
   35.1213    1.7058  -61.1605 O   0  0  0  0  0  0
   36.1671    2.3331  -61.8847 C   0  0  0  0  0  0
   36.5471    3.6236  -61.1386 C   0  0  0  0  0  0
   37.1841    3.3409  -59.9215 O   0  0  0  0  0  0
   35.7113    2.6317  -63.3349 C   0  0  0  0  0  0
   36.7704    3.2027  -64.0604 O   0  0  0  0  0  0
   35.2646    1.3288  -64.0228 C   0  0  0  0  0  0
   34.6783    1.6378  -65.2617 O   0  0  0  0  0  0
   34.7650   -1.2735  -64.1433 H   0  0  0  0  0  0
   34.2947   -0.2723  -59.9771 H   0  0  0  0  0  0
   38.0538    2.9183  -60.1467 H   0  0  0  0  0  0
   36.8464    4.1475  -63.7651 H   0  0  0  0  0  0
   35.4206    1.8045  -65.8995 H   0  0  0  0  0  0
  1  2  1  0  0  0
  2  3  2  0  0  0
  2  4  1  0  0  0
  4  5  1  0  0  0
  4 16  1  0  0  0
  5  6  1  0  0  0
  6  7  1  0  0  0
  6  8  1  0  0  0
  7 17  1  0  0  0
  8  9  1  0  0  0
  9 10  1  0  0  0
  9 12  1  0  0  0
 10 11  1  0  0  0
 11 18  1  0  0  0
 12 13  1  0  0  0
 12 14  1  0  0  0
 13 19  1  0  0  0
 14 15  1  0  0  0
 14  5  1  0  0  0
 15 20  1  0  0  0
M  END
>  <CHROM.0>
-175.06532453,-59.15087488,61.89928331

>  <CHROM.1>
104.13967486,-178.45080150,69.64093704,66.54705922,-76.08178413,-159.65935290
34.77409327,1.05159793,-62.77171581,2.83594194,-0.86395712,-1.48455109

>  <Energy>
24.051031321494786

>  <Genealogy>
CC(=O)N[C@H]1[C@H](O)O[C@H](CO)[C@@H](O)[C@@H]1O (3D coordinates assigned)
CC(=O)N[C@H]1[C@H](O)O[C@H](CO)[C@@H](O)[C@@H]1O (nonaromatic ring conformer: 24.051031321494786 kcal/mol)

>  <Name>
24139

>  <RI>
1.63646e+07

>  <Rbt.Current_Directory>
/home/edward/Documentos/Virtual_Screening/rDock/N-terminal/3

>  <Rbt.Executable>
rbdock ($Id: //depot/dev/client3/rdock/2013.1/src/exe/rbdock.cxx#4 $)

>  <Rbt.Library>
libRbt.so (2013.1, Build901 2013/11/27)

>  <Rbt.Parameter_File>
/home/edward/anaconda3/envs/MD/share/rdock-2013.1-1/data/scripts/dock.prm

>  <Rbt.Receptor>
parameters.prm

>  <SCORE>
-30.5562

>  <SCORE.INTER>
-28.7187

>  <SCORE.INTER.CONST>
1

>  <SCORE.INTER.POLAR>
-6.02184

>  <SCORE.INTER.REPUL>
0

>  <SCORE.INTER.ROT>
2

>  <SCORE.INTER.VDW>
-15.6444

>  <SCORE.INTER.norm>
-1.91458

>  <SCORE.INTRA>
-0.726005

>  <SCORE.INTRA.DIHEDRAL>
-1.92838

>  <SCORE.INTRA.DIHEDRAL.0>
6.94487

>  <SCORE.INTRA.POLAR>
0

>  <SCORE.INTRA.POLAR.0>
0

>  <SCORE.INTRA.REPUL>
0

>  <SCORE.INTRA.REPUL.0>
0

>  <SCORE.INTRA.VDW>
0.238184

>  <SCORE.INTRA.VDW.0>
-1.76769

>  <SCORE.INTRA.norm>
-0.0484003

>  <SCORE.RESTR>
0

>  <SCORE.RESTR.CAVITY>
0

>  <SCORE.RESTR.norm>
0

>  <SCORE.SYSTEM>
-1.11153

>  <SCORE.SYSTEM.CONST>
0

>  <SCORE.SYSTEM.DIHEDRAL>
0.140844

>  <SCORE.SYSTEM.REPUL>
0.026352

>  <SCORE.SYSTEM.VDW>
-1.31371

>  <SCORE.SYSTEM.norm>
-0.0741019

>  <SCORE.heavy>
15

>  <SCORE.norm>
-2.03708

>  <SMILES>
CC(=O)N[C@H]1[C@H](O)O[C@H](CO)[C@@H](O)[C@@H]1O

>  <UniqueID>
287

$$$$
18897
  rDOCK(R)          3D
libRbt.so/2013.1/901 2013/11/27
 18 18  0  0  0  0  0  0  0  0999 V2000
   33.5594    3.5051  -61.3308 N   0  0  0  0  0  0
   34.9685    3.4927  -61.7396 C   0  0  0  0  0  0
   35.8634    2.9032  -60.6275 C   0  0  0  0  0  0
   35.6211    3.5557  -59.4071 O   0  0  0  0  0  0
   35.6378    1.3865  -60.4869 C   0  0  0  0  0  0
   34.3609    1.1436  -59.9484 O   0  0  0  0  0  0
   35.7802    0.7203  -61.8769 C   0  0  0  0  0  0
   35.5343   -0.7955  -61.8130 C   0  0  0  0  0  0
   36.0642   -1.4413  -62.9398 O   0  0  0  0  0  0
   34.8665    1.2856  -62.8061 O   0  0  0  0  0  0
   35.1344    2.6616  -63.0358 C   0  0  0  0  0  0
   36.4163    2.8328  -63.5911 O   0  0  0  0  0  0
   33.3440    2.6005  -60.8518 H   0  0  0  0  0  0
   32.9623    3.5123  -62.1891 H   0  0  0  0  0  0
   34.6668    3.3985  -59.1820 H   0  0  0  0  0  0
   34.3126    0.1758  -59.7331 H   0  0  0  0  0  0
   35.7027   -0.9688  -63.7345 H   0  0  0  0  0  0
   36.5067    3.7956  -63.8165 H   0  0  0  0  0  0
  1  2  1  0  0  0
  1 13  1  0  0  0
  1 14  1  0  0  0
  2  3  1  0  0  0
  3  4  1  0  0  0
  3  5  1  0  0  0
  4 15  1  0  0  0
  5  6  1  0  0  0
  5  7  1  0  0  0
  6 16  1  0  0  0
  7  8  1  0  0  0
  7 10  1  0  0  0
  8  9  1  0  0  0
  9 17  1  0  0  0
 10 11  1  0  0  0
 11 12  1  0  0  0
 11  2  1  0  0  0
 12 18  1  0  0  0
M  END
>  <CHROM.0>
-71.85267558,-60.72184278,-61.35978269

>  <CHROM.1>
-42.27290562,61.07498220,-170.73984056,-161.30312055,-52.21301408,-61.46750190
35.29632844,1.75200987,-61.63998794,-2.49538759,-1.33573597,2.68324373

>  <Energy>
24.66882771450709

>  <Genealogy>
N[C@@H]1[C@@H](O)O[C@H](CO)[C@H](O)[C@@H]1O (chirality)
N[C@@H]1[C@@H](O)O[C@H](CO)[C@H](O)[C@@H]1O (3D coordinates assigned)
N[C@@H]1[C@@H](O)O[C@H](CO)[C@H](O)[C@@H]1O (nonaromatic ring conformer: 24.66882771450709 kcal/mol)

>  <Name>
18897

>  <RI>
1.63646e+07

>  <Rbt.Current_Directory>
/home/edward/Documentos/Virtual_Screening/rDock/N-terminal/3

>  <Rbt.Executable>
rbdock ($Id: //depot/dev/client3/rdock/2013.1/src/exe/rbdock.cxx#4 $)

>  <Rbt.Library>
libRbt.so (2013.1, Build901 2013/11/27)

>  <Rbt.Parameter_File>
/home/edward/anaconda3/envs/MD/share/rdock-2013.1-1/data/scripts/dock.prm

>  <Rbt.Receptor>
parameters.prm

>  <SCORE>
-24.6148

>  <SCORE.INTER>
-20.3212

>  <SCORE.INTER.CONST>
1

>  <SCORE.INTER.POLAR>
-4.47436

>  <SCORE.INTER.REPUL>
0.111486

>  <SCORE.INTER.ROT>
2

>  <SCORE.INTER.VDW>
-13.0658

>  <SCORE.INTER.norm>
-1.69344

>  <SCORE.INTRA>
-4.2877

>  <SCORE.INTRA.DIHEDRAL>
-4.45538

>  <SCORE.INTRA.DIHEDRAL.0>
7.11557

>  <SCORE.INTRA.POLAR>
-0.769745

>  <SCORE.INTRA.POLAR.0>
0

>  <SCORE.INTRA.REPUL>
-0.0656802

>  <SCORE.INTRA.REPUL.0>
0.0656802

>  <SCORE.INTRA.VDW>
0.885525

>  <SCORE.INTRA.VDW.0>
-0.856977

>  <SCORE.INTRA.norm>
-0.357308

>  <SCORE.RESTR>
0

>  <SCORE.RESTR.CAVITY>
0

>  <SCORE.RESTR.norm>
0

>  <SCORE.SYSTEM>
-0.00590387

>  <SCORE.SYSTEM.CONST>
0

>  <SCORE.SYSTEM.DIHEDRAL>
0.682994

>  <SCORE.SYSTEM.VDW>
-0.347401

>  <SCORE.SYSTEM.norm>
-0.000491989

>  <SCORE.heavy>
12

>  <SCORE.norm>
-2.05124

>  <SMILES>
N[C@@H]1[C@@H](O)O[C@H](CO)[C@H](O)[C@@H]1O

>  <UniqueID>
290

$$$$
5300
  rDOCK(R)          3D
libRbt.so/2013.1/901 2013/11/27
 23 23  0  0  0  0  0  0  0  0999 V2000
   35.9155   -2.9741  -63.5321 H   0  0  0  0  0  0
   35.5582   -2.0945  -63.1820 O   0  0  0  0  0  0
   34.2502   -1.6711  -63.4305 C   0  0  0  0  0  0
   33.8292   -0.5427  -62.9378 N   0  0  0  0  0  0
   34.6396    0.3761  -62.1344 C   0  0  0  0  0  0
   33.7073    1.2478  -61.2763 C   0  0  0  0  0  0
   32.9797    0.4186  -60.4111 O   0  0  0  0  0  0
   33.6440   -0.0174  -59.8160 H   0  0  0  0  0  0
   34.4660    2.1610  -60.5029 O   0  0  0  0  0  0
   35.1170    3.1031  -61.3386 C   0  0  0  0  0  0
   35.7689    4.1614  -60.4375 C   0  0  0  0  0  0
   36.6484    3.5581  -59.5289 O   0  0  0  0  0  0
   37.3777    3.1619  -60.0731 H   0  0  0  0  0  0
   36.1672    2.3910  -62.2259 C   0  0  0  0  0  0
   36.7641    3.3198  -63.0950 O   0  0  0  0  0  0
   36.0324    3.8706  -63.4779 H   0  0  0  0  0  0
   35.4886    1.2788  -63.0498 C   0  0  0  0  0  0
   36.4661    0.5052  -63.6971 O   0  0  0  0  0  0
   35.9894   -0.2130  -64.1895 H   0  0  0  0  0  0
   33.3630   -2.4859  -64.2202 N   0  0  0  0  0  0
   33.7626   -3.7918  -64.5569 N   0  0  0  0  0  0
   33.0674   -4.5202  -65.2952 O   0  0  0  0  0  0
   32.0087   -2.0211  -64.5404 C   0  0  0  0  0  0
  1  2  1  0  0  0
  2  3  1  0  0  0
  3  4  2  0  0  0
  3 20  1  0  0  0
  4  5  1  0  0  0
  5  6  1  0  0  0
  6  7  1  0  0  0
  6  9  1  0  0  0
  7  8  1  0  0  0
  9 10  1  0  0  0
 10 11  1  0  0  0
 10 14  1  0  0  0
 11 12  1  0  0  0
 12 13  1  0  0  0
 14 15  1  0  0  0
 14 17  1  0  0  0
 15 16  1  0  0  0
 17 18  1  0  0  0
 17  5  1  0  0  0
 18 19  1  0  0  0
 20 21  1  0  0  0
 20 23  1  0  0  0
 21 22  2  0  0  0
M  END
>  <CHROM.0>
-73.88031170,-176.95918083,61.45428092

>  <CHROM.1>
178.73532345,-156.75431186,63.03984669,56.82305126,64.86290239,-45.28391986
56.91980975,-176.29215069,34.70173678,0.29832884,-62.53660957,-1.96117025
0.58786271,0.73154868

>  <Energy>
28.549020257706246

>  <Genealogy>
CN(N=O)C(O)=NC1C(O)OC(CO)C(O)C1O (tautomer)
CN(N=O)C(O)=N[C@@H]1[C@@H](O)O[C@@H](CO)[C@H](O)[C@H]1O (chirality)
CN(N=O)/C(O)=N/[C@@H]1[C@@H](O)O[C@@H](CO)[C@H](O)[C@H]1O (cis-trans isomerization)
CN(N=O)/C(O)=N/[C@@H]1[C@@H](O)O[C@@H](CO)[C@H](O)[C@H]1O (3D coordinates assigned)
CN(N=O)/C(O)=N/[C@@H]1[C@@H](O)O[C@@H](CO)[C@H](O)[C@H]1O (nonaromatic ring conformer: 28.549020257706246 kcal/mol)

>  <Name>
5300

>  <RI>
1.63646e+07

>  <Rbt.Current_Directory>
/home/edward/Documentos/Virtual_Screening/rDock/N-terminal/3

>  <Rbt.Executable>
rbdock ($Id: //depot/dev/client3/rdock/2013.1/src/exe/rbdock.cxx#4 $)

>  <Rbt.Library>
libRbt.so (2013.1, Build901 2013/11/27)

>  <Rbt.Parameter_File>
/home/edward/anaconda3/envs/MD/share/rdock-2013.1-1/data/scripts/dock.prm

>  <Rbt.Receptor>
parameters.prm

>  <SCORE>
-18.3742

>  <SCORE.INTER>
-16.7298

>  <SCORE.INTER.CONST>
1

>  <SCORE.INTER.POLAR>
-3.33934

>  <SCORE.INTER.REPUL>
0.0441382

>  <SCORE.INTER.ROT>
3

>  <SCORE.INTER.VDW>
-13.9968

>  <SCORE.INTER.norm>
-0.929435

>  <SCORE.INTRA>
-2.07617

>  <SCORE.INTRA.DIHEDRAL>
-4.689

>  <SCORE.INTRA.DIHEDRAL.0>
7.69998

>  <SCORE.INTRA.POLAR>
-0.21978

>  <SCORE.INTRA.POLAR.0>
0

>  <SCORE.INTRA.REPUL>
0

>  <SCORE.INTRA.REPUL.0>
0

>  <SCORE.INTRA.VDW>
1.01559

>  <SCORE.INTRA.VDW.0>
-1.08001

>  <SCORE.INTRA.norm>
-0.115343

>  <SCORE.RESTR>
0

>  <SCORE.RESTR.CAVITY>
0

>  <SCORE.RESTR.norm>
0

>  <SCORE.SYSTEM>
0.431775

>  <SCORE.SYSTEM.CONST>
0

>  <SCORE.SYSTEM.DIHEDRAL>
0.965601

>  <SCORE.SYSTEM.REPUL>
0.0532316

>  <SCORE.SYSTEM.VDW>
-0.317183

>  <SCORE.SYSTEM.norm>
0.0239875

>  <SCORE.heavy>
18

>  <SCORE.norm>
-1.02079

>  <SMILES>
CN(N=O)/C(O)=N/[C@@H]1[C@@H](O)O[C@@H](CO)[C@H](O)[C@H]1O

>  <UniqueID>
292

$$$$
899
  rDOCK(R)          3D
libRbt.so/2013.1/901 2013/11/27
 20 20  0  0  0  0  0  0  0  0999 V2000
   35.6399    6.6824  -59.7652 H   0  0  0  0  0  0
   35.5255    5.7223  -60.0667 O   0  0  0  0  0  0
   34.4834    4.9325  -59.5816 C   0  0  0  0  0  0
   34.3418    3.7037  -59.9804 N   0  0  0  0  0  0
   35.2423    3.0266  -60.9173 C   0  0  0  0  0  0
   35.5219    1.5835  -60.4464 C   0  0  0  0  0  0
   34.3259    0.9101  -60.1488 O   0  0  0  0  0  0
   34.5825   -0.0054  -59.8635 H   0  0  0  0  0  0
   36.3174    0.8467  -61.3685 O   0  0  0  0  0  0
   35.7741    0.7746  -62.6836 C   0  0  0  0  0  0
   34.6046   -0.2296  -62.7819 C   0  0  0  0  0  0
   34.1441   -0.3209  -64.1048 O   0  0  0  0  0  0
   34.9111   -0.6175  -64.6602 H   0  0  0  0  0  0
   35.4491    2.1694  -63.2813 C   0  0  0  0  0  0
   36.6279    2.8456  -63.6535 O   0  0  0  0  0  0
   36.3847    3.7658  -63.9328 H   0  0  0  0  0  0
   34.6083    3.0188  -62.3151 C   0  0  0  0  0  0
   34.5112    4.3298  -62.8127 O   0  0  0  0  0  0
   33.9262    4.8349  -62.1896 H   0  0  0  0  0  0
   33.4933    5.5138  -58.6247 C   0  0  0  0  0  0
  1  2  1  0  0  0
  2  3  1  0  0  0
  3  4  2  0  0  0
  3 20  1  0  0  0
  4  5  1  0  0  0
  5  6  1  0  0  0
  6  7  1  0  0  0
  6  9  1  0  0  0
  7  8  1  0  0  0
  9 10  1  0  0  0
 10 11  1  0  0  0
 10 14  1  0  0  0
 11 12  1  0  0  0
 12 13  1  0  0  0
 14 15  1  0  0  0
 14 17  1  0  0  0
 15 16  1  0  0  0
 17 18  1  0  0  0
 17  5  1  0  0  0
 18 19  1  0  0  0
M  END
>  <CHROM.0>
72.41989751,-176.97993057,-179.77336947

>  <CHROM.1>
179.65015990,137.91392085,179.50463290,-176.98848030,59.22343242,-173.69599433
-61.19140232,35.00374827,2.58827578,-61.55311412,-1.97105379,-1.28441024
-2.89323093

>  <Energy>
32.06582522986338

>  <Genealogy>
CC(O)=NC1C(O)OC(CO)C(O)C1O (tautomer)
CC(O)=N[C@H]1[C@@H](O)O[C@@H](CO)[C@H](O)[C@@H]1O (chirality)
C/C(O)=N\[C@H]1[C@@H](O)O[C@@H](CO)[C@H](O)[C@@H]1O (cis-trans isomerization)
C/C(O)=N\[C@H]1[C@@H](O)O[C@@H](CO)[C@H](O)[C@@H]1O (3D coordinates assigned)
C/C(O)=N\[C@H]1[C@@H](O)O[C@@H](CO)[C@H](O)[C@@H]1O (nonaromatic ring conformer: 32.06582522986338 kcal/mol)

>  <Name>
899

>  <RI>
1.63646e+07

>  <Rbt.Current_Directory>
/home/edward/Documentos/Virtual_Screening/rDock/N-terminal/3

>  <Rbt.Executable>
rbdock ($Id: //depot/dev/client3/rdock/2013.1/src/exe/rbdock.cxx#4 $)

>  <Rbt.Library>
libRbt.so (2013.1, Build901 2013/11/27)

>  <Rbt.Parameter_File>
/home/edward/anaconda3/envs/MD/share/rdock-2013.1-1/data/scripts/dock.prm

>  <Rbt.Receptor>
parameters.prm

>  <SCORE>
-24.5655

>  <SCORE.INTER>
-20.3251

>  <SCORE.INTER.CONST>
1

>  <SCORE.INTER.POLAR>
-4.31797

>  <SCORE.INTER.REPUL>
0.00624588

>  <SCORE.INTER.ROT>
2

>  <SCORE.INTER.VDW>
-13.0752

>  <SCORE.INTER.norm>
-1.355

>  <SCORE.INTRA>
-4.81387

>  <SCORE.INTRA.DIHEDRAL>
-9.43378

>  <SCORE.INTRA.DIHEDRAL.0>
10.634

>  <SCORE.INTRA.POLAR>
-0.101224

>  <SCORE.INTRA.POLAR.0>
0

>  <SCORE.INTRA.REPUL>
0

>  <SCORE.INTRA.REPUL.0>
0

>  <SCORE.INTRA.VDW>
0.247181

>  <SCORE.INTRA.VDW.0>
-1.50935

>  <SCORE.INTRA.norm>
-0.320924

>  <SCORE.RESTR>
0

>  <SCORE.RESTR.CAVITY>
0

>  <SCORE.RESTR.norm>
0

>  <SCORE.SYSTEM>
0.573432

>  <SCORE.SYSTEM.CONST>
0

>  <SCORE.SYSTEM.DIHEDRAL>
0.779931

>  <SCORE.SYSTEM.POLAR>
-0.0182371

>  <SCORE.SYSTEM.REPUL>
0.0599025

>  <SCORE.SYSTEM.VDW>
-0.0540393

>  <SCORE.SYSTEM.norm>
0.0382288

>  <SCORE.heavy>
15

>  <SCORE.norm>
-1.6377

>  <SMILES>
C/C(O)=N\[C@H]1[C@@H](O)O[C@@H](CO)[C@H](O)[C@@H]1O

>  <UniqueID>
297

$$$$
739
  rDOCK(R)          3D
libRbt.so/2013.1/901 2013/11/27
 18 18  0  0  0  0  0  0  0  0999 V2000
   37.4167    3.5235  -60.6425 N   0  0  0  0  0  0
   35.9774    3.2692  -60.5140 C   0  0  0  0  0  0
   35.6766    1.7478  -60.4953 C   0  0  0  0  0  0
   34.3762    1.4905  -60.0230 O   0  0  0  0  0  0
   35.8699    1.1604  -61.7732 O   0  0  0  0  0  0
   34.9913    1.7124  -62.7417 C   0  0  0  0  0  0
   35.1232    0.8957  -64.0362 C   0  0  0  0  0  0
   36.1611    1.3943  -64.8381 O   0  0  0  0  0  0
   35.3022    3.2092  -62.9744 C   0  0  0  0  0  0
   36.5850    3.3553  -63.5298 O   0  0  0  0  0  0
   35.2010    3.9822  -61.6446 C   0  0  0  0  0  0
   33.8458    4.1033  -61.2907 O   0  0  0  0  0  0
   37.9320    2.7769  -60.1215 H   0  0  0  0  0  0
   37.7079    3.4442  -61.6433 H   0  0  0  0  0  0
   34.2956    0.5063  -59.9205 H   0  0  0  0  0  0
   35.8171    2.2145  -65.2784 H   0  0  0  0  0  0
   36.6806    4.3093  -63.7872 H   0  0  0  0  0  0
   33.8064    4.6936  -60.4931 H   0  0  0  0  0  0
  1  2  1  0  0  0
  1 13  1  0  0  0
  1 14  1  0  0  0
  2  3  1  0  0  0
  3  4  1  0  0  0
  3  5  1  0  0  0
  4 15  1  0  0  0
  5  6  1  0  0  0
  6  7  1  0  0  0
  6  9  1  0  0  0
  7  8  1  0  0  0
  8 16  1  0  0  0
  9 10  1  0  0  0
  9 11  1  0  0  0
 10 17  1  0  0  0
 11 12  1  0  0  0
 11  2  1  0  0  0
 12 18  1  0  0  0
M  END
>  <CHROM.0>
-177.83609731,-177.91972186,61.10360860

>  <CHROM.1>
-35.00554146,-172.46869014,-87.28645407,-77.15186772,171.50965097,64.13781640
35.55392389,2.48526062,-62.06048732,-1.89093067,-1.12574933,-2.20062305

>  <Energy>
25.50597409867819

>  <Genealogy>
N[C@@H]1[C@@H](O)O[C@H](CO)[C@H](O)[C@H]1O (chirality)
N[C@@H]1[C@@H](O)O[C@H](CO)[C@H](O)[C@H]1O (3D coordinates assigned)
N[C@@H]1[C@@H](O)O[C@H](CO)[C@H](O)[C@H]1O (nonaromatic ring conformer: 25.50597409867819 kcal/mol)

>  <Name>
739

>  <RI>
1.63646e+07

>  <Rbt.Current_Directory>
/home/edward/Documentos/Virtual_Screening/rDock/N-terminal/3

>  <Rbt.Executable>
rbdock ($Id: //depot/dev/client3/rdock/2013.1/src/exe/rbdock.cxx#4 $)

>  <Rbt.Library>
libRbt.so (2013.1, Build901 2013/11/27)

>  <Rbt.Parameter_File>
/home/edward/anaconda3/envs/MD/share/rdock-2013.1-1/data/scripts/dock.prm

>  <Rbt.Receptor>
parameters.prm

>  <SCORE>
-25.7316

>  <SCORE.INTER>
-24.7042

>  <SCORE.INTER.CONST>
1

>  <SCORE.INTER.POLAR>
-5.38703

>  <SCORE.INTER.REPUL>
0

>  <SCORE.INTER.ROT>
2

>  <SCORE.INTER.VDW>
-13.7883

>  <SCORE.INTER.norm>
-2.05868

>  <SCORE.INTRA>
-0.484257

>  <SCORE.INTRA.DIHEDRAL>
-2.66373

>  <SCORE.INTRA.DIHEDRAL.0>
7.89198

>  <SCORE.INTRA.POLAR>
-0.322223

>  <SCORE.INTRA.POLAR.0>
0

>  <SCORE.INTRA.REPUL>
0

>  <SCORE.INTRA.REPUL.0>
0

>  <SCORE.INTRA.VDW>
1.94316

>  <SCORE.INTRA.VDW.0>
-1.04344

>  <SCORE.INTRA.norm>
-0.0403547

>  <SCORE.RESTR>
0

>  <SCORE.RESTR.CAVITY>
0

>  <SCORE.RESTR.norm>
0

>  <SCORE.SYSTEM>
-0.543174

>  <SCORE.SYSTEM.CONST>
0

>  <SCORE.SYSTEM.DIHEDRAL>
0.0504256

>  <SCORE.SYSTEM.REPUL>
0.0891412

>  <SCORE.SYSTEM.VDW>
-1.01409

>  <SCORE.SYSTEM.norm>
-0.0452645

>  <SCORE.heavy>
12

>  <SCORE.norm>
-2.1443

>  <SMILES>
N[C@@H]1[C@@H](O)O[C@H](CO)[C@H](O)[C@H]1O

>  <UniqueID>
300

$$$$
ZINC000001471333
  rDOCK(R)          3D
libRbt.so/2013.1/901 2013/11/27
 26 27  0  0  0  0  0  0  0  0999 V2000
   31.6952    0.9653  -63.7633 H   0  0  0  0  0  0
   31.6109   -0.0068  -64.0353 O   0  0  0  0  0  0
   32.6724   -0.8967  -63.8729 C   0  0  0  0  0  0
   33.7840   -0.5085  -63.3234 N   0  0  0  0  0  0
   34.0457    0.8576  -62.8643 C   0  0  0  0  0  0
   34.4566    0.8314  -61.3820 C   0  0  0  0  0  0
   33.3870    0.2743  -60.6188 O   0  0  0  0  0  0
   32.2249    0.9658  -60.2429 C   0  0  0  0  0  0
   31.7407    1.9620  -61.0986 C   0  0  0  0  0  0
   30.5868    2.6805  -60.7724 C   0  0  0  0  0  0
   29.8912    2.4007  -59.5872 C   0  0  0  0  0  0
   28.6759    3.1983  -59.2174 C   0  0  0  0  0  0
   30.3812    1.4145  -58.7185 C   0  0  0  0  0  0
   31.5351    0.6956  -59.0447 C   0  0  0  0  0  0
   34.7092    2.1488  -60.9245 O   0  0  0  0  0  0
   35.8447    2.6961  -61.5735 C   0  0  0  0  0  0
   36.1668    4.0417  -60.9022 C   0  0  0  0  0  0
   36.4528    3.8751  -59.5393 O   0  0  0  0  0  0
   37.2215    3.2493  -59.4838 H   0  0  0  0  0  0
   35.5553    2.8670  -63.0870 C   0  0  0  0  0  0
   36.6853    3.3699  -63.7562 O   0  0  0  0  0  0
   36.7296    4.3439  -63.5696 H   0  0  0  0  0  0
   35.1623    1.5107  -63.7031 C   0  0  0  0  0  0
   36.2780    0.6541  -63.7537 O   0  0  0  0  0  0
   35.9791   -0.1884  -64.1854 H   0  0  0  0  0  0
   32.5197   -2.3220  -64.2962 C   0  0  0  0  0  0
  1  2  1  0  0  0
  2  3  1  0  0  0
  3  4  2  0  0  0
  3 26  1  0  0  0
  4  5  1  0  0  0
  5  6  1  0  0  0
  6  7  1  0  0  0
  6 15  1  0  0  0
  7  8  1  0  0  0
  8  9  2  0  0  0
  9 10  1  0  0  0
 10 11  2  0  0  0
 11 12  1  0  0  0
 11 13  1  0  0  0
 13 14  2  0  0  0
 14  8  1  0  0  0
 15 16  1  0  0  0
 16 17  1  0  0  0
 16 20  1  0  0  0
 17 18  1  0  0  0
 18 19  1  0  0  0
 20 21  1  0  0  0
 20 23  1  0  0  0
 21 22  1  0  0  0
 23 24  1  0  0  0
 23  5  1  0  0  0
 24 25  1  0  0  0
M  END
>  <CHROM.0>
-173.12777934,-60.47235964,65.84135142

>  <CHROM.1>
2.41708093,124.65473600,-78.47049668,31.55925291,60.39286401,58.28432765
-77.78399857,60.78182947,33.48278776,1.50282539,-61.69927997,2.81330144,0.38197999
0.82185991

>  <Energy>
38.672288406561556

>  <Genealogy>
CC(O)=N[C@H]1[C@H](Oc2ccc(C)cc2)O[C@H](CO)[C@@H](O)[C@H]1O (tautomer)
C/C(O)=N/[C@H]1[C@H](Oc2ccc(C)cc2)O[C@H](CO)[C@@H](O)[C@H]1O (cis-trans isomerization)
C/C(O)=N/[C@H]1[C@H](Oc2ccc(C)cc2)O[C@H](CO)[C@@H](O)[C@H]1O (3D coordinates assigned)
C/C(O)=N/[C@H]1[C@H](Oc2ccc(C)cc2)O[C@H](CO)[C@@H](O)[C@H]1O (nonaromatic ring conformer: 38.672288406561556 kcal/mol)

>  <Name>
ZINC000001471333

>  <RI>
1.63646e+07

>  <Rbt.Current_Directory>
/home/edward/Documentos/Virtual_Screening/rDock/N-terminal/3

>  <Rbt.Executable>
rbdock ($Id: //depot/dev/client3/rdock/2013.1/src/exe/rbdock.cxx#4 $)

>  <Rbt.Library>
libRbt.so (2013.1, Build901 2013/11/27)

>  <Rbt.Parameter_File>
/home/edward/anaconda3/envs/MD/share/rdock-2013.1-1/data/scripts/dock.prm

>  <Rbt.Receptor>
parameters.prm

>  <SCORE>
-24.5303

>  <SCORE.INTER>
-19.5334

>  <SCORE.INTER.CONST>
1

>  <SCORE.INTER.POLAR>
-4.33954

>  <SCORE.INTER.REPUL>
0.446496

>  <SCORE.INTER.ROT>
4

>  <SCORE.INTER.VDW>
-16.4115

>  <SCORE.INTER.norm>
-0.887883

>  <SCORE.INTRA>
-3.94936

>  <SCORE.INTRA.DIHEDRAL>
-7.10056

>  <SCORE.INTRA.DIHEDRAL.0>
11.5102

>  <SCORE.INTRA.POLAR>
-0.0332308

>  <SCORE.INTRA.POLAR.0>
0

>  <SCORE.INTRA.REPUL>
0

>  <SCORE.INTRA.REPUL.0>
0

>  <SCORE.INTRA.VDW>
-0.286101

>  <SCORE.INTRA.VDW.0>
-1.90203

>  <SCORE.INTRA.norm>
-0.179516

>  <SCORE.RESTR>
0

>  <SCORE.RESTR.CAVITY>
0

>  <SCORE.RESTR.norm>
0

>  <SCORE.SYSTEM>
-1.04748

>  <SCORE.SYSTEM.CONST>
0

>  <SCORE.SYSTEM.DIHEDRAL>
0.398729

>  <SCORE.SYSTEM.REPUL>
0.020873

>  <SCORE.SYSTEM.VDW>
-1.35121

>  <SCORE.SYSTEM.norm>
-0.0476129

>  <SCORE.heavy>
22

>  <SCORE.norm>
-1.11501

>  <SMILES>
C/C(O)=N/[C@H]1[C@H](Oc2ccc(C)cc2)O[C@H](CO)[C@@H](O)[C@H]1O

>  <UniqueID>
301

$$$$
ZINC000003956714
  rDOCK(R)          3D
libRbt.so/2013.1/901 2013/11/27
 26 27  0  0  0  0  0  0  0  0999 V2000
   33.1680    9.5381  -58.6306 H   0  0  0  0  0  0
   33.3383    8.5534  -58.7964 O   0  0  0  0  0  0
   34.5829    7.9817  -58.5334 C   0  0  0  0  0  0
   34.8075    6.7305  -58.8024 N   0  0  0  0  0  0
   33.8105    5.8103  -59.3550 C   0  0  0  0  0  0
   34.4802    4.8850  -60.3921 C   0  0  0  0  0  0
   35.6020    4.2229  -59.8197 O   0  0  0  0  0  0
   36.5713    3.8935  -60.7994 C   0  0  0  0  0  0
   36.0971    2.7619  -61.6720 C   0  0  0  0  0  0
   36.0472    1.4541  -61.1624 C   0  0  0  0  0  0
   35.5683    0.4073  -61.9560 C   0  0  0  0  0  0
   35.1379    0.6585  -63.2617 C   0  0  0  0  0  0
   35.1841    1.9575  -63.7754 C   0  0  0  0  0  0
   35.6595    3.0077  -62.9840 C   0  0  0  0  0  0
   33.5421    3.9591  -60.9229 O   0  0  0  0  0  0
   33.0203    3.0952  -59.9234 C   0  0  0  0  0  0
   32.1231    2.0627  -60.6218 C   0  0  0  0  0  0
   32.8621    1.2966  -61.5370 O   0  0  0  0  0  0
   32.2415    0.6284  -61.9285 H   0  0  0  0  0  0
   32.2339    3.9114  -58.8635 C   0  0  0  0  0  0
   31.6753    3.0921  -57.8651 O   0  0  0  0  0  0
   32.4179    2.6223  -57.4037 H   0  0  0  0  0  0
   33.1386    4.9903  -58.2368 C   0  0  0  0  0  0
   34.1235    4.4021  -57.4214 O   0  0  0  0  0  0
   33.6505    3.8863  -56.7171 H   0  0  0  0  0  0
   35.6846    8.8231  -57.9745 C   0  0  0  0  0  0
  1  2  1  0  0  0
  2  3  1  0  0  0
  3  4  2  0  0  0
  3 26  1  0  0  0
  4  5  1  0  0  0
  5  6  1  0  0  0
  6  7  1  0  0  0
  6 15  1  0  0  0
  7  8  1  0  0  0
  8  9  1  0  0  0
  9 10  2  0  0  0
 10 11  1  0  0  0
 11 12  2  0  0  0
 12 13  1  0  0  0
 13 14  2  0  0  0
 14  9  1  0  0  0
 15 16  1  0  0  0
 16 17  1  0  0  0
 16 20  1  0  0  0
 17 18  1  0  0  0
 18 19  1  0  0  0
 20 21  1  0  0  0
 20 23  1  0  0  0
 21 22  1  0  0  0
 23 24  1  0  0  0
 23  5  1  0  0  0
 24 25  1  0  0  0
M  END
>  <CHROM.0>
71.75367077,-58.60367912,66.72346664

>  <CHROM.1>
-177.08611396,140.81505819,-152.44708091,-72.22684925,-72.78768830,61.25210257
177.86312512,60.92511032,179.95090401,34.26989780,4.03938869,-60.13051604
-1.69213089,-0.60184933,-2.61299143

>  <Energy>
43.97235051542483

>  <Genealogy>
CC(O)=N[C@H]1[C@@H](OCc2ccccc2)O[C@H](CO)[C@@H](O)[C@H]1O (tautomer)
C/C(O)=N\[C@H]1[C@@H](OCc2ccccc2)O[C@H](CO)[C@@H](O)[C@H]1O (cis-trans isomerization)
C/C(O)=N\[C@H]1[C@@H](OCc2ccccc2)O[C@H](CO)[C@@H](O)[C@H]1O (3D coordinates assigned)
C/C(O)=N\[C@H]1[C@@H](OCc2ccccc2)O[C@H](CO)[C@@H](O)[C@H]1O (nonaromatic ring conformer: 43.97235051542483 kcal/mol)

>  <Name>
ZINC000003956714

>  <RI>
1.63646e+07

>  <Rbt.Current_Directory>
/home/edward/Documentos/Virtual_Screening/rDock/N-terminal/3

>  <Rbt.Executable>
rbdock ($Id: //depot/dev/client3/rdock/2013.1/src/exe/rbdock.cxx#4 $)

>  <Rbt.Library>
libRbt.so (2013.1, Build901 2013/11/27)

>  <Rbt.Parameter_File>
/home/edward/anaconda3/envs/MD/share/rdock-2013.1-1/data/scripts/dock.prm

>  <Rbt.Receptor>
parameters.prm

>  <SCORE>
-20.3419

>  <SCORE.INTER>
-13.8787

>  <SCORE.INTER.CONST>
1

>  <SCORE.INTER.POLAR>
-1.59029

>  <SCORE.INTER.REPUL>
0

>  <SCORE.INTER.ROT>
5

>  <SCORE.INTER.VDW>
-18.8717

>  <SCORE.INTER.norm>
-0.630851

>  <SCORE.INTRA>
-6.44613

>  <SCORE.INTRA.DIHEDRAL>
-12.8662

>  <SCORE.INTRA.DIHEDRAL.0>
18.2412

>  <SCORE.INTRA.POLAR>
0

>  <SCORE.INTRA.POLAR.0>
0

>  <SCORE.INTRA.REPUL>
-0.0977273

>  <SCORE.INTRA.REPUL.0>
0.0977273

>  <SCORE.INTRA.VDW>
0.475621

>  <SCORE.INTRA.VDW.0>
-3.96098

>  <SCORE.INTRA.norm>
-0.293006

>  <SCORE.RESTR>
0

>  <SCORE.RESTR.CAVITY>
0

>  <SCORE.RESTR.norm>
0

>  <SCORE.SYSTEM>
-0.017034

>  <SCORE.SYSTEM.CONST>
0

>  <SCORE.SYSTEM.DIHEDRAL>
0.89089

>  <SCORE.SYSTEM.POLAR>
-0.020459

>  <SCORE.SYSTEM.REPUL>
0.00468469

>  <SCORE.SYSTEM.VDW>
-0.416342

>  <SCORE.SYSTEM.norm>
-0.000774274

>  <SCORE.heavy>
22

>  <SCORE.norm>
-0.924631

>  <SMILES>
C/C(O)=N\[C@H]1[C@@H](OCc2ccccc2)O[C@H](CO)[C@@H](O)[C@H]1O

>  <UniqueID>
305

$$$$
ZINC000004027857
  rDOCK(R)          3D
libRbt.so/2013.1/901 2013/11/27
 25 27  0  0  0  0  0  0  0  0999 V2000
   38.5097    3.1615  -60.4323 H   0  0  0  0  0  0
   37.7161    3.7695  -60.2700 O   0  0  0  0  0  0
   36.4684    3.5097  -60.8315 C   0  0  0  0  0  0
   36.3547    2.4941  -61.6390 N   0  0  0  0  0  0
   35.1340    2.0401  -62.3144 C   0  0  0  0  0  0
   34.3297    1.0809  -61.4040 C   0  0  0  0  0  0
   35.1563    0.0544  -60.9112 O   0  0  0  0  0  0
   34.6527   -0.4007  -60.1868 H   0  0  0  0  0  0
   33.1758    0.4726  -62.2114 C   0  0  0  0  0  0
   32.4993   -0.5057  -61.4458 O   0  0  0  0  0  0
   31.4289   -1.0914  -62.1841 C   0  0  0  0  0  0
   30.2275   -0.1694  -62.3494 C   0  0  0  0  0  0
   29.4663   -0.1953  -63.5338 C   0  0  0  0  0  0
   28.3984    0.6896  -63.7098 C   0  0  0  0  0  0
   28.0956    1.6279  -62.7209 C   0  0  0  0  0  0
   28.8681    1.6909  -61.5592 C   0  0  0  0  0  0
   29.9369    0.8079  -61.3785 C   0  0  0  0  0  0
   31.8669   -1.6809  -63.4069 O   0  0  0  0  0  0
   32.5403   -0.7489  -64.2319 C   0  0  0  0  0  0
   33.7279   -0.1502  -63.4951 C   0  0  0  0  0  0
   34.3549    0.8371  -64.2926 O   0  0  0  0  0  0
   35.5133    1.3284  -63.6327 C   0  0  0  0  0  0
   36.1570    2.2470  -64.4734 O   0  0  0  0  0  0
   35.4799    2.9336  -64.7094 H   0  0  0  0  0  0
   35.3105    4.4152  -60.5087 C   0  0  0  0  0  0
  1  2  1  0  0  0
  2  3  1  0  0  0
  3  4  2  0  0  0
  3 25  1  0  0  0
  4  5  1  0  0  0
  5  6  1  0  0  0
  6  7  1  0  0  0
  6  9  1  0  0  0
  7  8  1  0  0  0
  9 10  1  0  0  0
 10 11  1  0  0  0
 11 12  1  0  0  0
 11 18  1  0  0  0
 12 13  2  0  0  0
 13 14  1  0  0  0
 14 15  2  0  0  0
 15 16  1  0  0  0
 16 17  2  0  0  0
 17 12  1  0  0  0
 18 19  1  0  0  0
 19 20  1  0  0  0
 20 21  1  0  0  0
 20  9  1  0  0  0
 21 22  1  0  0  0
 22 23  1  0  0  0
 22  5  1  0  0  0
 23 24  1  0  0  0
M  END
>  <CHROM.0>
72.54361193,-61.85598128,-179.82370439

>  <CHROM.1>
-3.61029349,-86.33868191,167.54997586,144.85565361,-65.65559688,33.17798600
1.03544961,-62.38180271,0.38807435,0.12171023,0.71870881

>  <Energy>
53.3692684376483

>  <Genealogy>
CC(O)=N[C@@H]1[C@H](O)[C@@H]2O[C@@H](c3ccccc3)OC[C@H]2O[C@H]1O (tautomer)
C/C(O)=N\[C@@H]1[C@H](O)[C@@H]2O[C@@H](c3ccccc3)OC[C@H]2O[C@H]1O (cis-trans isomerization)
C/C(O)=N\[C@@H]1[C@H](O)[C@@H]2O[C@@H](c3ccccc3)OC[C@H]2O[C@H]1O (3D coordinates assigned)
C/C(O)=N\[C@@H]1[C@H](O)[C@@H]2O[C@@H](c3ccccc3)OC[C@H]2O[C@H]1O (nonaromatic ring conformer: 53.3692684376483 kcal/mol)

>  <Name>
ZINC000004027857

>  <RI>
1.63646e+07

>  <Rbt.Current_Directory>
/home/edward/Documentos/Virtual_Screening/rDock/N-terminal/3

>  <Rbt.Executable>
rbdock ($Id: //depot/dev/client3/rdock/2013.1/src/exe/rbdock.cxx#4 $)

>  <Rbt.Library>
libRbt.so (2013.1, Build901 2013/11/27)

>  <Rbt.Parameter_File>
/home/edward/anaconda3/envs/MD/share/rdock-2013.1-1/data/scripts/dock.prm

>  <Rbt.Receptor>
parameters.prm

>  <SCORE>
-18.3086

>  <SCORE.INTER>
-17.3581

>  <SCORE.INTER.CONST>
1

>  <SCORE.INTER.POLAR>
-2.81752

>  <SCORE.INTER.REPUL>
0.055476

>  <SCORE.INTER.ROT>
2

>  <SCORE.INTER.VDW>
-15.4559

>  <SCORE.INTER.norm>
-0.789003

>  <SCORE.INTRA>
-0.93863

>  <SCORE.INTRA.DIHEDRAL>
-2.04036

>  <SCORE.INTRA.DIHEDRAL.0>
5.05288

>  <SCORE.INTRA.POLAR>
0

>  <SCORE.INTRA.POLAR.0>
0

>  <SCORE.INTRA.REPUL>
0

>  <SCORE.INTRA.REPUL.0>
0

>  <SCORE.INTRA.VDW>
0.0815495

>  <SCORE.INTRA.VDW.0>
-1.66066

>  <SCORE.INTRA.norm>
-0.042665

>  <SCORE.RESTR>
0

>  <SCORE.RESTR.CAVITY>
0

>  <SCORE.RESTR.norm>
0

>  <SCORE.SYSTEM>
-0.0119268

>  <SCORE.SYSTEM.CONST>
0

>  <SCORE.SYSTEM.DIHEDRAL>
0.766079

>  <SCORE.SYSTEM.POLAR>
-0.017831

>  <SCORE.SYSTEM.REPUL>
0.00699194

>  <SCORE.SYSTEM.VDW>
-0.3693

>  <SCORE.SYSTEM.norm>
-0.000542125

>  <SCORE.heavy>
22

>  <SCORE.norm>
-0.83221

>  <SMILES>
C/C(O)=N\[C@@H]1[C@H](O)[C@@H]2O[C@@H](c3ccccc3)OC[C@H]2O[C@H]1O

>  <UniqueID>
309

$$$$
ZINC000004027859
  rDOCK(R)          3D
libRbt.so/2013.1/901 2013/11/27
 25 27  0  0  0  0  0  0  0  0999 V2000
   36.1436   -1.5710  -62.5814 H   0  0  0  0  0  0
   35.5077   -2.1527  -63.1136 O   0  0  0  0  0  0
   34.2879   -1.6569  -63.5725 C   0  0  0  0  0  0
   33.9459   -0.4228  -63.3507 N   0  0  0  0  0  0
   34.7651    0.5572  -62.6327 C   0  0  0  0  0  0
   34.0733    0.9303  -61.3017 C   0  0  0  0  0  0
   32.7335    1.3013  -61.5215 O   0  0  0  0  0  0
   32.7435    2.0639  -62.1568 H   0  0  0  0  0  0
   34.8346    2.0940  -60.6571 C   0  0  0  0  0  0
   34.1756    2.5586  -59.5023 O   0  0  0  0  0  0
   34.9322    3.5849  -58.8561 C   0  0  0  0  0  0
   34.0257    4.6893  -58.3581 C   0  0  0  0  0  0
   34.2476    5.2504  -57.0885 C   0  0  0  0  0  0
   33.4424    6.2961  -56.6265 C   0  0  0  0  0  0
   32.4179    6.7998  -57.4318 C   0  0  0  0  0  0
   32.1991    6.2612  -58.7020 C   0  0  0  0  0  0
   33.0006    5.2147  -59.1680 C   0  0  0  0  0  0
   36.0035    4.1271  -59.6324 O   0  0  0  0  0  0
   35.5976    4.4422  -60.9534 C   0  0  0  0  0  0
   34.9411    3.2445  -61.6599 C   0  0  0  0  0  0
   35.6970    2.8330  -62.7845 O   0  0  0  0  0  0
   34.9910    1.8267  -63.5029 C   0  0  0  0  0  0
   35.7107    1.5009  -64.6619 O   0  0  0  0  0  0
   35.6364    2.2758  -65.2785 H   0  0  0  0  0  0
   33.3703   -2.5460  -64.3482 C   0  0  0  0  0  0
  1  2  1  0  0  0
  2  3  1  0  0  0
  3  4  2  0  0  0
  3 25  1  0  0  0
  4  5  1  0  0  0
  5  6  1  0  0  0
  6  7  1  0  0  0
  6  9  1  0  0  0
  7  8  1  0  0  0
  9 10  1  0  0  0
 10 11  1  0  0  0
 11 12  1  0  0  0
 11 18  1  0  0  0
 12 13  2  0  0  0
 13 14  1  0  0  0
 14 15  2  0  0  0
 15 16  1  0  0  0
 16 17  2  0  0  0
 17 12  1  0  0  0
 18 19  1  0  0  0
 19 20  1  0  0  0
 20 21  1  0  0  0
 20  9  1  0  0  0
 21 22  1  0  0  0
 22 23  1  0  0  0
 22  5  1  0  0  0
 23 24  1  0  0  0
M  END
>  <CHROM.0>
-175.41266206,-60.10919959,-60.69703479

>  <CHROM.1>
1.37355294,-113.09976370,-57.95908064,137.87641862,166.40467900,34.35473099
2.48149347,-60.99421904,1.41479842,-0.73754949,-2.52451949

>  <Energy>
56.9593281129587

>  <Genealogy>
CC(O)=N[C@@H]1[C@H](O)[C@@H]2O[C@H](c3ccccc3)OC[C@H]2O[C@H]1O (tautomer)
C/C(O)=N\[C@@H]1[C@H](O)[C@@H]2O[C@H](c3ccccc3)OC[C@H]2O[C@H]1O (cis-trans isomerization)
C/C(O)=N\[C@@H]1[C@H](O)[C@@H]2O[C@H](c3ccccc3)OC[C@H]2O[C@H]1O (3D coordinates assigned)
C/C(O)=N\[C@@H]1[C@H](O)[C@@H]2O[C@H](c3ccccc3)OC[C@H]2O[C@H]1O (nonaromatic ring conformer: 56.9593281129587 kcal/mol)

>  <Name>
ZINC000004027859

>  <RI>
1.63646e+07

>  <Rbt.Current_Directory>
/home/edward/Documentos/Virtual_Screening/rDock/N-terminal/3

>  <Rbt.Executable>
rbdock ($Id: //depot/dev/client3/rdock/2013.1/src/exe/rbdock.cxx#4 $)

>  <Rbt.Library>
libRbt.so (2013.1, Build901 2013/11/27)

>  <Rbt.Parameter_File>
/home/edward/anaconda3/envs/MD/share/rdock-2013.1-1/data/scripts/dock.prm

>  <Rbt.Receptor>
parameters.prm

>  <SCORE>
-20.0788

>  <SCORE.INTER>
-17.678

>  <SCORE.INTER.CONST>
1

>  <SCORE.INTER.POLAR>
-2.65936

>  <SCORE.INTER.REPUL>
0.0644225

>  <SCORE.INTER.ROT>
2

>  <SCORE.INTER.VDW>
-16.3583

>  <SCORE.INTER.norm>
-0.803545

>  <SCORE.INTRA>
-1.41593

>  <SCORE.INTRA.DIHEDRAL>
-3.72715

>  <SCORE.INTRA.DIHEDRAL.0>
5.4916

>  <SCORE.INTRA.POLAR>
0

>  <SCORE.INTRA.POLAR.0>
0

>  <SCORE.INTRA.REPUL>
0

>  <SCORE.INTRA.REPUL.0>
0

>  <SCORE.INTRA.VDW>
0.447641

>  <SCORE.INTRA.VDW.0>
-1.97228

>  <SCORE.INTRA.norm>
-0.0643607

>  <SCORE.RESTR>
0

>  <SCORE.RESTR.CAVITY>
0

>  <SCORE.RESTR.norm>
0

>  <SCORE.SYSTEM>
-0.98488

>  <SCORE.SYSTEM.CONST>
0

>  <SCORE.SYSTEM.DIHEDRAL>
0.105804

>  <SCORE.SYSTEM.REPUL>
0.027327

>  <SCORE.SYSTEM.VDW>
-1.17442

>  <SCORE.SYSTEM.norm>
-0.0447673

>  <SCORE.heavy>
22

>  <SCORE.norm>
-0.912672

>  <SMILES>
C/C(O)=N\[C@@H]1[C@H](O)[C@@H]2O[C@H](c3ccccc3)OC[C@H]2O[C@H]1O

>  <UniqueID>
312

$$$$
ZINC000012364260
  rDOCK(R)          3D
libRbt.so/2013.1/901 2013/11/27
 25 27  0  0  0  0  0  0  0  0999 V2000
   34.2891    4.7104  -55.9659 H   0  0  0  0  0  0
   33.5194    5.1214  -56.4813 O   0  0  0  0  0  0
   33.2226    4.7125  -57.7783 C   0  0  0  0  0  0
   34.0648    3.9417  -58.4073 N   0  0  0  0  0  0
   33.9359    3.4293  -59.7761 C   0  0  0  0  0  0
   34.2159    4.5508  -60.8096 C   0  0  0  0  0  0
   35.4288    5.2036  -60.5262 O   0  0  0  0  0  0
   35.5268    5.9202  -61.2061 H   0  0  0  0  0  0
   34.2018    4.0535  -62.1429 O   0  0  0  0  0  0
   35.1891    3.0523  -62.3218 C   0  0  0  0  0  0
   35.1894    2.5710  -63.7645 C   0  0  0  0  0  0
   36.1229    1.5217  -63.9357 O   0  0  0  0  0  0
   35.8568    0.4255  -63.0633 C   0  0  0  0  0  0
   34.6465   -0.4018  -63.4770 C   0  0  0  0  0  0
   33.4327    0.2283  -63.8126 C   0  0  0  0  0  0
   32.3051   -0.5320  -64.1369 C   0  0  0  0  0  0
   32.3667   -1.9266  -64.1026 C   0  0  0  0  0  0
   33.5529   -2.5635  -63.7320 C   0  0  0  0  0  0
   34.6833   -1.8076  -63.4070 C   0  0  0  0  0  0
   35.8406    0.8120  -61.6910 O   0  0  0  0  0  0
   34.8872    1.8300  -61.4537 C   0  0  0  0  0  0
   34.9002    2.2439  -59.9750 C   0  0  0  0  0  0
   36.1993    2.6033  -59.5717 O   0  0  0  0  0  0
   36.4149    3.4616  -60.0214 H   0  0  0  0  0  0
   31.9264    5.1616  -58.3875 C   0  0  0  0  0  0
  1  2  1  0  0  0
  2  3  1  0  0  0
  3  4  2  0  0  0
  3 25  1  0  0  0
  4  5  1  0  0  0
  5  6  1  0  0  0
  6  7  1  0  0  0
  6  9  1  0  0  0
  7  8  1  0  0  0
  9 10  1  0  0  0
 10 11  1  0  0  0
 11 12  1  0  0  0
 12 13  1  0  0  0
 13 14  1  0  0  0
 13 20  1  0  0  0
 14 15  2  0  0  0
 15 16  1  0  0  0
 16 17  2  0  0  0
 17 18  1  0  0  0
 18 19  2  0  0  0
 19 14  1  0  0  0
 20 21  1  0  0  0
 21 22  1  0  0  0
 21 10  1  0  0  0
 22 23  1  0  0  0
 22  5  1  0  0  0
 23 24  1  0  0  0
M  END
>  <CHROM.0>
-177.05406743,61.07278484,-179.71976987

>  <CHROM.1>
-10.44517315,74.38799631,-178.30531107,-47.76272390,-50.50529611,34.39884042
2.13423647,-61.40390254,1.60870452,0.62231722,0.74599369

>  <Energy>
55.1745251771166

>  <Genealogy>
CC(O)=N[C@H]1[C@@H](O)O[C@@H]2CO[C@H](c3ccccc3)O[C@H]2[C@H]1O (tautomer)
C/C(O)=N/[C@H]1[C@@H](O)O[C@@H]2CO[C@H](c3ccccc3)O[C@H]2[C@H]1O (cis-trans isomerization)
C/C(O)=N/[C@H]1[C@@H](O)O[C@@H]2CO[C@H](c3ccccc3)O[C@H]2[C@H]1O (3D coordinates assigned)
C/C(O)=N/[C@H]1[C@@H](O)O[C@@H]2CO[C@H](c3ccccc3)O[C@H]2[C@H]1O (nonaromatic ring conformer: 55.1745251771166 kcal/mol)

>  <Name>
ZINC000012364260

>  <RI>
1.63646e+07

>  <Rbt.Current_Directory>
/home/edward/Documentos/Virtual_Screening/rDock/N-terminal/3

>  <Rbt.Executable>
rbdock ($Id: //depot/dev/client3/rdock/2013.1/src/exe/rbdock.cxx#4 $)

>  <Rbt.Library>
libRbt.so (2013.1, Build901 2013/11/27)

>  <Rbt.Parameter_File>
/home/edward/anaconda3/envs/MD/share/rdock-2013.1-1/data/scripts/dock.prm

>  <Rbt.Receptor>
parameters.prm

>  <SCORE>
-17.6592

>  <SCORE.INTER>
-15.6497

>  <SCORE.INTER.CONST>
1

>  <SCORE.INTER.POLAR>
-1.86831

>  <SCORE.INTER.REPUL>
0.250506

>  <SCORE.INTER.ROT>
2

>  <SCORE.INTER.VDW>
-17.9499

>  <SCORE.INTER.norm>
-0.711348

>  <SCORE.INTRA>
-1.7813

>  <SCORE.INTRA.DIHEDRAL>
-0.374505

>  <SCORE.INTRA.DIHEDRAL.0>
4.61086

>  <SCORE.INTRA.POLAR>
-0.748996

>  <SCORE.INTRA.POLAR.0>
0

>  <SCORE.INTRA.REPUL>
0

>  <SCORE.INTRA.REPUL.0>
0

>  <SCORE.INTRA.VDW>
0.95254

>  <SCORE.INTRA.VDW.0>
-1.89956

>  <SCORE.INTRA.norm>
-0.0809681

>  <SCORE.RESTR>
0

>  <SCORE.RESTR.CAVITY>
0

>  <SCORE.RESTR.norm>
0

>  <SCORE.SYSTEM>
-0.228264

>  <SCORE.SYSTEM.CONST>
0

>  <SCORE.SYSTEM.DIHEDRAL>
0.0488073

>  <SCORE.SYSTEM.REPUL>
0.172011

>  <SCORE.SYSTEM.VDW>
-1.11272

>  <SCORE.SYSTEM.norm>
-0.0103756

>  <SCORE.heavy>
22

>  <SCORE.norm>
-0.802692

>  <SMILES>
C/C(O)=N/[C@H]1[C@@H](O)O[C@@H]2CO[C@H](c3ccccc3)O[C@H]2[C@H]1O

>  <UniqueID>
313

$$$$
ZINC000013545464
  rDOCK(R)          3D
libRbt.so/2013.1/901 2013/11/27
 25 26  0  0  0  0  0  0  0  0999 V2000
   32.3135   -2.2479  -64.4582 C   0  0  0  0  0  0
   32.5782   -0.9130  -63.8422 C   0  0  0  0  0  0
   31.6180   -0.2529  -63.3611 O   0  0  0  0  0  0
   33.9237   -0.4213  -63.7480 N   0  0  0  0  0  0
   34.2724    0.8281  -63.0611 C   0  0  0  0  0  0
   34.7226    0.5609  -61.6050 C   0  0  0  0  0  0
   33.6588   -0.0566  -60.8745 O   0  0  0  0  0  0
   32.3477    0.4284  -60.7247 C   0  0  0  0  0  0
   32.1152    1.7804  -61.0103 C   0  0  0  0  0  0
   30.8321    2.3227  -60.8929 C   0  0  0  0  0  0
   29.7681    1.5182  -60.4805 C   0  0  0  0  0  0
   29.9871    0.1719  -60.1813 C   0  0  0  0  0  0
   31.2691   -0.3751  -60.2981 C   0  0  0  0  0  0
   35.0150    1.7928  -60.9683 O   0  0  0  0  0  0
   36.1418    2.4224  -61.5580 C   0  0  0  0  0  0
   36.4833    3.6584  -60.7123 C   0  0  0  0  0  0
   37.1849    3.2926  -59.5528 O   0  0  0  0  0  0
   35.8241    2.8092  -63.0294 C   0  0  0  0  0  0
   36.9081    3.4469  -63.6604 O   0  0  0  0  0  0
   35.3846    1.5654  -63.8291 C   0  0  0  0  0  0
   36.4781    0.7022  -64.0307 O   0  0  0  0  0  0
   34.6946   -1.0290  -64.1065 H   0  0  0  0  0  0
   38.0683    2.9448  -59.8420 H   0  0  0  0  0  0
   36.8401    4.4199  -63.4767 H   0  0  0  0  0  0
   36.7500    0.3620  -63.1386 H   0  0  0  0  0  0
  1  2  1  0  0  0
  2  3  2  0  0  0
  2  4  1  0  0  0
  4  5  1  0  0  0
  4 22  1  0  0  0
  5  6  1  0  0  0
  6  7  1  0  0  0
  6 14  1  0  0  0
  7  8  1  0  0  0
  8  9  2  0  0  0
  9 10  1  0  0  0
 10 11  2  0  0  0
 11 12  1  0  0  0
 12 13  2  0  0  0
 13  8  1  0  0  0
 14 15  1  0  0  0
 15 16  1  0  0  0
 15 18  1  0  0  0
 16 17  1  0  0  0
 17 23  1  0  0  0
 18 19  1  0  0  0
 18 20  1  0  0  0
 19 24  1  0  0  0
 20 21  1  0  0  0
 20  5  1  0  0  0
 21 25  1  0  0  0
M  END
>  <CHROM.0>
-176.91786475,-62.12369640,58.90930905

>  <CHROM.1>
95.70636245,-54.88143271,-17.39195836,78.95233056,66.93316625,-87.75735986
-55.11683860,33.88451594,1.11821308,-62.02406527,-2.92544765,0.42037528,0.94014858

>  <Energy>
40.03931080840346

>  <Genealogy>
CC(=O)N[C@H]1[C@H](Oc2ccccc2)O[C@H](CO)[C@@H](O)[C@H]1O (3D coordinates assigned)
CC(=O)N[C@H]1[C@H](Oc2ccccc2)O[C@H](CO)[C@@H](O)[C@H]1O (nonaromatic ring conformer: 40.03931080840346 kcal/mol)

>  <Name>
ZINC000013545464

>  <RI>
1.63646e+07

>  <Rbt.Current_Directory>
/home/edward/Documentos/Virtual_Screening/rDock/N-terminal/3

>  <Rbt.Executable>
rbdock ($Id: //depot/dev/client3/rdock/2013.1/src/exe/rbdock.cxx#4 $)

>  <Rbt.Library>
libRbt.so (2013.1, Build901 2013/11/27)

>  <Rbt.Parameter_File>
/home/edward/anaconda3/envs/MD/share/rdock-2013.1-1/data/scripts/dock.prm

>  <Rbt.Receptor>
parameters.prm

>  <SCORE>
-22.7618

>  <SCORE.INTER>
-18.6967

>  <SCORE.INTER.CONST>
1

>  <SCORE.INTER.POLAR>
-4.28992

>  <SCORE.INTER.REPUL>
0.506849

>  <SCORE.INTER.ROT>
4

>  <SCORE.INTER.VDW>
-16.0452

>  <SCORE.INTER.norm>
-0.890317

>  <SCORE.INTRA>
-2.95869

>  <SCORE.INTRA.DIHEDRAL>
-8.3774

>  <SCORE.INTRA.DIHEDRAL.0>
14.6933

>  <SCORE.INTRA.POLAR>
0

>  <SCORE.INTRA.POLAR.0>
0

>  <SCORE.INTRA.REPUL>
0

>  <SCORE.INTRA.REPUL.0>
0

>  <SCORE.INTRA.VDW>
1.23001

>  <SCORE.INTRA.VDW.0>
-3.73986

>  <SCORE.INTRA.norm>
-0.14089

>  <SCORE.RESTR>
0

>  <SCORE.RESTR.CAVITY>
0

>  <SCORE.RESTR.norm>
0

>  <SCORE.SYSTEM>
-1.10643

>  <SCORE.SYSTEM.CONST>
0

>  <SCORE.SYSTEM.DIHEDRAL>
0.0748791

>  <SCORE.SYSTEM.REPUL>
0.0315249

>  <SCORE.SYSTEM.VDW>
-1.30149

>  <SCORE.SYSTEM.norm>
-0.0526871

>  <SCORE.heavy>
21

>  <SCORE.norm>
-1.08389

>  <SMILES>
CC(=O)N[C@H]1[C@H](Oc2ccccc2)O[C@H](CO)[C@@H](O)[C@H]1O

>  <UniqueID>
318

$$$$
ZINC000015205814
  rDOCK(R)          3D
libRbt.so/2013.1/901 2013/11/27
 28 29  0  0  0  0  0  0  0  0999 V2000
   31.6674    1.0095  -63.6936 H   0  0  0  0  0  0
   31.5742    0.0413  -63.9764 O   0  0  0  0  0  0
   32.6425   -0.8484  -63.8678 C   0  0  0  0  0  0
   33.7764   -0.4639  -63.3643 N   0  0  0  0  0  0
   34.0505    0.8843  -62.8658 C   0  0  0  0  0  0
   34.4474    0.8315  -61.3720 C   0  0  0  0  0  0
   33.3632    0.3056  -60.6008 O   0  0  0  0  0  0
   32.2332    1.0107  -60.1493 C   0  0  0  0  0  0
   30.9210    0.7180  -60.5703 C   0  0  0  0  0  0
   29.8416    1.4646  -60.0890 C   0  0  0  0  0  0
   30.0468    2.5108  -59.1724 C   0  0  0  0  0  0
   28.9375    3.2822  -58.6762 N   0  3  0  0  0  0
   27.7724    3.0377  -59.0530 O   0  0  0  0  0  0
   29.1429    4.3046  -57.7782 O   0  5  0  0  0  0
   31.3555    2.7914  -58.7461 C   0  0  0  0  0  0
   32.4339    2.0457  -59.2298 C   0  0  0  0  0  0
   34.7072    2.1427  -60.9025 O   0  0  0  0  0  0
   35.8485    2.6940  -61.5398 C   0  0  0  0  0  0
   36.1776    4.0350  -60.8669 C   0  0  0  0  0  0
   35.0079    4.7817  -60.6648 O   0  0  0  0  0  0
   34.7796    5.1945  -61.5385 H   0  0  0  0  0  0
   35.5724    2.8860  -63.0504 C   0  0  0  0  0  0
   36.7115    3.3926  -63.7011 O   0  0  0  0  0  0
   36.7413    4.3690  -63.5241 H   0  0  0  0  0  0
   35.1791    1.5398  -63.6851 C   0  0  0  0  0  0
   36.2902    0.6769  -63.7324 O   0  0  0  0  0  0
   35.9965   -0.1508  -64.1953 H   0  0  0  0  0  0
   32.4965   -2.2529  -64.3573 C   0  0  0  0  0  0
  1  2  1  0  0  0
  2  3  1  0  0  0
  3  4  2  0  0  0
  3 28  1  0  0  0
  4  5  1  0  0  0
  5  6  1  0  0  0
  6  7  1  0  0  0
  6 17  1  0  0  0
  7  8  1  0  0  0
  8  9  2  0  0  0
  9 10  1  0  0  0
 10 11  2  0  0  0
 11 12  1  0  0  0
 11 15  1  0  0  0
 12 13  2  0  0  0
 12 14  1  0  0  0
 15 16  2  0  0  0
 16  8  1  0  0  0
 17 18  1  0  0  0
 18 19  1  0  0  0
 18 22  1  0  0  0
 19 20  1  0  0  0
 20 21  1  0  0  0
 22 23  1  0  0  0
 22 25  1  0  0  0
 23 24  1  0  0  0
 25 26  1  0  0  0
 25  5  1  0  0  0
 26 27  1  0  0  0
M  END
>  <CHROM.0>
72.46402520,-177.09941833,-61.97563084

>  <CHROM.1>
1.92850306,120.50332291,-81.17687633,115.95486698,-44.08795998,-78.97138955
-79.58784577,62.08689305,32.97911639,1.78246948,-61.37098017,0.55989860,-0.38693118
-2.44415632

>  <Energy>
41.30207158871883

>  <Genealogy>
CC(O)=N[C@H]1[C@H](Oc2ccc([N+](=O)[O-])cc2)O[C@H](CO)[C@@H](O)[C@H]1O (tautomer)
C/C(O)=N/[C@H]1[C@H](Oc2ccc([N+](=O)[O-])cc2)O[C@H](CO)[C@@H](O)[C@H]1O (cis-trans isomerization)
C/C(O)=N/[C@H]1[C@H](Oc2ccc([N+](=O)[O-])cc2)O[C@H](CO)[C@@H](O)[C@H]1O (3D coordinates assigned)
C/C(O)=N/[C@H]1[C@H](Oc2ccc([N+](=O)[O-])cc2)O[C@H](CO)[C@@H](O)[C@H]1O (nonaromatic ring conformer: 41.30207158871883 kcal/mol)

>  <Name>
ZINC000015205814

>  <RI>
1.63646e+07

>  <Rbt.Current_Directory>
/home/edward/Documentos/Virtual_Screening/rDock/N-terminal/3

>  <Rbt.Executable>
rbdock ($Id: //depot/dev/client3/rdock/2013.1/src/exe/rbdock.cxx#4 $)

>  <Rbt.Library>
libRbt.so (2013.1, Build901 2013/11/27)

>  <Rbt.Parameter_File>
/home/edward/anaconda3/envs/MD/share/rdock-2013.1-1/data/scripts/dock.prm

>  <Rbt.Receptor>
parameters.prm

>  <SCORE>
-22.8835

>  <SCORE.INTER>
-22.0398

>  <SCORE.INTER.CONST>
1

>  <SCORE.INTER.POLAR>
-5.21477

>  <SCORE.INTER.REPUL>
0.424929

>  <SCORE.INTER.ROT>
4

>  <SCORE.INTER.VDW>
-15.8343

>  <SCORE.INTER.norm>
-0.918326

>  <SCORE.INTRA>
-1.46731

>  <SCORE.INTRA.DIHEDRAL>
-2.21165

>  <SCORE.INTRA.DIHEDRAL.0>
12.4106

>  <SCORE.INTRA.POLAR>
-0.0255293

>  <SCORE.INTRA.POLAR.0>
0

>  <SCORE.INTRA.REPUL>
0

>  <SCORE.INTRA.REPUL.0>
0

>  <SCORE.INTRA.VDW>
-0.274688

>  <SCORE.INTRA.VDW.0>
-2.5406

>  <SCORE.INTRA.norm>
-0.0611381

>  <SCORE.RESTR>
0

>  <SCORE.RESTR.CAVITY>
0

>  <SCORE.RESTR.norm>
0

>  <SCORE.SYSTEM>
0.62359

>  <SCORE.SYSTEM.CONST>
0

>  <SCORE.SYSTEM.DIHEDRAL>
0.800488

>  <SCORE.SYSTEM.POLAR>
-0.018092

>  <SCORE.SYSTEM.REPUL>
0.0602603

>  <SCORE.SYSTEM.VDW>
-0.0164427

>  <SCORE.SYSTEM.norm>
0.0259829

>  <SCORE.heavy>
24

>  <SCORE.norm>
-0.953481

>  <SMILES>
C/C(O)=N/[C@H]1[C@H](Oc2ccc([N+](=O)[O-])cc2)O[C@H](CO)[C@@H](O)[C@H]1O

>  <UniqueID>
320

$$$$
ZINC000015205840
  rDOCK(R)          3D
libRbt.so/2013.1/901 2013/11/27
 28 29  0  0  0  0  0  0  0  0999 V2000
   31.2737   -1.3862  -65.0604 H   0  0  0  0  0  0
   31.9975   -0.9081  -64.5376 O   0  0  0  0  0  0
   33.1492   -1.5763  -64.1233 C   0  0  0  0  0  0
   34.0635   -0.9584  -63.4387 N   0  0  0  0  0  0
   34.0065    0.4536  -63.0589 C   0  0  0  0  0  0
   34.0905    0.5975  -61.5211 C   0  0  0  0  0  0
   32.9507   -0.0218  -60.9169 O   0  0  0  0  0  0
   31.5988    0.1577  -61.2681 C   0  0  0  0  0  0
   31.1697    1.2551  -62.0458 C   0  0  0  0  0  0
   29.8256    1.4013  -62.3890 C   0  0  0  0  0  0
   28.8914    0.4561  -61.9752 C   0  0  0  0  0  0
   29.2962   -0.6399  -61.2139 C   0  0  0  0  0  0
   30.6453   -0.8049  -60.8472 C   0  0  0  0  0  0
   31.0233   -1.9465  -60.0485 N   0  3  0  0  0  0
   32.1406   -2.0094  -59.4956 O   0  0  0  0  0  0
   30.1294   -2.9716  -59.8372 O   0  5  0  0  0  0
   34.0605    1.9692  -61.1711 O   0  0  0  0  0  0
   35.2314    2.6325  -61.6175 C   0  0  0  0  0  0
   35.2320    4.0570  -61.0429 C   0  0  0  0  0  0
   35.2699    4.0184  -59.6413 O   0  0  0  0  0  0
   34.5054    3.4567  -59.3489 H   0  0  0  0  0  0
   35.2646    2.6698  -63.1627 C   0  0  0  0  0  0
   36.4545    3.2726  -63.6037 O   0  0  0  0  0  0
   36.3816    4.2392  -63.3887 H   0  0  0  0  0  0
   35.1407    1.2464  -63.7504 C   0  0  0  0  0  0
   36.3678    0.5551  -63.7024 O   0  0  0  0  0  0
   36.2237   -0.3618  -64.0480 H   0  0  0  0  0  0
   33.3191   -3.0292  -64.4292 C   0  0  0  0  0  0
  1  2  1  0  0  0
  2  3  1  0  0  0
  3  4  2  0  0  0
  3 28  1  0  0  0
  4  5  1  0  0  0
  5  6  1  0  0  0
  6  7  1  0  0  0
  6 17  1  0  0  0
  7  8  1  0  0  0
  8  9  2  0  0  0
  9 10  1  0  0  0
 10 11  2  0  0  0
 11 12  1  0  0  0
 12 13  2  0  0  0
 13 14  1  0  0  0
 13  8  1  0  0  0
 14 15  2  0  0  0
 14 16  1  0  0  0
 17 18  1  0  0  0
 18 19  1  0  0  0
 18 22  1  0  0  0
 19 20  1  0  0  0
 20 21  1  0  0  0
 22 23  1  0  0  0
 22 25  1  0  0  0
 23 24  1  0  0  0
 25 26  1  0  0  0
 25  5  1  0  0  0
 26 27  1  0  0  0
M  END
>  <CHROM.0>
-72.33142608,-62.24902263,-179.01281124

>  <CHROM.1>
-179.11546507,122.08808883,-49.10499268,-17.29078453,62.15437206,-54.93679526
-71.00399398,51.98669785,33.05610742,0.41939739,-62.02557302,-2.78012209
0.61706924,0.73123994

>  <Energy>
44.79321637869891

>  <Genealogy>
CC(O)=N[C@H]1[C@H](Oc2ccccc2[N+](=O)[O-])O[C@H](CO)[C@@H](O)[C@H]1O (tautomer)
C/C(O)=N\[C@H]1[C@H](Oc2ccccc2[N+](=O)[O-])O[C@H](CO)[C@@H](O)[C@H]1O (cis-trans isomerization)
C/C(O)=N\[C@H]1[C@H](Oc2ccccc2[N+](=O)[O-])O[C@H](CO)[C@@H](O)[C@H]1O (3D coordinates assigned)
C/C(O)=N\[C@H]1[C@H](Oc2ccccc2[N+](=O)[O-])O[C@H](CO)[C@@H](O)[C@H]1O (nonaromatic ring conformer: 44.79321637869891 kcal/mol)

>  <Name>
ZINC000015205840

>  <RI>
1.63646e+07

>  <Rbt.Current_Directory>
/home/edward/Documentos/Virtual_Screening/rDock/N-terminal/3

>  <Rbt.Executable>
rbdock ($Id: //depot/dev/client3/rdock/2013.1/src/exe/rbdock.cxx#4 $)

>  <Rbt.Library>
libRbt.so (2013.1, Build901 2013/11/27)

>  <Rbt.Parameter_File>
/home/edward/anaconda3/envs/MD/share/rdock-2013.1-1/data/scripts/dock.prm

>  <Rbt.Receptor>
parameters.prm

>  <SCORE>
-20.2898

>  <SCORE.INTER>
-17.2114

>  <SCORE.INTER.CONST>
1

>  <SCORE.INTER.POLAR>
-3.33639

>  <SCORE.INTER.REPUL>
0.0959767

>  <SCORE.INTER.ROT>
4

>  <SCORE.INTER.VDW>
-15.7475

>  <SCORE.INTER.norm>
-0.71714

>  <SCORE.INTRA>
-3.02211

>  <SCORE.INTRA.DIHEDRAL>
-5.1186

>  <SCORE.INTRA.DIHEDRAL.0>
7.3035

>  <SCORE.INTRA.POLAR>
-0.114436

>  <SCORE.INTRA.POLAR.0>
0

>  <SCORE.INTRA.REPUL>
0

>  <SCORE.INTRA.REPUL.0>
0

>  <SCORE.INTRA.VDW>
-0.0737292

>  <SCORE.INTRA.VDW.0>
-2.67366

>  <SCORE.INTRA.norm>
-0.125921

>  <SCORE.RESTR>
0

>  <SCORE.RESTR.CAVITY>
0

>  <SCORE.RESTR.norm>
0

>  <SCORE.SYSTEM>
-0.0563502

>  <SCORE.SYSTEM.CONST>
0

>  <SCORE.SYSTEM.DIHEDRAL>
0.754436

>  <SCORE.SYSTEM.VDW>
-0.433568

>  <SCORE.SYSTEM.norm>
-0.00234792

>  <SCORE.heavy>
24

>  <SCORE.norm>
-0.845409

>  <SMILES>
C/C(O)=N\[C@H]1[C@H](Oc2ccccc2[N+](=O)[O-])O[C@H](CO)[C@@H](O)[C@H]1O

>  <UniqueID>
322

$$$$
ZINC000015205946
  rDOCK(R)          3D
libRbt.so/2013.1/901 2013/11/27
 28 29  0  0  0  0  0  0  0  0999 V2000
   36.6354   -1.2963  -62.1487 C   0  0  0  0  0  0
   35.5818   -0.2757  -62.4299 C   0  0  0  0  0  0
   34.5707   -0.5951  -63.1120 O   0  0  0  0  0  0
   35.7310    1.0595  -61.9281 N   0  0  0  0  0  0
   34.7479    2.1204  -62.1889 C   0  0  0  0  0  0
   35.4375    3.4338  -62.5968 C   0  0  0  0  0  0
   36.3346    3.2019  -63.6526 O   0  0  0  0  0  0
   36.1604    4.0752  -61.3933 C   0  0  0  0  0  0
   37.3130    3.3394  -61.0654 O   0  0  0  0  0  0
   35.2337    4.1310  -60.1539 C   0  0  0  0  0  0
   34.1924    5.2723  -60.2099 C   0  0  0  0  0  0
   33.3029    5.1839  -59.1287 O   0  0  0  0  0  0
   34.6414    2.8704  -59.8640 O   0  0  0  0  0  0
   33.8732    2.3620  -60.9456 C   0  0  0  0  0  0
   33.2906    1.1179  -60.5572 O   0  0  0  0  0  0
   32.3691    0.9364  -59.5121 C   0  0  0  0  0  0
   31.9792    2.0091  -58.6837 C   0  0  0  0  0  0
   31.0551    1.8146  -57.6575 C   0  0  0  0  0  0
   30.5050    0.5536  -57.4425 C   0  0  0  0  0  0
   30.8779   -0.5199  -58.2518 C   0  0  0  0  0  0
   31.8122   -0.3495  -59.2914 C   0  0  0  0  0  0
   32.1805   -1.4860  -60.1034 N   0  3  0  0  0  0
   33.1066   -1.4157  -60.9373 O   0  0  0  0  0  0
   31.5295   -2.6888  -59.9492 O   0  5  0  0  0  0
   36.5877    1.2822  -61.3714 H   0  0  0  0  0  0
   36.6371    4.0919  -63.9724 H   0  0  0  0  0  0
   37.7226    3.7751  -60.2729 H   0  0  0  0  0  0
   33.8481    5.2624  -58.3027 H   0  0  0  0  0  0
  1  2  1  0  0  0
  2  3  2  0  0  0
  2  4  1  0  0  0
  4  5  1  0  0  0
  4 25  1  0  0  0
  5  6  1  0  0  0
  6  7  1  0  0  0
  6  8  1  0  0  0
  7 26  1  0  0  0
  8  9  1  0  0  0
  8 10  1  0  0  0
  9 27  1  0  0  0
 10 11  1  0  0  0
 10 13  1  0  0  0
 11 12  1  0  0  0
 12 28  1  0  0  0
 13 14  1  0  0  0
 14 15  1  0  0  0
 14  5  1  0  0  0
 15 16  1  0  0  0
 16 17  2  0  0  0
 17 18  1  0  0  0
 18 19  2  0  0  0
 19 20  1  0  0  0
 20 21  2  0  0  0
 21 22  1  0  0  0
 21 16  1  0  0  0
 22 23  2  0  0  0
 22 24  1  0  0  0
M  END
>  <CHROM.0>
-176.25367305,-60.58254887,61.85612830

>  <CHROM.1>
-134.78535598,170.98914284,-178.29500386,174.04049122,60.35037825,-176.20452897
-3.31270897,33.93193928,1.46969473,-60.60120656,-0.46262444,-0.71224253,-2.82128998

>  <Energy>
45.391976682882344

>  <Genealogy>
CC(=O)N[C@@H]1[C@H](O)[C@H](O)[C@@H](CO)O[C@@H]1Oc1ccccc1[N+](=O)[O-] (3D coordinates assigned)
CC(=O)N[C@@H]1[C@H](O)[C@H](O)[C@@H](CO)O[C@@H]1Oc1ccccc1[N+](=O)[O-] (nonaromatic ring conformer: 45.391976682882344 kcal/mol)

>  <Name>
ZINC000015205946

>  <RI>
1.63646e+07

>  <Rbt.Current_Directory>
/home/edward/Documentos/Virtual_Screening/rDock/N-terminal/3

>  <Rbt.Executable>
rbdock ($Id: //depot/dev/client3/rdock/2013.1/src/exe/rbdock.cxx#4 $)

>  <Rbt.Library>
libRbt.so (2013.1, Build901 2013/11/27)

>  <Rbt.Parameter_File>
/home/edward/anaconda3/envs/MD/share/rdock-2013.1-1/data/scripts/dock.prm

>  <Rbt.Receptor>
parameters.prm

>  <SCORE>
-21.8162

>  <SCORE.INTER>
-17.2132

>  <SCORE.INTER.CONST>
1

>  <SCORE.INTER.POLAR>
-2.13043

>  <SCORE.INTER.REPUL>
0.147374

>  <SCORE.INTER.ROT>
4

>  <SCORE.INTER.VDW>
-20.1066

>  <SCORE.INTER.norm>
-0.717217

>  <SCORE.INTRA>
-3.47449

>  <SCORE.INTRA.DIHEDRAL>
-3.96357

>  <SCORE.INTRA.DIHEDRAL.0>
6.03715

>  <SCORE.INTRA.POLAR>
-0.388529

>  <SCORE.INTRA.POLAR.0>
0

>  <SCORE.INTRA.REPUL>
0

>  <SCORE.INTRA.REPUL.0>
0

>  <SCORE.INTRA.VDW>
-0.171701

>  <SCORE.INTRA.VDW.0>
-2.92647

>  <SCORE.INTRA.norm>
-0.14477

>  <SCORE.RESTR>
0

>  <SCORE.RESTR.CAVITY>
0

>  <SCORE.RESTR.norm>
0

>  <SCORE.SYSTEM>
-1.12856

>  <SCORE.SYSTEM.CONST>
0

>  <SCORE.SYSTEM.DIHEDRAL>
0.0877006

>  <SCORE.SYSTEM.REPUL>
0.0296781

>  <SCORE.SYSTEM.VDW>
-1.3208

>  <SCORE.SYSTEM.norm>
-0.0470232

>  <SCORE.heavy>
24

>  <SCORE.norm>
-0.90901

>  <SMILES>
CC(=O)N[C@@H]1[C@H](O)[C@H](O)[C@@H](CO)O[C@@H]1Oc1ccccc1[N+](=O)[O-]

>  <UniqueID>
325

$$$$
ZINC000015205949
  rDOCK(R)          3D
libRbt.so/2013.1/901 2013/11/27
 28 29  0  0  0  0  0  0  0  0999 V2000
   34.6662    5.9111  -57.6026 C   0  0  0  0  0  0
   35.0742    5.3555  -58.9282 C   0  0  0  0  0  0
   35.5373    6.1295  -59.8091 O   0  0  0  0  0  0
   34.9876    3.9438  -59.1700 N   0  0  0  0  0  0
   35.4298    3.3290  -60.4268 C   0  0  0  0  0  0
   34.9369    4.1350  -61.6436 C   0  0  0  0  0  0
   33.5369    4.2823  -61.6134 O   0  0  0  0  0  0
   35.3484    3.4095  -62.9366 C   0  0  0  0  0  0
   34.7705    4.0513  -64.0448 O   0  0  0  0  0  0
   34.8989    1.9272  -62.8813 C   0  0  0  0  0  0
   35.3669    1.1565  -64.1240 C   0  0  0  0  0  0
   34.9252    1.7922  -65.2919 O   0  0  0  0  0  0
   35.4447    1.2799  -61.7398 O   0  0  0  0  0  0
   34.9784    1.8526  -60.5280 C   0  0  0  0  0  0
   33.5532    1.7120  -60.4333 O   0  0  0  0  0  0
   32.8296    0.5114  -60.3379 C   0  0  0  0  0  0
   33.0711   -0.6029  -61.1639 C   0  0  0  0  0  0
   32.3200   -1.7719  -61.0104 C   0  0  0  0  0  0
   31.3083   -1.8499  -60.0371 C   0  0  0  0  0  0
   30.5348   -3.0529  -59.8751 N   0  3  0  0  0  0
   30.7513   -4.0510  -60.5933 O   0  0  0  0  0  0
   29.5440   -3.1242  -58.9227 O   0  5  0  0  0  0
   31.0618   -0.7309  -59.2246 C   0  0  0  0  0  0
   31.8145    0.4364  -59.3787 C   0  0  0  0  0  0
   34.7012    3.3305  -58.3741 H   0  0  0  0  0  0
   33.1473    3.3799  -61.4748 H   0  0  0  0  0  0
   35.0800    3.5629  -64.8520 H   0  0  0  0  0  0
   35.3429    1.3022  -66.0471 H   0  0  0  0  0  0
  1  2  1  0  0  0
  2  3  2  0  0  0
  2  4  1  0  0  0
  4  5  1  0  0  0
  4 25  1  0  0  0
  5  6  1  0  0  0
  6  7  1  0  0  0
  6  8  1  0  0  0
  7 26  1  0  0  0
  8  9  1  0  0  0
  8 10  1  0  0  0
  9 27  1  0  0  0
 10 11  1  0  0  0
 10 13  1  0  0  0
 11 12  1  0  0  0
 12 28  1  0  0  0
 13 14  1  0  0  0
 14 15  1  0  0  0
 14  5  1  0  0  0
 15 16  1  0  0  0
 16 17  2  0  0  0
 17 18  1  0  0  0
 18 19  2  0  0  0
 19 20  1  0  0  0
 19 23  1  0  0  0
 20 21  2  0  0  0
 20 22  1  0  0  0
 23 24  2  0  0  0
 24 16  1  0  0  0
M  END
>  <CHROM.0>
-78.04546100,63.87181930,-179.88931688

>  <CHROM.1>
-44.90967767,-50.58202420,178.71823988,-55.08524289,173.98033562,-172.34635328
-46.57444029,33.62734515,1.53854400,-60.96332771,0.39064289,0.97939923,0.94857921

>  <Energy>
43.186356205158425

>  <Genealogy>
CC(=O)N[C@@H]1[C@H](O)[C@H](O)[C@@H](CO)O[C@@H]1Oc1ccc([N+](=O)[O-])cc1 (3D coordinates assigned)
CC(=O)N[C@@H]1[C@H](O)[C@H](O)[C@@H](CO)O[C@@H]1Oc1ccc([N+](=O)[O-])cc1 (nonaromatic ring conformer: 43.186356205158425 kcal/mol)

>  <Name>
ZINC000015205949

>  <RI>
1.63646e+07

>  <Rbt.Current_Directory>
/home/edward/Documentos/Virtual_Screening/rDock/N-terminal/3

>  <Rbt.Executable>
rbdock ($Id: //depot/dev/client3/rdock/2013.1/src/exe/rbdock.cxx#4 $)

>  <Rbt.Library>
libRbt.so (2013.1, Build901 2013/11/27)

>  <Rbt.Parameter_File>
/home/edward/anaconda3/envs/MD/share/rdock-2013.1-1/data/scripts/dock.prm

>  <Rbt.Receptor>
parameters.prm

>  <SCORE>
-18.8075

>  <SCORE.INTER>
-14.8045

>  <SCORE.INTER.CONST>
1

>  <SCORE.INTER.POLAR>
-2.54719

>  <SCORE.INTER.REPUL>
0.138317

>  <SCORE.INTER.ROT>
4

>  <SCORE.INTER.VDW>
-16.2356

>  <SCORE.INTER.norm>
-0.616853

>  <SCORE.INTRA>
-4.81331

>  <SCORE.INTRA.DIHEDRAL>
-5.14565

>  <SCORE.INTRA.DIHEDRAL.0>
9.69818

>  <SCORE.INTRA.POLAR>
-1.37163

>  <SCORE.INTRA.POLAR.0>
0

>  <SCORE.INTRA.REPUL>
0

>  <SCORE.INTRA.REPUL.0>
0

>  <SCORE.INTRA.VDW>
2.42307

>  <SCORE.INTRA.VDW.0>
-3.55487

>  <SCORE.INTRA.norm>
-0.200555

>  <SCORE.RESTR>
0

>  <SCORE.RESTR.CAVITY>
0

>  <SCORE.RESTR.norm>
0

>  <SCORE.SYSTEM>
0.810322

>  <SCORE.SYSTEM.CONST>
0

>  <SCORE.SYSTEM.DIHEDRAL>
1.5647

>  <SCORE.SYSTEM.REPUL>
0.140108

>  <SCORE.SYSTEM.VDW>
-0.672568

>  <SCORE.SYSTEM.norm>
0.0337634

>  <SCORE.heavy>
24

>  <SCORE.norm>
-0.783644

>  <SMILES>
CC(=O)N[C@@H]1[C@H](O)[C@H](O)[C@@H](CO)O[C@@H]1Oc1ccc([N+](=O)[O-])cc1

>  <UniqueID>
328

$$$$
ZINC000015205956
  rDOCK(R)          3D
libRbt.so/2013.1/901 2013/11/27
 25 26  0  0  0  0  0  0  0  0999 V2000
   32.1252   -0.8379  -57.6625 C   0  0  0  0  0  0
   31.8774    0.0541  -58.8347 C   0  0  0  0  0  0
   30.8102    0.7228  -58.8935 O   0  0  0  0  0  0
   32.8665    0.1667  -59.8674 N   0  0  0  0  0  0
   32.6648    0.9774  -61.0766 C   0  0  0  0  0  0
   33.1469    0.2329  -62.3363 C   0  0  0  0  0  0
   32.5794   -1.0498  -62.4115 O   0  0  0  0  0  0
   34.6830    0.1310  -62.3581 C   0  0  0  0  0  0
   35.1293   -0.7846  -61.3884 O   0  0  0  0  0  0
   35.3334    1.5079  -62.0831 C   0  0  0  0  0  0
   35.3278    2.4376  -63.3133 C   0  0  0  0  0  0
   35.9278    1.7888  -64.3998 O   0  0  0  0  0  0
   34.8173    2.1336  -60.9123 O   0  0  0  0  0  0
   33.4091    2.3202  -60.9577 C   0  0  0  0  0  0
   32.9862    2.9631  -59.7546 O   0  0  0  0  0  0
   33.5330    4.1457  -59.2334 C   0  0  0  0  0  0
   34.2218    5.0806  -60.0314 C   0  0  0  0  0  0
   34.7475    6.2431  -59.4585 C   0  0  0  0  0  0
   34.5904    6.4839  -58.0912 C   0  0  0  0  0  0
   33.9056    5.5631  -57.2946 C   0  0  0  0  0  0
   33.3788    4.3998  -57.8644 C   0  0  0  0  0  0
   33.7545   -0.3745  -59.7578 H   0  0  0  0  0  0
   31.5965   -0.9251  -62.4755 H   0  0  0  0  0  0
   34.8325   -1.6865  -61.6786 H   0  0  0  0  0  0
   35.7277    2.3435  -65.1979 H   0  0  0  0  0  0
  1  2  1  0  0  0
  2  3  2  0  0  0
  2  4  1  0  0  0
  4  5  1  0  0  0
  4 22  1  0  0  0
  5  6  1  0  0  0
  6  7  1  0  0  0
  6  8  1  0  0  0
  7 23  1  0  0  0
  8  9  1  0  0  0
  8 10  1  0  0  0
  9 24  1  0  0  0
 10 11  1  0  0  0
 10 13  1  0  0  0
 11 12  1  0  0  0
 12 25  1  0  0  0
 13 14  1  0  0  0
 14 15  1  0  0  0
 14  5  1  0  0  0
 15 16  1  0  0  0
 16 17  2  0  0  0
 17 18  1  0  0  0
 18 19  2  0  0  0
 19 20  1  0  0  0
 20 21  2  0  0  0
 21 16  1  0  0  0
M  END
>  <CHROM.0>
-175.76171674,-61.62282674,-62.08402421

>  <CHROM.1>
-136.67683793,61.87325097,67.87102969,-54.46059589,168.34256466,173.55830194
22.76386880,33.71892065,2.00110100,-60.47027116,1.61302787,-0.91682724,-2.53675432

>  <Energy>
39.95897227314676

>  <Genealogy>
CC(=O)N[C@@H]1[C@H](O)[C@H](O)[C@@H](CO)O[C@@H]1Oc1ccccc1 (3D coordinates assigned)
CC(=O)N[C@@H]1[C@H](O)[C@H](O)[C@@H](CO)O[C@@H]1Oc1ccccc1 (nonaromatic ring conformer: 39.95897227314676 kcal/mol)

>  <Name>
ZINC000015205956

>  <RI>
1.63646e+07

>  <Rbt.Current_Directory>
/home/edward/Documentos/Virtual_Screening/rDock/N-terminal/3

>  <Rbt.Executable>
rbdock ($Id: //depot/dev/client3/rdock/2013.1/src/exe/rbdock.cxx#4 $)

>  <Rbt.Library>
libRbt.so (2013.1, Build901 2013/11/27)

>  <Rbt.Parameter_File>
/home/edward/anaconda3/envs/MD/share/rdock-2013.1-1/data/scripts/dock.prm

>  <Rbt.Receptor>
parameters.prm

>  <SCORE>
-19.1873

>  <SCORE.INTER>
-16.7873

>  <SCORE.INTER.CONST>
1

>  <SCORE.INTER.POLAR>
-3.83976

>  <SCORE.INTER.REPUL>
0

>  <SCORE.INTER.ROT>
4

>  <SCORE.INTER.VDW>
-13.1321

>  <SCORE.INTER.norm>
-0.799395

>  <SCORE.INTRA>
-1.40852

>  <SCORE.INTRA.DIHEDRAL>
-1.08046

>  <SCORE.INTRA.DIHEDRAL.0>
4.58969

>  <SCORE.INTRA.POLAR>
-0.322169

>  <SCORE.INTRA.POLAR.0>
0

>  <SCORE.INTRA.REPUL>
0

>  <SCORE.INTRA.REPUL.0>
0

>  <SCORE.INTRA.VDW>
0.227084

>  <SCORE.INTRA.VDW.0>
-2.93705

>  <SCORE.INTRA.norm>
-0.0670723

>  <SCORE.RESTR>
0

>  <SCORE.RESTR.CAVITY>
0

>  <SCORE.RESTR.norm>
0

>  <SCORE.SYSTEM>
-0.991495

>  <SCORE.SYSTEM.CONST>
0

>  <SCORE.SYSTEM.DIHEDRAL>
0.122681

>  <SCORE.SYSTEM.REPUL>
0.0283045

>  <SCORE.SYSTEM.VDW>
-1.19436

>  <SCORE.SYSTEM.norm>
-0.047214

>  <SCORE.heavy>
21

>  <SCORE.norm>
-0.913681

>  <SMILES>
CC(=O)N[C@@H]1[C@H](O)[C@H](O)[C@@H](CO)O[C@@H]1Oc1ccccc1

>  <UniqueID>
331

$$$$
ZINC000019893747
  rDOCK(R)          3D
libRbt.so/2013.1/901 2013/11/27
 28 29  0  0  0  0  0  0  0  0999 V2000
   34.4453    4.0885  -56.6521 H   0  0  0  0  0  0
   34.1272    5.0378  -56.8081 O   0  0  0  0  0  0
   33.9690    5.5405  -58.0960 C   0  0  0  0  0  0
   33.4952    6.7465  -58.2500 N   0  0  0  0  0  0
   33.3497    7.4908  -59.5065 C   0  0  0  0  0  0
   34.3610    8.6522  -59.5587 C   0  0  0  0  0  0
   34.2043    9.4602  -58.4031 O   0  0  0  0  0  0
   35.1824    8.9052  -57.1300 S   0  0  0  0  0  0
   36.0247    7.7378  -57.5649 O   0  0  0  0  0  0
   36.0915   10.0229  -56.7052 O   0  0  0  0  0  0
   34.1791    8.4332  -55.7400 C   0  0  0  0  0  0
   34.0854    9.4958  -60.8197 C   0  0  0  0  0  0
   34.8999   10.6410  -60.8019 O   0  0  0  0  0  0
   35.8418   10.3347  -60.8693 H   0  0  0  0  0  0
   32.5865    9.8954  -60.8726 C   0  0  0  0  0  0
   32.2569   10.6784  -62.1510 C   0  0  0  0  0  0
   32.4749    9.8816  -63.2828 O   0  0  0  0  0  0
   33.4498    9.6970  -63.3061 H   0  0  0  0  0  0
   31.7717    8.7345  -60.8511 O   0  0  0  0  0  0
   31.9151    8.0367  -59.6235 C   0  0  0  0  0  0
   31.0219    6.9390  -59.6105 O   0  0  0  0  0  0
   29.7032    7.3889  -59.3883 C   0  0  0  0  0  0
   34.3537    4.6758  -59.2298 C   0  0  0  0  0  0
   35.3799    3.7261  -59.0895 C   0  0  0  0  0  0
   35.7660    2.9399  -60.1794 C   0  0  0  0  0  0
   35.1489    3.1139  -61.4209 C   0  0  0  0  0  0
   34.1553    4.0841  -61.5774 C   0  0  0  0  0  0
   33.7669    4.8718  -60.4891 C   0  0  0  0  0  0
  1  2  1  0  0  0
  2  3  1  0  0  0
  3  4  2  0  0  0
  3 23  1  0  0  0
  4  5  1  0  0  0
  5  6  1  0  0  0
  6  7  1  0  0  0
  6 12  1  0  0  0
  7  8  1  0  0  0
  8  9  2  0  0  0
  8 10  2  0  0  0
  8 11  1  0  0  0
 12 13  1  0  0  0
 12 15  1  0  0  0
 13 14  1  0  0  0
 15 16  1  0  0  0
 15 19  1  0  0  0
 16 17  1  0  0  0
 17 18  1  0  0  0
 19 20  1  0  0  0
 20 21  1  0  0  0
 20  5  1  0  0  0
 21 22  1  0  0  0
 23 24  2  0  0  0
 24 25  1  0  0  0
 25 26  2  0  0  0
 26 27  1  0  0  0
 27 28  2  0  0  0
 28 23  1  0  0  0
M  END
>  <CHROM.0>
-172.23404812,-56.55805366,-62.43928301

>  <CHROM.1>
176.70414815,-29.92219430,-109.78659643,89.18276046,2.91513507,64.92485613
62.88481603,-64.80951137,165.78094603,33.82595394,7.51502208,-59.34576779
-1.03507598,-1.00136900,0.24078016

>  <Energy>
52.587185776660796

>  <Genealogy>
CO[C@@H]1O[C@H](CO)[C@@H](O)[C@@H](OS(C)(=O)=O)[C@H]1N=C(O)c1ccccc1 (tautomer)
CO[C@@H]1O[C@H](CO)[C@@H](O)[C@@H](OS(C)(=O)=O)[C@H]1/N=C(\O)c1ccccc1 (cis-trans isomerization)
CO[C@@H]1O[C@H](CO)[C@@H](O)[C@@H](OS(C)(=O)=O)[C@H]1/N=C(\O)c1ccccc1 (3D coordinates assigned)
CO[C@@H]1O[C@H](CO)[C@@H](O)[C@@H](OS(C)(=O)=O)[C@H]1/N=C(\O)c1ccccc1 (nonaromatic ring conformer: 52.587185776660796 kcal/mol)

>  <Name>
ZINC000019893747

>  <RI>
1.63646e+07

>  <Rbt.Current_Directory>
/home/edward/Documentos/Virtual_Screening/rDock/N-terminal/3

>  <Rbt.Executable>
rbdock ($Id: //depot/dev/client3/rdock/2013.1/src/exe/rbdock.cxx#4 $)

>  <Rbt.Library>
libRbt.so (2013.1, Build901 2013/11/27)

>  <Rbt.Parameter_File>
/home/edward/anaconda3/envs/MD/share/rdock-2013.1-1/data/scripts/dock.prm

>  <Rbt.Receptor>
parameters.prm

>  <SCORE>
-19.2812

>  <SCORE.INTER>
-12.3382

>  <SCORE.INTER.CONST>
1

>  <SCORE.INTER.POLAR>
-1.99245

>  <SCORE.INTER.REPUL>
0.0192102

>  <SCORE.INTER.ROT>
6

>  <SCORE.INTER.VDW>
-17.06

>  <SCORE.INTER.norm>
-0.49353

>  <SCORE.INTRA>
-6.05534

>  <SCORE.INTRA.DIHEDRAL>
-15.5095

>  <SCORE.INTRA.DIHEDRAL.0>
24.3688

>  <SCORE.INTRA.POLAR>
0

>  <SCORE.INTRA.POLAR.0>
0

>  <SCORE.INTRA.REPUL>
0

>  <SCORE.INTRA.REPUL.0>
0

>  <SCORE.INTRA.VDW>
1.69942

>  <SCORE.INTRA.VDW.0>
-4.37746

>  <SCORE.INTRA.norm>
-0.242214

>  <SCORE.RESTR>
0

>  <SCORE.RESTR.CAVITY>
0

>  <SCORE.RESTR.norm>
0

>  <SCORE.SYSTEM>
-0.887595

>  <SCORE.SYSTEM.CONST>
0

>  <SCORE.SYSTEM.DIHEDRAL>
0.381167

>  <SCORE.SYSTEM.REPUL>
0.0183238

>  <SCORE.SYSTEM.VDW>
-1.1698

>  <SCORE.SYSTEM.norm>
-0.0355038

>  <SCORE.heavy>
25

>  <SCORE.norm>
-0.771247

>  <SMILES>
CO[C@@H]1O[C@H](CO)[C@@H](O)[C@@H](OS(C)(=O)=O)[C@H]1/N=C(\O)c1ccccc1

>  <UniqueID>
336

$$$$
ZINC000019898298
  rDOCK(R)          3D
libRbt.so/2013.1/901 2013/11/27
 25 26  0  0  0  0  0  0  0  0999 V2000
   31.5052    1.0227  -63.6483 H   0  0  0  0  0  0
   31.4555    0.0605  -63.9570 O   0  0  0  0  0  0
   32.5951   -0.7055  -64.2170 C   0  0  0  0  0  0
   33.7754   -0.2100  -63.9851 N   0  0  0  0  0  0
   34.0353    1.1219  -63.4321 C   0  0  0  0  0  0
   35.3605    1.6635  -64.0009 C   0  0  0  0  0  0
   36.3964    0.7283  -63.8151 O   0  0  0  0  0  0
   36.0769   -0.1377  -64.1809 H   0  0  0  0  0  0
   35.7320    2.9857  -63.3043 C   0  0  0  0  0  0
   37.0222    3.3804  -63.6954 O   0  0  0  0  0  0
   37.0593    4.3684  -63.6038 H   0  0  0  0  0  0
   35.6677    2.8108  -61.7664 C   0  0  0  0  0  0
   35.9427    4.1343  -61.0369 C   0  0  0  0  0  0
   35.9698    3.9423  -59.6465 O   0  0  0  0  0  0
   36.7311    3.3366  -59.4492 H   0  0  0  0  0  0
   34.3775    2.3654  -61.3816 O   0  0  0  0  0  0
   34.1135    1.0675  -61.8908 C   0  0  0  0  0  0
   32.8675    0.6256  -61.3874 O   0  0  0  0  0  0
   32.9305    0.4885  -59.9846 C   0  0  0  0  0  0
   32.4801   -2.0833  -64.7552 C   0  0  0  0  0  0
   31.2258   -2.6240  -65.0965 C   0  0  0  0  0  0
   31.1297   -3.9229  -65.6061 C   0  0  0  0  0  0
   32.2802   -4.6938  -65.7848 C   0  0  0  0  0  0
   33.5310   -4.1658  -65.4591 C   0  0  0  0  0  0
   33.6337   -2.8677  -64.9503 C   0  0  0  0  0  0
  1  2  1  0  0  0
  2  3  1  0  0  0
  3  4  2  0  0  0
  3 20  1  0  0  0
  4  5  1  0  0  0
  5  6  1  0  0  0
  6  7  1  0  0  0
  6  9  1  0  0  0
  7  8  1  0  0  0
  9 10  1  0  0  0
  9 12  1  0  0  0
 10 11  1  0  0  0
 12 13  1  0  0  0
 12 16  1  0  0  0
 13 14  1  0  0  0
 14 15  1  0  0  0
 16 17  1  0  0  0
 17 18  1  0  0  0
 17  5  1  0  0  0
 18 19  1  0  0  0
 20 21  2  0  0  0
 21 22  1  0  0  0
 22 23  2  0  0  0
 23 24  1  0  0  0
 24 25  2  0  0  0
 25 20  1  0  0  0
M  END
>  <CHROM.0>
72.59172747,-175.39072312,65.65101456

>  <CHROM.1>
4.21284559,4.01477574,-148.39288564,52.04879794,153.65942864,-176.04702521
63.44694731,176.51566742,34.00300038,0.34613451,-63.19046140,2.12534866,-0.61052421
-2.27852798

>  <Energy>
44.03981716778473

>  <Genealogy>
CO[C@@H]1O[C@H](CO)[C@@H](O)[C@@H](O)[C@H]1N=C(O)c1ccccc1 (tautomer)
CO[C@@H]1O[C@H](CO)[C@@H](O)[C@@H](O)[C@H]1/N=C(/O)c1ccccc1 (cis-trans isomerization)
CO[C@@H]1O[C@H](CO)[C@@H](O)[C@@H](O)[C@H]1/N=C(/O)c1ccccc1 (3D coordinates assigned)
CO[C@@H]1O[C@H](CO)[C@@H](O)[C@@H](O)[C@H]1/N=C(/O)c1ccccc1 (nonaromatic ring conformer: 44.03981716778473 kcal/mol)

>  <Name>
ZINC000019898298

>  <RI>
1.63646e+07

>  <Rbt.Current_Directory>
/home/edward/Documentos/Virtual_Screening/rDock/N-terminal/3

>  <Rbt.Executable>
rbdock ($Id: //depot/dev/client3/rdock/2013.1/src/exe/rbdock.cxx#4 $)

>  <Rbt.Library>
libRbt.so (2013.1, Build901 2013/11/27)

>  <Rbt.Parameter_File>
/home/edward/anaconda3/envs/MD/share/rdock-2013.1-1/data/scripts/dock.prm

>  <Rbt.Receptor>
parameters.prm

>  <SCORE>
-24.1947

>  <SCORE.INTER>
-19.9326

>  <SCORE.INTER.CONST>
1

>  <SCORE.INTER.POLAR>
-3.83047

>  <SCORE.INTER.REPUL>
0.0474998

>  <SCORE.INTER.ROT>
4

>  <SCORE.INTER.VDW>
-16.5465

>  <SCORE.INTER.norm>
-0.949173

>  <SCORE.INTRA>
-4.80572

>  <SCORE.INTRA.DIHEDRAL>
-11.239

>  <SCORE.INTRA.DIHEDRAL.0>
15.9185

>  <SCORE.INTRA.POLAR>
-0.115396

>  <SCORE.INTRA.POLAR.0>
0

>  <SCORE.INTRA.REPUL>
0

>  <SCORE.INTRA.REPUL.0>
0

>  <SCORE.INTRA.VDW>
1.20613

>  <SCORE.INTRA.VDW.0>
-2.14531

>  <SCORE.INTRA.norm>
-0.228844

>  <SCORE.RESTR>
0

>  <SCORE.RESTR.CAVITY>
0

>  <SCORE.RESTR.norm>
0

>  <SCORE.SYSTEM>
0.543635

>  <SCORE.SYSTEM.CONST>
0

>  <SCORE.SYSTEM.DIHEDRAL>
1.01526

>  <SCORE.SYSTEM.POLAR>
-0.0176736

>  <SCORE.SYSTEM.REPUL>
0.0573746

>  <SCORE.SYSTEM.VDW>
-0.190779

>  <SCORE.SYSTEM.norm>
0.0258874

>  <SCORE.heavy>
21

>  <SCORE.norm>
-1.15213

>  <SMILES>
CO[C@@H]1O[C@H](CO)[C@@H](O)[C@@H](O)[C@H]1/N=C(/O)c1ccccc1

>  <UniqueID>
338

$$$$
ZINC000032106887
  rDOCK(R)          3D
libRbt.so/2013.1/901 2013/11/27
 23 25  0  0  0  0  0  0  0  0999 V2000
   33.0658    1.8786  -62.1520 H   0  0  0  0  0  0
   32.7639    1.5742  -61.2568 O   0  0  0  0  0  0
   33.8816    1.0098  -60.6153 C   0  0  0  0  0  0
   34.8938    2.1077  -60.2727 C   0  0  0  0  0  0
   34.2767    3.1451  -59.5367 O   0  0  0  0  0  0
   35.2432    4.1361  -59.2136 C   0  0  0  0  0  0
   34.5734    5.1958  -58.3793 C   0  0  0  0  0  0
   34.3826    4.9896  -57.0014 C   0  0  0  0  0  0
   33.7611    5.9685  -56.2201 C   0  0  0  0  0  0
   33.3250    7.1597  -56.8061 C   0  0  0  0  0  0
   33.5095    7.3739  -58.1745 C   0  0  0  0  0  0
   34.1306    6.3978  -58.9603 C   0  0  0  0  0  0
   35.7587    4.7503  -60.3868 O   0  0  0  0  0  0
   36.4393    3.7949  -61.1775 C   0  0  0  0  0  0
   35.4880    2.6685  -61.5711 C   0  0  0  0  0  0
   36.1827    1.6575  -62.2807 O   0  0  0  0  0  0
   35.2866    0.6398  -62.7202 C   0  0  0  0  0  0
   34.3329    1.1498  -63.6400 O   0  0  0  0  0  0
   34.9789    1.5957  -64.8123 C   0  0  0  0  0  0
   34.5715   -0.0355  -61.5245 C   0  0  0  0  0  0
   33.6154   -1.0267  -62.0116 N   0  0  0  0  0  0
   33.5646   -1.3286  -63.2046 N   0  3  0  0  0  0
   33.5140   -1.6304  -64.3958 N   0  5  0  0  0  0
  1  2  1  0  0  0
  2  3  1  0  0  0
  3  4  1  0  0  0
  4  5  1  0  0  0
  5  6  1  0  0  0
  6  7  1  0  0  0
  6 13  1  0  0  0
  7  8  2  0  0  0
  8  9  1  0  0  0
  9 10  2  0  0  0
 10 11  1  0  0  0
 11 12  2  0  0  0
 12  7  1  0  0  0
 13 14  1  0  0  0
 14 15  1  0  0  0
 15 16  1  0  0  0
 15  4  1  0  0  0
 16 17  1  0  0  0
 17 18  1  0  0  0
 17 20  1  0  0  0
 18 19  1  0  0  0
 20 21  1  0  0  0
 20  3  1  0  0  0
 21 22  2  0  0  0
 22 23  2  0  0  0
M  END
>  <CHROM.0>
-176.55384286,-177.91601347,-61.90838003

>  <CHROM.1>
69.27155801,80.98460724,63.99358211,131.51668334,34.48114793,2.71497754,-60.74754931
1.55065663,-0.83929874,-2.43359046

>  <Energy>
48.67850952369678

>  <Genealogy>
CO[C@H]1O[C@@H]2CO[C@@H](c3ccccc3)O[C@H]2[C@@H](O)[C@H]1N=[N+]=[N-] (cis-trans isomerization)
CO[C@H]1O[C@@H]2CO[C@@H](c3ccccc3)O[C@H]2[C@@H](O)[C@H]1N=[N+]=[N-] (3D coordinates assigned)
CO[C@H]1O[C@@H]2CO[C@@H](c3ccccc3)O[C@H]2[C@@H](O)[C@H]1N=[N+]=[N-] (nonaromatic ring conformer: 48.67850952369678 kcal/mol)

>  <Name>
ZINC000032106887

>  <RI>
1.63646e+07

>  <Rbt.Current_Directory>
/home/edward/Documentos/Virtual_Screening/rDock/N-terminal/3

>  <Rbt.Executable>
rbdock ($Id: //depot/dev/client3/rdock/2013.1/src/exe/rbdock.cxx#4 $)

>  <Rbt.Library>
libRbt.so (2013.1, Build901 2013/11/27)

>  <Rbt.Parameter_File>
/home/edward/anaconda3/envs/MD/share/rdock-2013.1-1/data/scripts/dock.prm

>  <Rbt.Receptor>
parameters.prm

>  <SCORE>
-15.1659

>  <SCORE.INTER>
-11.5877

>  <SCORE.INTER.CONST>
1

>  <SCORE.INTER.POLAR>
-0.635966

>  <SCORE.INTER.REPUL>
0.0157489

>  <SCORE.INTER.ROT>
3

>  <SCORE.INTER.VDW>
-17.9042

>  <SCORE.INTER.norm>
-0.526716

>  <SCORE.INTRA>
-3.16739

>  <SCORE.INTRA.DIHEDRAL>
-4.85426

>  <SCORE.INTRA.DIHEDRAL.0>
6.35094

>  <SCORE.INTRA.POLAR>
-0.722815

>  <SCORE.INTRA.POLAR.0>
0

>  <SCORE.INTRA.REPUL>
0

>  <SCORE.INTRA.REPUL.0>
0

>  <SCORE.INTRA.VDW>
1.71731

>  <SCORE.INTRA.VDW.0>
-1.24664

>  <SCORE.INTRA.norm>
-0.143972

>  <SCORE.RESTR>
0

>  <SCORE.RESTR.CAVITY>
0

>  <SCORE.RESTR.norm>
0

>  <SCORE.SYSTEM>
-0.410776

>  <SCORE.SYSTEM.CONST>
0

>  <SCORE.SYSTEM.DIHEDRAL>
0.0978146

>  <SCORE.SYSTEM.REPUL>
0.0855848

>  <SCORE.SYSTEM.VDW>
-0.887608

>  <SCORE.SYSTEM.norm>
-0.0186716

>  <SCORE.heavy>
22

>  <SCORE.norm>
-0.68936

>  <SMILES>
CO[C@H]1O[C@@H]2CO[C@@H](c3ccccc3)O[C@H]2[C@@H](O)[C@H]1N=[N+]=[N-]

>  <UniqueID>
340

$$$$
ZINC000032106889
  rDOCK(R)          3D
libRbt.so/2013.1/901 2013/11/27
 23 25  0  0  0  0  0  0  0  0999 V2000
   36.0405    2.5714  -59.7037 H   0  0  0  0  0  0
   36.5447    3.4247  -59.6498 O   0  0  0  0  0  0
   35.7481    4.4130  -60.2569 C   0  0  0  0  0  0
   34.5366    4.7179  -59.3688 C   0  0  0  0  0  0
   34.9632    5.0476  -58.0588 O   0  0  0  0  0  0
   33.8925    5.0410  -57.1146 C   0  0  0  0  0  0
   34.0132    6.2644  -56.2459 C   0  0  0  0  0  0
   33.2118    6.4167  -55.1005 C   0  0  0  0  0  0
   33.3287    7.5615  -54.3058 C   0  0  0  0  0  0
   34.2418    8.5625  -54.6480 C   0  0  0  0  0  0
   35.0393    8.4214  -55.7867 C   0  0  0  0  0  0
   34.9260    7.2787  -56.5844 C   0  0  0  0  0  0
   32.6057    5.0453  -57.7195 O   0  0  0  0  0  0
   32.4002    3.8402  -58.4345 C   0  0  0  0  0  0
   33.5884    3.5060  -59.3552 C   0  0  0  0  0  0
   33.1281    3.2115  -60.6644 O   0  0  0  0  0  0
   34.2015    2.8185  -61.5133 C   0  0  0  0  0  0
   34.8143    1.6221  -61.0567 O   0  0  0  0  0  0
   33.9516    0.5254  -61.2635 C   0  0  0  0  0  0
   35.2552    3.9478  -61.6422 C   0  0  0  0  0  0
   36.3876    3.5180  -62.4592 N   0  0  0  0  0  0
   36.2273    2.7844  -63.4354 N   0  3  0  0  0  0
   36.0672    2.0514  -64.4099 N   0  5  0  0  0  0
  1  2  1  0  0  0
  2  3  1  0  0  0
  3  4  1  0  0  0
  4  5  1  0  0  0
  5  6  1  0  0  0
  6  7  1  0  0  0
  6 13  1  0  0  0
  7  8  2  0  0  0
  8  9  1  0  0  0
  9 10  2  0  0  0
 10 11  1  0  0  0
 11 12  2  0  0  0
 12  7  1  0  0  0
 13 14  1  0  0  0
 14 15  1  0  0  0
 15 16  1  0  0  0
 15  4  1  0  0  0
 16 17  1  0  0  0
 17 18  1  0  0  0
 17 20  1  0  0  0
 18 19  1  0  0  0
 20 21  1  0  0  0
 20  3  1  0  0  0
 21 22  2  0  0  0
 22 23  2  0  0  0
M  END
>  <CHROM.0>
-74.20814313,-59.35389825,59.69221614

>  <CHROM.1>
70.67820596,-170.40727182,70.94983334,160.08113061,34.51161130,4.44608088
-59.13346388,-1.37132739,0.60087265,0.83866268

>  <Energy>
56.57042815659804

>  <Genealogy>
CO[C@H]1O[C@@H]2CO[C@H](c3ccccc3)O[C@H]2[C@@H](O)[C@H]1N=[N+]=[N-] (cis-trans isomerization)
CO[C@H]1O[C@@H]2CO[C@H](c3ccccc3)O[C@H]2[C@@H](O)[C@H]1N=[N+]=[N-] (3D coordinates assigned)
CO[C@H]1O[C@@H]2CO[C@H](c3ccccc3)O[C@H]2[C@@H](O)[C@H]1N=[N+]=[N-] (nonaromatic ring conformer: 56.57042815659804 kcal/mol)

>  <Name>
ZINC000032106889

>  <RI>
1.63646e+07

>  <Rbt.Current_Directory>
/home/edward/Documentos/Virtual_Screening/rDock/N-terminal/3

>  <Rbt.Executable>
rbdock ($Id: //depot/dev/client3/rdock/2013.1/src/exe/rbdock.cxx#4 $)

>  <Rbt.Library>
libRbt.so (2013.1, Build901 2013/11/27)

>  <Rbt.Parameter_File>
/home/edward/anaconda3/envs/MD/share/rdock-2013.1-1/data/scripts/dock.prm

>  <Rbt.Receptor>
parameters.prm

>  <SCORE>
-19.5063

>  <SCORE.INTER>
-16.6425

>  <SCORE.INTER.CONST>
1

>  <SCORE.INTER.POLAR>
-1.21469

>  <SCORE.INTER.REPUL>
0.0117198

>  <SCORE.INTER.ROT>
3

>  <SCORE.INTER.VDW>
-20.9711

>  <SCORE.INTER.norm>
-0.756477

>  <SCORE.INTRA>
-2.72595

>  <SCORE.INTRA.DIHEDRAL>
-2.72517

>  <SCORE.INTRA.DIHEDRAL.0>
6.4182

>  <SCORE.INTRA.POLAR>
-0.745881

>  <SCORE.INTRA.POLAR.0>
0

>  <SCORE.INTRA.REPUL>
0

>  <SCORE.INTRA.REPUL.0>
0

>  <SCORE.INTRA.VDW>
1.17263

>  <SCORE.INTRA.VDW.0>
-1.43799

>  <SCORE.INTRA.norm>
-0.123907

>  <SCORE.RESTR>
0

>  <SCORE.RESTR.CAVITY>
0

>  <SCORE.RESTR.norm>
0

>  <SCORE.SYSTEM>
-0.137832

>  <SCORE.SYSTEM.CONST>
0

>  <SCORE.SYSTEM.DIHEDRAL>
0.953617

>  <SCORE.SYSTEM.VDW>
-0.61464

>  <SCORE.SYSTEM.norm>
-0.00626507

>  <SCORE.heavy>
22

>  <SCORE.norm>
-0.886649

>  <SMILES>
CO[C@H]1O[C@@H]2CO[C@H](c3ccccc3)O[C@H]2[C@@H](O)[C@H]1N=[N+]=[N-]

>  <UniqueID>
343

$$$$
ZINC000044021353
  rDOCK(R)          3D
libRbt.so/2013.1/901 2013/11/27
 25 26  0  0  0  0  0  0  0  0999 V2000
   30.1517   -5.5149  -67.7502 C   0  0  0  0  0  0
   31.2157   -5.3225  -66.8236 O   0  0  0  0  0  0
   31.4901   -4.1101  -66.1736 C   0  0  0  0  0  0
   30.5876   -3.0299  -66.1772 C   0  0  0  0  0  0
   30.9073   -1.8410  -65.5140 C   0  0  0  0  0  0
   32.1328   -1.7113  -64.8366 C   0  0  0  0  0  0
   32.4946   -0.4671  -64.1291 C   0  0  0  0  0  0
   33.6330   -0.3568  -63.5109 N   0  0  0  0  0  0
   34.0956    0.8265  -62.7748 C   0  0  0  0  0  0
   35.2511    1.5439  -63.5007 C   0  0  0  0  0  0
   36.3229    0.6574  -63.7109 O   0  0  0  0  0  0
   35.7169    2.7425  -62.6518 C   0  0  0  0  0  0
   36.8751    3.2965  -63.2255 O   0  0  0  0  0  0
   35.9944    2.2835  -61.1963 C   0  0  0  0  0  0
   36.4083    3.4691  -60.3170 C   0  0  0  0  0  0
   37.7208    3.8496  -60.6259 O   0  0  0  0  0  0
   34.8305    1.6957  -60.6339 O   0  0  0  0  0  0
   34.4894    0.5012  -61.3179 C   0  0  0  0  0  0
   33.3956   -0.0932  -60.6737 O   0  0  0  0  0  0
   33.0296   -2.7903  -64.8356 C   0  0  0  0  0  0
   32.7087   -3.9781  -65.4989 C   0  0  0  0  0  0
   35.9561   -0.1371  -64.1798 H   0  0  0  0  0  0
   36.5885    4.0674  -63.7815 H   0  0  0  0  0  0
   38.3047    3.1176  -60.2969 H   0  0  0  0  0  0
   33.7110   -0.3558  -59.7698 H   0  0  0  0  0  0
  1  2  1  0  0  0
  2  3  1  0  0  0
  3  4  2  0  0  0
  4  5  1  0  0  0
  5  6  2  0  0  0
  6  7  1  0  0  0
  6 20  1  0  0  0
  7  8  2  0  0  0
  8  9  1  0  0  0
  9 10  1  0  0  0
 10 11  1  0  0  0
 10 12  1  0  0  0
 11 22  1  0  0  0
 12 13  1  0  0  0
 12 14  1  0  0  0
 13 23  1  0  0  0
 14 15  1  0  0  0
 14 17  1  0  0  0
 15 16  1  0  0  0
 16 24  1  0  0  0
 17 18  1  0  0  0
 18 19  1  0  0  0
 18  9  1  0  0  0
 19 25  1  0  0  0
 20 21  2  0  0  0
 21  3  1  0  0  0
M  END
>  <CHROM.0>
72.60013493,-57.58927703,59.02437735

>  <CHROM.1>
12.51132966,-179.71517951,-109.64639846,53.81818630,97.02317333,-74.16398735
-69.63011345,175.32019361,33.88932636,-0.30905142,-63.53513552,-2.33943574
0.73248380,1.20096323

>  <Energy>
39.25114894258235

>  <Genealogy>
COc1ccc(/C=N/[C@@H]2[C@H](O)[C@H](O)[C@@H](CO)O[C@H]2O)cc1 (3D coordinates assigned)
COc1ccc(/C=N/[C@@H]2[C@H](O)[C@H](O)[C@@H](CO)O[C@H]2O)cc1 (nonaromatic ring conformer: 39.25114894258235 kcal/mol)

>  <Name>
ZINC000044021353

>  <RI>
1.63646e+07

>  <Rbt.Current_Directory>
/home/edward/Documentos/Virtual_Screening/rDock/N-terminal/3

>  <Rbt.Executable>
rbdock ($Id: //depot/dev/client3/rdock/2013.1/src/exe/rbdock.cxx#4 $)

>  <Rbt.Library>
libRbt.so (2013.1, Build901 2013/11/27)

>  <Rbt.Parameter_File>
/home/edward/anaconda3/envs/MD/share/rdock-2013.1-1/data/scripts/dock.prm

>  <Rbt.Receptor>
parameters.prm

>  <SCORE>
-27.1794

>  <SCORE.INTER>
-25.2786

>  <SCORE.INTER.CONST>
1

>  <SCORE.INTER.POLAR>
-5.20678

>  <SCORE.INTER.REPUL>
0.161094

>  <SCORE.INTER.ROT>
4

>  <SCORE.INTER.VDW>
-17.781

>  <SCORE.INTER.norm>
-1.20374

>  <SCORE.INTRA>
-1.85357

>  <SCORE.INTRA.DIHEDRAL>
-3.03167

>  <SCORE.INTRA.DIHEDRAL.0>
9.78315

>  <SCORE.INTRA.POLAR>
-0.0468948

>  <SCORE.INTRA.POLAR.0>
0

>  <SCORE.INTRA.REPUL>
0

>  <SCORE.INTRA.REPUL.0>
0

>  <SCORE.INTRA.VDW>
-0.178297

>  <SCORE.INTRA.VDW.0>
-0.230679

>  <SCORE.INTRA.norm>
-0.0882654

>  <SCORE.RESTR>
0

>  <SCORE.RESTR.CAVITY>
0

>  <SCORE.RESTR.norm>
0

>  <SCORE.SYSTEM>
-0.0472624

>  <SCORE.SYSTEM.CONST>
0

>  <SCORE.SYSTEM.DIHEDRAL>
0.788795

>  <SCORE.SYSTEM.POLAR>
-0.0176462

>  <SCORE.SYSTEM.REPUL>
0.00715673

>  <SCORE.SYSTEM.VDW>
-0.417446

>  <SCORE.SYSTEM.norm>
-0.00225059

>  <SCORE.heavy>
21

>  <SCORE.norm>
-1.29426

>  <SMILES>
COc1ccc(/C=N/[C@@H]2[C@H](O)[C@H](O)[C@@H](CO)O[C@H]2O)cc1

>  <UniqueID>
346

$$$$
ZINC000056871016
  rDOCK(R)          3D
libRbt.so/2013.1/901 2013/11/27
 20 20  0  0  0  0  0  0  0  0999 V2000
   32.6308    0.2499  -60.0549 C   0  0  0  0  0  0
   32.6391    0.3423  -61.4630 O   0  0  0  0  0  0
   33.8703    0.8806  -61.9078 C   0  0  0  0  0  0
   33.9574    2.2351  -61.4941 O   0  0  0  0  0  0
   35.2204    2.7846  -61.8310 C   0  0  0  0  0  0
   35.3237    4.1852  -61.2096 C   0  0  0  0  0  0
   35.3247    4.0989  -59.8094 O   0  0  0  0  0  0
   35.3758    2.8546  -63.3677 C   0  0  0  0  0  0
   36.6386    3.3726  -63.7005 O   0  0  0  0  0  0
   35.1983    1.4501  -63.9809 C   0  0  0  0  0  0
   36.2997    0.6345  -63.6609 O   0  0  0  0  0  0
   33.9038    0.8045  -63.4497 C   0  0  0  0  0  0
   33.8027   -0.5875  -63.9046 N   0  0  0  0  0  0
   32.5463   -1.2692  -64.0148 C   0  0  0  0  0  0
   32.5021   -2.6673  -64.5394 C   0  0  0  0  0  0
   31.4749   -0.6950  -63.6790 O   0  0  0  0  0  0
   36.1349    3.5853  -59.5538 H   0  0  0  0  0  0
   36.6157    4.3415  -63.4842 H   0  0  0  0  0  0
   36.1822   -0.2188  -64.1540 H   0  0  0  0  0  0
   34.6735   -1.1195  -64.1333 H   0  0  0  0  0  0
  1  2  1  0  0  0
  2  3  1  0  0  0
  3  4  1  0  0  0
  4  5  1  0  0  0
  5  6  1  0  0  0
  5  8  1  0  0  0
  6  7  1  0  0  0
  7 17  1  0  0  0
  8  9  1  0  0  0
  8 10  1  0  0  0
  9 18  1  0  0  0
 10 11  1  0  0  0
 10 12  1  0  0  0
 11 19  1  0  0  0
 12 13  1  0  0  0
 12  3  1  0  0  0
 13 14  1  0  0  0
 13 20  1  0  0  0
 14 15  1  0  0  0
 14 16  2  0  0  0
M  END
>  <CHROM.0>
-176.33314910,-176.98610649,-61.87710451

>  <CHROM.1>
-67.51901692,65.35940395,62.57335077,-72.33264356,-174.21137174,82.09523062
34.19859162,1.18846158,-62.59537392,2.28778677,-0.70464774,-2.21764220

>  <Energy>
27.914696627426146

>  <Genealogy>
CO[C@@H]1O[C@H](CO)[C@@H](O)[C@@H](O)[C@H]1NC(C)=O (3D coordinates assigned)
CO[C@@H]1O[C@H](CO)[C@@H](O)[C@@H](O)[C@H]1NC(C)=O (nonaromatic ring conformer: 27.914696627426146 kcal/mol)

>  <Name>
ZINC000056871016

>  <RI>
1.63646e+07

>  <Rbt.Current_Directory>
/home/edward/Documentos/Virtual_Screening/rDock/N-terminal/3

>  <Rbt.Executable>
rbdock ($Id: //depot/dev/client3/rdock/2013.1/src/exe/rbdock.cxx#4 $)

>  <Rbt.Library>
libRbt.so (2013.1, Build901 2013/11/27)

>  <Rbt.Parameter_File>
/home/edward/anaconda3/envs/MD/share/rdock-2013.1-1/data/scripts/dock.prm

>  <Rbt.Receptor>
parameters.prm

>  <SCORE>
-21.3421

>  <SCORE.INTER>
-19.9878

>  <SCORE.INTER.CONST>
1

>  <SCORE.INTER.POLAR>
-4.29872

>  <SCORE.INTER.REPUL>
0

>  <SCORE.INTER.ROT>
3

>  <SCORE.INTER.VDW>
-13.7721

>  <SCORE.INTER.norm>
-1.24924

>  <SCORE.INTRA>
-0.946017

>  <SCORE.INTRA.DIHEDRAL>
-5.73291

>  <SCORE.INTRA.DIHEDRAL.0>
8.19339

>  <SCORE.INTRA.POLAR>
0

>  <SCORE.INTRA.POLAR.0>
0

>  <SCORE.INTRA.REPUL>
0

>  <SCORE.INTRA.REPUL.0>
0

>  <SCORE.INTRA.VDW>
1.92044

>  <SCORE.INTRA.VDW.0>
-1.43463

>  <SCORE.INTRA.norm>
-0.0591261

>  <SCORE.RESTR>
0

>  <SCORE.RESTR.CAVITY>
0

>  <SCORE.RESTR.norm>
0

>  <SCORE.SYSTEM>
-0.408342

>  <SCORE.SYSTEM.CONST>
0

>  <SCORE.SYSTEM.DIHEDRAL>
0.128255

>  <SCORE.SYSTEM.REPUL>
0.0831828

>  <SCORE.SYSTEM.VDW>
-0.888383

>  <SCORE.SYSTEM.norm>
-0.0255214

>  <SCORE.heavy>
16

>  <SCORE.norm>
-1.33388

>  <SMILES>
CO[C@@H]1O[C@H](CO)[C@@H](O)[C@@H](O)[C@H]1NC(C)=O

>  <UniqueID>
349

$$$$
ZINC000077269504
  rDOCK(R)          3D
libRbt.so/2013.1/901 2013/11/27
 25 27  0  0  0  0  0  0  0  0999 V2000
   32.4897   -2.7359  -63.5573 C   0  0  0  0  0  0
   33.2877   -1.7097  -62.8214 C   0  0  0  0  0  0
   33.1106   -1.5551  -61.5827 O   0  0  0  0  0  0
   34.2764   -0.9380  -63.5175 N   0  0  0  0  0  0
   35.0689    0.1047  -62.8534 C   0  0  0  0  0  0
   35.6349    1.1211  -63.8809 C   0  0  0  0  0  0
   34.6120    1.6502  -64.6884 O   0  0  0  0  0  0
   36.3677    2.1608  -63.2415 O   0  0  0  0  0  0
   35.5386    2.8797  -62.3443 C   0  0  0  0  0  0
   36.3075    4.0399  -61.7180 C   0  0  0  0  0  0
   35.5014    4.6925  -60.7558 O   0  0  0  0  0  0
   35.1169    3.7778  -59.7385 C   0  0  0  0  0  0
   34.3055    4.5239  -58.7126 C   0  0  0  0  0  0
   34.8605    4.8703  -57.4674 C   0  0  0  0  0  0
   34.0963    5.5634  -56.5232 C   0  0  0  0  0  0
   32.7756    5.9162  -56.8124 C   0  0  0  0  0  0
   32.2159    5.5768  -58.0468 C   0  0  0  0  0  0
   32.9758    4.8841  -58.9942 C   0  0  0  0  0  0
   34.3139    2.7309  -60.2677 O   0  0  0  0  0  0
   35.0719    1.9781  -61.1935 C   0  0  0  0  0  0
   34.2412    0.8214  -61.7605 C   0  0  0  0  0  0
   33.0333    1.3126  -62.2877 O   0  0  0  0  0  0
   34.4580   -1.1679  -64.5210 H   0  0  0  0  0  0
   35.0492    2.2862  -65.3125 H   0  0  0  0  0  0
   33.2621    1.8249  -63.1066 H   0  0  0  0  0  0
  1  2  1  0  0  0
  2  3  2  0  0  0
  2  4  1  0  0  0
  4  5  1  0  0  0
  4 23  1  0  0  0
  5  6  1  0  0  0
  6  7  1  0  0  0
  6  8  1  0  0  0
  7 24  1  0  0  0
  8  9  1  0  0  0
  9 10  1  0  0  0
 10 11  1  0  0  0
 11 12  1  0  0  0
 12 13  1  0  0  0
 12 19  1  0  0  0
 13 14  2  0  0  0
 14 15  1  0  0  0
 15 16  2  0  0  0
 16 17  1  0  0  0
 17 18  2  0  0  0
 18 13  1  0  0  0
 19 20  1  0  0  0
 20 21  1  0  0  0
 20  9  1  0  0  0
 21 22  1  0  0  0
 21  5  1  0  0  0
 22 25  1  0  0  0
M  END
>  <CHROM.0>
-176.82229313,-60.67820461,61.59340779

>  <CHROM.1>
-158.15982921,179.93233435,-104.72413883,-50.30014567,34.33384234,2.27322893
-61.15895455,1.54648379,-0.76945481,-2.41941461

>  <Energy>
47.39510189340795

>  <Genealogy>
CC(=O)N[C@H]1[C@@H](O)O[C@@H]2CO[C@@H](c3ccccc3)O[C@H]2[C@H]1O (3D coordinates assigned)
CC(=O)N[C@H]1[C@@H](O)O[C@@H]2CO[C@@H](c3ccccc3)O[C@H]2[C@H]1O (nonaromatic ring conformer: 47.39510189340795 kcal/mol)

>  <Name>
ZINC000077269504

>  <RI>
1.63646e+07

>  <Rbt.Current_Directory>
/home/edward/Documentos/Virtual_Screening/rDock/N-terminal/3

>  <Rbt.Executable>
rbdock ($Id: //depot/dev/client3/rdock/2013.1/src/exe/rbdock.cxx#4 $)

>  <Rbt.Library>
libRbt.so (2013.1, Build901 2013/11/27)

>  <Rbt.Parameter_File>
/home/edward/anaconda3/envs/MD/share/rdock-2013.1-1/data/scripts/dock.prm

>  <Rbt.Receptor>
parameters.prm

>  <SCORE>
-20.534

>  <SCORE.INTER>
-17.4976

>  <SCORE.INTER.CONST>
1

>  <SCORE.INTER.POLAR>
-2.14451

>  <SCORE.INTER.REPUL>
0

>  <SCORE.INTER.ROT>
2

>  <SCORE.INTER.VDW>
-17.6062

>  <SCORE.INTER.norm>
-0.795344

>  <SCORE.INTRA>
-1.90595

>  <SCORE.INTRA.DIHEDRAL>
-2.16824

>  <SCORE.INTRA.DIHEDRAL.0>
4.53639

>  <SCORE.INTRA.POLAR>
-0.739764

>  <SCORE.INTRA.POLAR.0>
0

>  <SCORE.INTRA.REPUL>
0

>  <SCORE.INTRA.REPUL.0>
0

>  <SCORE.INTRA.VDW>
1.69337

>  <SCORE.INTRA.VDW.0>
-1.92724

>  <SCORE.INTRA.norm>
-0.0866342

>  <SCORE.RESTR>
0

>  <SCORE.RESTR.CAVITY>
0

>  <SCORE.RESTR.norm>
0

>  <SCORE.SYSTEM>
-1.13053

>  <SCORE.SYSTEM.CONST>
0

>  <SCORE.SYSTEM.DIHEDRAL>
0.0645074

>  <SCORE.SYSTEM.REPUL>
0.0312597

>  <SCORE.SYSTEM.VDW>
-1.31908

>  <SCORE.SYSTEM.norm>
-0.0513877

>  <SCORE.heavy>
22

>  <SCORE.norm>
-0.933366

>  <SMILES>
CC(=O)N[C@H]1[C@@H](O)O[C@@H]2CO[C@@H](c3ccccc3)O[C@H]2[C@H]1O

>  <UniqueID>
353

$$$$
ZINC000082114392
  rDOCK(R)          3D
libRbt.so/2013.1/901 2013/11/27
 18 18  0  0  0  0  0  0  0  0999 V2000
   33.0757   -1.7672  -63.4813 C   0  0  0  0  0  0
   34.2263   -0.9638  -63.3326 O   0  0  0  0  0  0
   33.9257    0.3897  -63.6348 C   0  0  0  0  0  0
   33.2860    1.0158  -62.5247 O   0  0  0  0  0  0
   34.2257    1.4003  -61.5369 C   0  0  0  0  0  0
   33.4810    1.7292  -60.2342 C   0  0  0  0  0  0
   32.9061    0.5784  -59.6733 O   0  0  0  0  0  0
   35.0758    2.6035  -62.0347 C   0  0  0  0  0  0
   36.3671    2.5322  -61.4832 O   0  0  0  0  0  0
   35.1619    2.6018  -63.5767 C   0  0  0  0  0  0
   36.2760    3.3428  -64.0066 O   0  0  0  0  0  0
   35.2021    1.1554  -64.1208 C   0  0  0  0  0  0
   36.4319    0.4746  -63.6933 N   0  0  0  0  0  0
   33.6416   -0.0751  -59.5423 H   0  0  0  0  0  0
   36.8494    3.3497  -61.7734 H   0  0  0  0  0  0
   36.1398    4.2742  -63.6907 H   0  0  0  0  0  0
   36.3220   -0.5532  -63.8509 H   0  0  0  0  0  0
   36.5225    0.5800  -62.6565 H   0  0  0  0  0  0
  1  2  1  0  0  0
  2  3  1  0  0  0
  3  4  1  0  0  0
  4  5  1  0  0  0
  5  6  1  0  0  0
  5  8  1  0  0  0
  6  7  1  0  0  0
  7 14  1  0  0  0
  8  9  1  0  0  0
  8 10  1  0  0  0
  9 15  1  0  0  0
 10 11  1  0  0  0
 10 12  1  0  0  0
 11 16  1  0  0  0
 12 13  1  0  0  0
 12  3  1  0  0  0
 13 17  1  0  0  0
 13 18  1  0  0  0
M  END
>  <CHROM.0>
-73.15676790,-61.77663442,62.57047094

>  <CHROM.1>
79.85392413,67.68732241,56.47191044,-175.96807722,-61.57416755,43.59644109
34.61167109,1.14992958,-62.53268008,-2.98946669,0.83832884,0.88918777

>  <Energy>
36.70887846803741

>  <Genealogy>
CO[C@H]1O[C@H](CO)[C@@H](O)[C@@H](O)[C@H]1N (3D coordinates assigned)
CO[C@H]1O[C@H](CO)[C@@H](O)[C@@H](O)[C@H]1N (nonaromatic ring conformer: 36.70887846803741 kcal/mol)

>  <Name>
ZINC000082114392

>  <RI>
1.63646e+07

>  <Rbt.Current_Directory>
/home/edward/Documentos/Virtual_Screening/rDock/N-terminal/3

>  <Rbt.Executable>
rbdock ($Id: //depot/dev/client3/rdock/2013.1/src/exe/rbdock.cxx#4 $)

>  <Rbt.Library>
libRbt.so (2013.1, Build901 2013/11/27)

>  <Rbt.Parameter_File>
/home/edward/anaconda3/envs/MD/share/rdock-2013.1-1/data/scripts/dock.prm

>  <Rbt.Receptor>
parameters.prm

>  <SCORE>
-19.3498

>  <SCORE.INTER>
-17.2476

>  <SCORE.INTER.CONST>
1

>  <SCORE.INTER.POLAR>
-4.08614

>  <SCORE.INTER.REPUL>
0.00785737

>  <SCORE.INTER.ROT>
3

>  <SCORE.INTER.VDW>
-11.794

>  <SCORE.INTER.norm>
-1.32674

>  <SCORE.INTRA>
-1.95136

>  <SCORE.INTRA.DIHEDRAL>
-2.43056

>  <SCORE.INTRA.DIHEDRAL.0>
4.98278

>  <SCORE.INTRA.POLAR>
-0.279192

>  <SCORE.INTRA.POLAR.0>
0

>  <SCORE.INTRA.REPUL>
0

>  <SCORE.INTRA.REPUL.0>
0

>  <SCORE.INTRA.VDW>
0.213175

>  <SCORE.INTRA.VDW.0>
-0.790003

>  <SCORE.INTRA.norm>
-0.150104

>  <SCORE.RESTR>
0

>  <SCORE.RESTR.CAVITY>
0

>  <SCORE.RESTR.norm>
0

>  <SCORE.SYSTEM>
-0.15079

>  <SCORE.SYSTEM.CONST>
0

>  <SCORE.SYSTEM.DIHEDRAL>
0.869087

>  <SCORE.SYSTEM.VDW>
-0.585333

>  <SCORE.SYSTEM.norm>
-0.0115992

>  <SCORE.heavy>
13

>  <SCORE.norm>
-1.48844

>  <SMILES>
CO[C@H]1O[C@H](CO)[C@@H](O)[C@@H](O)[C@H]1N

>  <UniqueID>
356

$$$$
ZINC000100342293
  rDOCK(R)          3D
libRbt.so/2013.1/901 2013/11/27
 25 26  0  0  0  0  0  0  0  0999 V2000
   32.1862   -6.2738  -67.3116 C   0  0  0  0  0  0
   31.2633   -5.3165  -66.8025 O   0  0  0  0  0  0
   31.6312   -4.1429  -66.1276 C   0  0  0  0  0  0
   32.9086   -3.9645  -65.5639 C   0  0  0  0  0  0
   33.2274   -2.7757  -64.9006 C   0  0  0  0  0  0
   32.2763   -1.7458  -64.7893 C   0  0  0  0  0  0
   32.5877   -0.4818  -64.0931 C   0  0  0  0  0  0
   33.7471   -0.2901  -63.5415 N   0  0  0  0  0  0
   34.1037    0.9399  -62.8338 C   0  0  0  0  0  0
   34.4063    0.6541  -61.3450 C   0  0  0  0  0  0
   35.3613   -0.3691  -61.2091 O   0  0  0  0  0  0
   34.8142    1.8322  -60.6641 O   0  0  0  0  0  0
   36.0040    2.3755  -61.2172 C   0  0  0  0  0  0
   36.4455    3.5594  -60.3463 C   0  0  0  0  0  0
   37.7774    3.8990  -60.6200 O   0  0  0  0  0  0
   35.7810    2.8079  -62.6858 C   0  0  0  0  0  0
   36.9712    3.3298  -63.2198 O   0  0  0  0  0  0
   35.3088    1.6019  -63.5202 C   0  0  0  0  0  0
   36.3504    0.6674  -63.6689 O   0  0  0  0  0  0
   31.0042   -1.9276  -65.3522 C   0  0  0  0  0  0
   30.6870   -3.1165  -66.0151 C   0  0  0  0  0  0
   35.4575   -0.5343  -60.2352 H   0  0  0  0  0  0
   38.3285    3.1459  -60.2825 H   0  0  0  0  0  0
   36.7159    4.1114  -63.7763 H   0  0  0  0  0  0
   35.9711   -0.1170  -64.1445 H   0  0  0  0  0  0
  1  2  1  0  0  0
  2  3  1  0  0  0
  3  4  2  0  0  0
  4  5  1  0  0  0
  5  6  2  0  0  0
  6  7  1  0  0  0
  6 20  1  0  0  0
  7  8  2  0  0  0
  8  9  1  0  0  0
  9 10  1  0  0  0
 10 11  1  0  0  0
 10 12  1  0  0  0
 11 22  1  0  0  0
 12 13  1  0  0  0
 13 14  1  0  0  0
 13 16  1  0  0  0
 14 15  1  0  0  0
 15 23  1  0  0  0
 16 17  1  0  0  0
 16 18  1  0  0  0
 17 24  1  0  0  0
 18 19  1  0  0  0
 18  9  1  0  0  0
 19 25  1  0  0  0
 20 21  2  0  0  0
 21  3  1  0  0  0
M  END
>  <CHROM.0>
-175.42268203,-59.32231605,61.89485055

>  <CHROM.1>
-17.91944272,-1.10471129,117.49074885,-176.41241996,164.02374666,-68.52123340
-140.14137067,54.18069497,34.16704130,-0.33113120,-63.53678970,-2.16310414
0.53459210,0.92614827

>  <Energy>
38.451003450359124

>  <Genealogy>
COc1ccc(/C=N/[C@H]2[C@@H](O)O[C@H](CO)[C@@H](O)[C@H]2O)cc1 (3D coordinates assigned)
COc1ccc(/C=N/[C@H]2[C@@H](O)O[C@H](CO)[C@@H](O)[C@H]2O)cc1 (nonaromatic ring conformer: 38.451003450359124 kcal/mol)

>  <Name>
ZINC000100342293

>  <RI>
1.63646e+07

>  <Rbt.Current_Directory>
/home/edward/Documentos/Virtual_Screening/rDock/N-terminal/3

>  <Rbt.Executable>
rbdock ($Id: //depot/dev/client3/rdock/2013.1/src/exe/rbdock.cxx#4 $)

>  <Rbt.Library>
libRbt.so (2013.1, Build901 2013/11/27)

>  <Rbt.Parameter_File>
/home/edward/anaconda3/envs/MD/share/rdock-2013.1-1/data/scripts/dock.prm

>  <Rbt.Receptor>
parameters.prm

>  <SCORE>
-24.0616

>  <SCORE.INTER>
-23.1429

>  <SCORE.INTER.CONST>
1

>  <SCORE.INTER.POLAR>
-4.47411

>  <SCORE.INTER.REPUL>
0.209912

>  <SCORE.INTER.ROT>
4

>  <SCORE.INTER.VDW>
-18.3805

>  <SCORE.INTER.norm>
-1.10204

>  <SCORE.INTRA>
0.197694

>  <SCORE.INTRA.DIHEDRAL>
1.31734

>  <SCORE.INTRA.DIHEDRAL.0>
6.08143

>  <SCORE.INTRA.POLAR>
-0.103585

>  <SCORE.INTRA.POLAR.0>
0

>  <SCORE.INTRA.REPUL>
0

>  <SCORE.INTRA.REPUL.0>
0

>  <SCORE.INTRA.VDW>
-0.108788

>  <SCORE.INTRA.VDW.0>
-0.4825

>  <SCORE.INTRA.norm>
0.00941399

>  <SCORE.RESTR>
0

>  <SCORE.RESTR.CAVITY>
0

>  <SCORE.RESTR.norm>
0

>  <SCORE.SYSTEM>
-1.11641

>  <SCORE.SYSTEM.CONST>
0

>  <SCORE.SYSTEM.DIHEDRAL>
0.122869

>  <SCORE.SYSTEM.REPUL>
0.0273551

>  <SCORE.SYSTEM.VDW>
-1.31462

>  <SCORE.SYSTEM.norm>
-0.0531624

>  <SCORE.heavy>
21

>  <SCORE.norm>
-1.14579

>  <SMILES>
COc1ccc(/C=N/[C@H]2[C@@H](O)O[C@H](CO)[C@@H](O)[C@H]2O)cc1

>  <UniqueID>
358

$$$$
ZINC000100656214
  rDOCK(R)          3D
libRbt.so/2013.1/901 2013/11/27
 26 27  0  0  0  0  0  0  0  0999 V2000
   31.0675   -1.7241  -65.3037 H   0  0  0  0  0  0
   31.8054   -1.1633  -64.9012 O   0  0  0  0  0  0
   33.0850   -1.6484  -64.6162 C   0  0  0  0  0  0
   34.0181   -0.9043  -64.0934 N   0  0  0  0  0  0
   33.9058    0.4928  -63.6626 C   0  0  0  0  0  0
   35.1469    1.2722  -64.1403 C   0  0  0  0  0  0
   36.3272    0.6091  -63.7534 O   0  0  0  0  0  0
   36.2521   -0.3290  -64.0694 H   0  0  0  0  0  0
   35.1383    2.6923  -63.5453 C   0  0  0  0  0  0
   36.3485    3.3402  -63.8442 O   0  0  0  0  0  0
   36.2432    4.2867  -63.5633 H   0  0  0  0  0  0
   34.9332    2.6210  -62.0118 C   0  0  0  0  0  0
   34.8365    4.0253  -61.3921 C   0  0  0  0  0  0
   36.0690    4.6924  -61.4457 O   0  0  0  0  0  0
   36.6940    4.1831  -60.8664 H   0  0  0  0  0  0
   33.7303    1.9322  -61.7138 O   0  0  0  0  0  0
   33.8038    0.5769  -62.1233 C   0  0  0  0  0  0
   32.6174   -0.0750  -61.7080 O   0  0  0  0  0  0
   32.6128   -0.2980  -60.3115 C   0  0  0  0  0  0
   31.8757   -1.5725  -59.9993 C   0  0  0  0  0  0
   31.2483   -2.3052  -61.0204 C   0  0  0  0  0  0
   30.5210   -3.4593  -60.7129 C   0  0  0  0  0  0
   30.4118   -3.8865  -59.3865 C   0  0  0  0  0  0
   31.0298   -3.1600  -58.3652 C   0  0  0  0  0  0
   31.7574   -2.0054  -58.6684 C   0  0  0  0  0  0
   33.4013   -3.0667  -64.9518 C   0  0  0  0  0  0
  1  2  1  0  0  0
  2  3  1  0  0  0
  3  4  2  0  0  0
  3 26  1  0  0  0
  4  5  1  0  0  0
  5  6  1  0  0  0
  6  7  1  0  0  0
  6  9  1  0  0  0
  7  8  1  0  0  0
  9 10  1  0  0  0
  9 12  1  0  0  0
 10 11  1  0  0  0
 12 13  1  0  0  0
 12 16  1  0  0  0
 13 14  1  0  0  0
 14 15  1  0  0  0
 16 17  1  0  0  0
 17 18  1  0  0  0
 17  5  1  0  0  0
 18 19  1  0  0  0
 19 20  1  0  0  0
 20 21  2  0  0  0
 21 22  1  0  0  0
 22 23  2  0  0  0
 23 24  1  0  0  0
 24 25  2  0  0  0
 25 20  1  0  0  0
M  END
>  <CHROM.0>
-177.29766031,-56.62865709,-61.32835079

>  <CHROM.1>
-179.81100376,-136.16904581,52.59283691,171.67382765,-69.12297775,-64.99932630
166.74732540,-147.32053712,-3.74866224,33.48640948,0.05596774,-62.18548056
-3.06306357,0.96449097,1.05941739

>  <Energy>
42.59225578325462

>  <Genealogy>
CC(O)=N[C@@H]1[C@H](O)[C@H](O)[C@@H](CO)O[C@H]1OCc1ccccc1 (tautomer)
C/C(O)=N\[C@@H]1[C@H](O)[C@H](O)[C@@H](CO)O[C@H]1OCc1ccccc1 (cis-trans isomerization)
C/C(O)=N\[C@@H]1[C@H](O)[C@H](O)[C@@H](CO)O[C@H]1OCc1ccccc1 (3D coordinates assigned)
C/C(O)=N\[C@@H]1[C@H](O)[C@H](O)[C@@H](CO)O[C@H]1OCc1ccccc1 (nonaromatic ring conformer: 42.59225578325462 kcal/mol)

>  <Name>
ZINC000100656214

>  <RI>
1.63646e+07

>  <Rbt.Current_Directory>
/home/edward/Documentos/Virtual_Screening/rDock/N-terminal/3

>  <Rbt.Executable>
rbdock ($Id: //depot/dev/client3/rdock/2013.1/src/exe/rbdock.cxx#4 $)

>  <Rbt.Library>
libRbt.so (2013.1, Build901 2013/11/27)

>  <Rbt.Parameter_File>
/home/edward/anaconda3/envs/MD/share/rdock-2013.1-1/data/scripts/dock.prm

>  <Rbt.Receptor>
parameters.prm

>  <SCORE>
-21.9259

>  <SCORE.INTER>
-18.8453

>  <SCORE.INTER.CONST>
1

>  <SCORE.INTER.POLAR>
-3.45866

>  <SCORE.INTER.REPUL>
0.222455

>  <SCORE.INTER.ROT>
5

>  <SCORE.INTER.VDW>
-18.5982

>  <SCORE.INTER.norm>
-0.856606

>  <SCORE.INTRA>
-2.1331

>  <SCORE.INTRA.DIHEDRAL>
-7.66223

>  <SCORE.INTRA.DIHEDRAL.0>
14.7704

>  <SCORE.INTRA.POLAR>
-0.349604

>  <SCORE.INTRA.POLAR.0>
0

>  <SCORE.INTRA.REPUL>
0

>  <SCORE.INTRA.REPUL.0>
0

>  <SCORE.INTRA.VDW>
2.88667

>  <SCORE.INTRA.VDW.0>
-4.32386

>  <SCORE.INTRA.norm>
-0.0969589

>  <SCORE.RESTR>
0

>  <SCORE.RESTR.CAVITY>
0

>  <SCORE.RESTR.norm>
0

>  <SCORE.SYSTEM>
-0.947477

>  <SCORE.SYSTEM.CONST>
0

>  <SCORE.SYSTEM.DIHEDRAL>
0.100624

>  <SCORE.SYSTEM.REPUL>
0.0325769

>  <SCORE.SYSTEM.VDW>
-1.16067

>  <SCORE.SYSTEM.norm>
-0.0430672

>  <SCORE.heavy>
22

>  <SCORE.norm>
-0.996632

>  <SMILES>
C/C(O)=N\[C@@H]1[C@H](O)[C@H](O)[C@@H](CO)O[C@H]1OCc1ccccc1

>  <UniqueID>
363

$$$$
ZINC000100815672
  rDOCK(R)          3D
libRbt.so/2013.1/901 2013/11/27
 29 30  0  0  0  0  0  0  0  0999 V2000
   31.5571   -0.5761  -63.5027 O   0  0  0  0  0  0
   32.6095   -1.1841  -63.8398 C   0  0  0  0  0  0
   33.8774   -0.5158  -63.7962 N   0  0  0  0  0  0
   34.0195    0.8790  -63.3617 C   0  0  0  0  0  0
   35.2980    1.4978  -63.9573 C   0  0  0  0  0  0
   36.3993    0.6663  -63.6801 O   0  0  0  0  0  0
   35.5224    2.9014  -63.3653 C   0  0  0  0  0  0
   36.7743    3.3879  -63.7810 O   0  0  0  0  0  0
   35.4477    2.8385  -61.8186 C   0  0  0  0  0  0
   35.6257    4.2266  -61.1822 C   0  0  0  0  0  0
   35.6095    4.1507  -59.7813 O   0  0  0  0  0  0
   34.1973    2.3109  -61.4064 O   0  0  0  0  0  0
   34.0565    0.9625  -61.8213 C   0  0  0  0  0  0
   32.8247    0.4674  -61.3261 O   0  0  0  0  0  0
   32.8325    0.3956  -59.9137 C   0  0  0  0  0  0
   31.4306    0.2081  -59.3970 C   0  0  0  0  0  0
   30.9556    0.9753  -58.3204 C   0  0  0  0  0  0
   29.6675    0.7623  -57.8193 C   0  0  0  0  0  0
   28.8484   -0.2185  -58.3856 C   0  0  0  0  0  0
   29.3159   -0.9879  -59.4546 C   0  0  0  0  0  0
   30.6023   -0.7767  -59.9598 C   0  0  0  0  0  0
   32.5371   -2.6120  -64.2863 C   0  0  0  0  0  0
   33.8165   -3.1007  -64.4734 F   0  0  0  0  0  0
   31.8357   -2.7158  -65.4748 F   0  0  0  0  0  0
   31.8988   -3.3658  -63.3188 F   0  0  0  0  0  0
   34.7286   -1.0560  -64.0741 H   0  0  0  0  0  0
   36.2455   -0.1897  -64.1586 H   0  0  0  0  0  0
   36.7899    4.3613  -63.5864 H   0  0  0  0  0  0
   36.3905    3.5988  -59.5155 H   0  0  0  0  0  0
  1  2  2  0  0  0
  2  3  1  0  0  0
  2 22  1  0  0  0
  3  4  1  0  0  0
  3 26  1  0  0  0
  4  5  1  0  0  0
  5  6  1  0  0  0
  5  7  1  0  0  0
  6 27  1  0  0  0
  7  8  1  0  0  0
  7  9  1  0  0  0
  8 28  1  0  0  0
  9 10  1  0  0  0
  9 12  1  0  0  0
 10 11  1  0  0  0
 11 29  1  0  0  0
 12 13  1  0  0  0
 13 14  1  0  0  0
 13  4  1  0  0  0
 14 15  1  0  0  0
 15 16  1  0  0  0
 16 17  2  0  0  0
 17 18  1  0  0  0
 18 19  2  0  0  0
 19 20  1  0  0  0
 20 21  2  0  0  0
 21 16  1  0  0  0
 22 23  1  0  0  0
 22 24  1  0  0  0
 22 25  1  0  0  0
M  END
>  <CHROM.0>
-175.54966159,-178.67266532,-60.99096006

>  <CHROM.1>
-174.06378062,-156.05691391,64.53317647,165.71278733,-177.64796257,63.02407314
174.49070737,165.72812500,-133.93311659,33.19327853,0.35135655,-62.04100968
-2.91074824,0.67095448,0.83197215

>  <Energy>
41.029136328308674

>  <Genealogy>
O=C(N[C@@H]1[C@H](O)[C@H](O)[C@@H](CO)O[C@H]1OCc1ccccc1)C(F)(F)F (3D coordinates assigned)
O=C(N[C@@H]1[C@H](O)[C@H](O)[C@@H](CO)O[C@H]1OCc1ccccc1)C(F)(F)F (nonaromatic ring conformer: 41.029136328308674 kcal/mol)

>  <Name>
ZINC000100815672

>  <RI>
1.63646e+07

>  <Rbt.Current_Directory>
/home/edward/Documentos/Virtual_Screening/rDock/N-terminal/3

>  <Rbt.Executable>
rbdock ($Id: //depot/dev/client3/rdock/2013.1/src/exe/rbdock.cxx#4 $)

>  <Rbt.Library>
libRbt.so (2013.1, Build901 2013/11/27)

>  <Rbt.Parameter_File>
/home/edward/anaconda3/envs/MD/share/rdock-2013.1-1/data/scripts/dock.prm

>  <Rbt.Receptor>
parameters.prm

>  <SCORE>
-23.82

>  <SCORE.INTER>
-20.2127

>  <SCORE.INTER.CONST>
1

>  <SCORE.INTER.POLAR>
-4.31056

>  <SCORE.INTER.REPUL>
0

>  <SCORE.INTER.ROT>
6

>  <SCORE.INTER.VDW>
-16.9568

>  <SCORE.INTER.norm>
-0.808507

>  <SCORE.INTRA>
-3.20571

>  <SCORE.INTRA.DIHEDRAL>
-12.7921

>  <SCORE.INTRA.DIHEDRAL.0>
17.6869

>  <SCORE.INTRA.POLAR>
0

>  <SCORE.INTRA.POLAR.0>
0

>  <SCORE.INTRA.REPUL>
0

>  <SCORE.INTRA.REPUL.0>
0

>  <SCORE.INTRA.VDW>
3.19034

>  <SCORE.INTRA.VDW.0>
-4.11425

>  <SCORE.INTRA.norm>
-0.128228

>  <SCORE.RESTR>
0

>  <SCORE.RESTR.CAVITY>
0

>  <SCORE.RESTR.norm>
0

>  <SCORE.SYSTEM>
-0.401659

>  <SCORE.SYSTEM.CONST>
0

>  <SCORE.SYSTEM.DIHEDRAL>
0.11083

>  <SCORE.SYSTEM.REPUL>
0.0842448

>  <SCORE.SYSTEM.VDW>
-0.878298

>  <SCORE.SYSTEM.norm>
-0.0160663

>  <SCORE.heavy>
25

>  <SCORE.norm>
-0.952802

>  <SMILES>
O=C(N[C@@H]1[C@H](O)[C@H](O)[C@@H](CO)O[C@H]1OCc1ccccc1)C(F)(F)F

>  <UniqueID>
364

$$$$
ZINC000101073479
  rDOCK(R)          3D
libRbt.so/2013.1/901 2013/11/27
 25 26  0  0  0  0  0  0  0  0999 V2000
   35.2750   -4.8305  -66.3014 C   0  0  0  0  0  0
   34.5425   -4.3483  -65.1797 O   0  0  0  0  0  0
   34.9973   -3.3478  -64.3081 C   0  0  0  0  0  0
   36.2845   -3.4678  -63.7712 C   0  0  0  0  0  0
   36.7817   -2.4994  -62.8945 C   0  0  0  0  0  0
   35.9845   -1.4064  -62.5237 C   0  0  0  0  0  0
   36.5044   -0.3550  -61.6300 C   0  0  0  0  0  0
   35.9994    0.8430  -61.5421 N   0  0  0  0  0  0
   34.8886    1.4133  -62.3185 C   0  0  0  0  0  0
   35.2367    2.8388  -62.8034 C   0  0  0  0  0  0
   36.3984    2.8441  -63.5923 O   0  0  0  0  0  0
   35.3981    3.8018  -61.6077 C   0  0  0  0  0  0
   36.7010    3.6982  -61.0887 O   0  0  0  0  0  0
   34.3603    3.4701  -60.4956 C   0  0  0  0  0  0
   33.8473    4.7388  -59.8042 C   0  0  0  0  0  0
   34.9170    5.4673  -59.2682 O   0  0  0  0  0  0
   33.2514    2.7840  -61.0491 O   0  0  0  0  0  0
   33.6134    1.4599  -61.4229 C   0  0  0  0  0  0
   32.5429    0.8883  -62.1265 O   0  0  0  0  0  0
   34.7092   -1.2631  -63.0862 C   0  0  0  0  0  0
   34.2108   -2.2319  -63.9624 C   0  0  0  0  0  0
   36.5158    3.7731  -63.9228 H   0  0  0  0  0  0
   36.7504    4.3041  -60.3045 H   0  0  0  0  0  0
   34.5159    6.2603  -58.8264 H   0  0  0  0  0  0
   32.3979    1.4532  -62.9301 H   0  0  0  0  0  0
  1  2  1  0  0  0
  2  3  1  0  0  0
  3  4  2  0  0  0
  4  5  1  0  0  0
  5  6  2  0  0  0
  6  7  1  0  0  0
  6 20  1  0  0  0
  7  8  2  0  0  0
  8  9  1  0  0  0
  9 10  1  0  0  0
 10 11  1  0  0  0
 10 12  1  0  0  0
 11 22  1  0  0  0
 12 13  1  0  0  0
 12 14  1  0  0  0
 13 23  1  0  0  0
 14 15  1  0  0  0
 14 17  1  0  0  0
 15 16  1  0  0  0
 16 24  1  0  0  0
 17 18  1  0  0  0
 18 19  1  0  0  0
 18  9  1  0  0  0
 19 25  1  0  0  0
 20 21  2  0  0  0
 21  3  1  0  0  0
M  END
>  <CHROM.0>
-176.92338351,-59.56269552,-179.17001867

>  <CHROM.1>
-49.86831427,159.68462766,-135.05163834,175.61638980,-177.83980370,-57.00651557
-179.08303425,-62.33099183,35.04528716,0.62906116,-62.39113345,1.51385923
-0.09510020,-2.67206129

>  <Energy>
54.42043189969039

>  <Genealogy>
COc1ccc(/C=N\[C@@H]2[C@H](O)[C@H](O)[C@@H](CO)O[C@H]2O)cc1 (3D coordinates assigned)
COc1ccc(/C=N\[C@@H]2[C@H](O)[C@H](O)[C@@H](CO)O[C@H]2O)cc1 (nonaromatic ring conformer: 54.42043189969039 kcal/mol)

>  <Name>
ZINC000101073479

>  <RI>
1.63646e+07

>  <Rbt.Current_Directory>
/home/edward/Documentos/Virtual_Screening/rDock/N-terminal/3

>  <Rbt.Executable>
rbdock ($Id: //depot/dev/client3/rdock/2013.1/src/exe/rbdock.cxx#4 $)

>  <Rbt.Library>
libRbt.so (2013.1, Build901 2013/11/27)

>  <Rbt.Parameter_File>
/home/edward/anaconda3/envs/MD/share/rdock-2013.1-1/data/scripts/dock.prm

>  <Rbt.Receptor>
parameters.prm

>  <SCORE>
-27.3842

>  <SCORE.INTER>
-22.6135

>  <SCORE.INTER.CONST>
1

>  <SCORE.INTER.POLAR>
-3.52357

>  <SCORE.INTER.REPUL>
0

>  <SCORE.INTER.ROT>
4

>  <SCORE.INTER.VDW>
-20.0334

>  <SCORE.INTER.norm>
-1.07683

>  <SCORE.INTRA>
-3.73026

>  <SCORE.INTRA.DIHEDRAL>
-10.3948

>  <SCORE.INTRA.DIHEDRAL.0>
15.0778

>  <SCORE.INTRA.POLAR>
-0.143598

>  <SCORE.INTRA.POLAR.0>
0

>  <SCORE.INTRA.REPUL>
0

>  <SCORE.INTRA.REPUL.0>
0

>  <SCORE.INTRA.VDW>
1.9554

>  <SCORE.INTRA.VDW.0>
-2.04165

>  <SCORE.INTRA.norm>
-0.177631

>  <SCORE.RESTR>
0

>  <SCORE.RESTR.CAVITY>
0

>  <SCORE.RESTR.norm>
0

>  <SCORE.SYSTEM>
-1.04048

>  <SCORE.SYSTEM.CONST>
0

>  <SCORE.SYSTEM.DIHEDRAL>
0.0509523

>  <SCORE.SYSTEM.REPUL>
0.0315402

>  <SCORE.SYSTEM.VDW>
-1.22366

>  <SCORE.SYSTEM.norm>
-0.0495467

>  <SCORE.heavy>
21

>  <SCORE.norm>
-1.30401

>  <SMILES>
COc1ccc(/C=N\[C@@H]2[C@H](O)[C@H](O)[C@@H](CO)O[C@H]2O)cc1

>  <UniqueID>
368

$$$$
ZINC000101135603
  rDOCK(R)          3D
libRbt.so/2013.1/901 2013/11/27
 32 34  0  0  0  0  0  0  0  0999 V2000
   30.8424    5.5103  -57.6284 C   0  0  0  0  0  0
   31.7546    4.8967  -58.6395 C   0  0  0  0  0  0
   31.6753    5.2533  -59.8460 O   0  0  0  0  0  0
   32.6771    3.8727  -58.2431 N   0  0  0  0  0  0
   33.5209    3.1585  -59.2086 C   0  0  0  0  0  0
   34.7475    4.0154  -59.5842 C   0  0  0  0  0  0
   34.3096    5.2942  -60.0242 O   0  0  0  0  0  0
   35.0399    6.3274  -59.3992 C   0  0  0  0  0  0
   34.5563    7.6445  -59.9289 C   0  0  0  0  0  0
   33.1807    7.9179  -60.0077 C   0  0  0  0  0  0
   32.7362    9.1638  -60.4619 C   0  0  0  0  0  0
   33.6603   10.1470  -60.8271 C   0  0  0  0  0  0
   35.0307    9.8883  -60.7330 C   0  0  0  0  0  0
   35.4794    8.6439  -60.2793 C   0  0  0  0  0  0
   35.5343    3.3291  -60.7183 C   0  0  0  0  0  0
   36.5389    4.1885  -61.1937 O   0  0  0  0  0  0
   34.5804    2.9438  -61.8726 C   0  0  0  0  0  0
   35.3390    2.1891  -62.9744 C   0  0  0  0  0  0
   36.4185    2.9535  -63.4388 O   0  0  0  0  0  0
   33.5436    2.1066  -61.3899 O   0  0  0  0  0  0
   32.7147    2.8058  -60.4766 C   0  0  0  0  0  0
   31.6431    1.9557  -60.1003 O   0  0  0  0  0  0
   30.8683    1.5670  -61.2204 C   0  0  0  0  0  0
   31.4834    0.3948  -61.9421 C   0  0  0  0  0  0
   32.0951   -0.6444  -61.2211 C   0  0  0  0  0  0
   32.6355   -1.7443  -61.8943 C   0  0  0  0  0  0
   32.5611   -1.8183  -63.2880 C   0  0  0  0  0  0
   31.9465   -0.7918  -64.0108 C   0  0  0  0  0  0
   31.4075    0.3113  -63.3416 C   0  0  0  0  0  0
   32.7358    3.6258  -57.2284 H   0  0  0  0  0  0
   37.1999    4.2887  -60.4596 H   0  0  0  0  0  0
   36.0470    3.8315  -63.7163 H   0  0  0  0  0  0
  1  2  1  0  0  0
  2  3  2  0  0  0
  2  4  1  0  0  0
  4  5  1  0  0  0
  4 30  1  0  0  0
  5  6  1  0  0  0
  6  7  1  0  0  0
  6 15  1  0  0  0
  7  8  1  0  0  0
  8  9  1  0  0  0
  9 10  2  0  0  0
 10 11  1  0  0  0
 11 12  2  0  0  0
 12 13  1  0  0  0
 13 14  2  0  0  0
 14  9  1  0  0  0
 15 16  1  0  0  0
 15 17  1  0  0  0
 16 31  1  0  0  0
 17 18  1  0  0  0
 17 20  1  0  0  0
 18 19  1  0  0  0
 19 32  1  0  0  0
 20 21  1  0  0  0
 21 22  1  0  0  0
 21  5  1  0  0  0
 22 23  1  0  0  0
 23 24  1  0  0  0
 24 25  2  0  0  0
 25 26  1  0  0  0
 26 27  2  0  0  0
 27 28  1  0  0  0
 28 29  2  0  0  0
 29 24  1  0  0  0
M  END
>  <CHROM.0>
-161.05968462,-60.33353452,63.50681584

>  <CHROM.1>
79.94743350,132.17801554,178.59322797,47.58520809,67.30410730,-56.21858315
-54.65793885,-178.90433080,83.03216938,38.38751434,33.43368159,3.83621192
-60.81438258,1.35423435,0.55182987,0.39250864

>  <Energy>
55.338382986535436

>  <Genealogy>
CC(=O)N[C@@H]1[C@H](OCc2ccccc2)[C@H](O)[C@@H](CO)O[C@H]1OCc1ccccc1 (3D coordinates assigned)
CC(=O)N[C@@H]1[C@H](OCc2ccccc2)[C@H](O)[C@@H](CO)O[C@H]1OCc1ccccc1 (nonaromatic ring conformer: 55.338382986535436 kcal/mol)

>  <Name>
ZINC000101135603

>  <RI>
1.63646e+07

>  <Rbt.Current_Directory>
/home/edward/Documentos/Virtual_Screening/rDock/N-terminal/3

>  <Rbt.Executable>
rbdock ($Id: //depot/dev/client3/rdock/2013.1/src/exe/rbdock.cxx#4 $)

>  <Rbt.Library>
libRbt.so (2013.1, Build901 2013/11/27)

>  <Rbt.Parameter_File>
/home/edward/anaconda3/envs/MD/share/rdock-2013.1-1/data/scripts/dock.prm

>  <Rbt.Receptor>
parameters.prm

>  <SCORE>
-17.2489

>  <SCORE.INTER>
-17.3637

>  <SCORE.INTER.CONST>
1

>  <SCORE.INTER.POLAR>
-3.6065

>  <SCORE.INTER.REPUL>
0.00440779

>  <SCORE.INTER.ROT>
8

>  <SCORE.INTER.VDW>
-18.5237

>  <SCORE.INTER.norm>
-0.598749

>  <SCORE.INTRA>
0.603517

>  <SCORE.INTRA.DIHEDRAL>
-4.0936

>  <SCORE.INTRA.DIHEDRAL.0>
16.1261

>  <SCORE.INTRA.POLAR>
0

>  <SCORE.INTRA.POLAR.0>
0

>  <SCORE.INTRA.REPUL>
0

>  <SCORE.INTRA.REPUL.0>
0

>  <SCORE.INTRA.VDW>
2.65032

>  <SCORE.INTRA.VDW.0>
-5.5496

>  <SCORE.INTRA.norm>
0.0208109

>  <SCORE.RESTR>
0

>  <SCORE.RESTR.CAVITY>
0

>  <SCORE.RESTR.norm>
0

>  <SCORE.SYSTEM>
-0.488681

>  <SCORE.SYSTEM.CONST>
0

>  <SCORE.SYSTEM.DIHEDRAL>
1.69094

>  <SCORE.SYSTEM.VDW>
-1.33415

>  <SCORE.SYSTEM.norm>
-0.0168511

>  <SCORE.heavy>
29

>  <SCORE.norm>
-0.594789

>  <SMILES>
CC(=O)N[C@@H]1[C@H](OCc2ccccc2)[C@H](O)[C@@H](CO)O[C@H]1OCc1ccccc1

>  <UniqueID>
371

$$$$
ZINC000101136391
  rDOCK(R)          3D
libRbt.so/2013.1/901 2013/11/27
 24 25  0  0  0  0  0  0  0  0999 V2000
   36.1173   -0.0624  -63.0108 N   0  0  0  0  0  0
   34.6965    0.3025  -63.0542 C   0  0  0  0  0  0
   34.4780    1.5306  -63.9663 C   0  0  0  0  0  0
   34.9620    1.2950  -65.2644 O   0  0  0  0  0  0
   35.1345    2.7944  -63.3617 C   0  0  0  0  0  0
   36.4861    2.8833  -63.7412 O   0  0  0  0  0  0
   35.0484    2.7643  -61.8133 C   0  0  0  0  0  0
   34.9215    4.1829  -61.2423 C   0  0  0  0  0  0
   34.8784    4.1444  -59.8411 O   0  0  0  0  0  0
   33.9312    1.9955  -61.4042 O   0  0  0  0  0  0
   34.1674    0.6089  -61.6137 C   0  0  0  0  0  0
   32.9276   -0.0640  -61.4432 O   0  0  0  0  0  0
   33.0853   -1.4697  -61.3955 C   0  0  0  0  0  0
   31.7567   -2.1573  -61.2135 C   0  0  0  0  0  0
   31.4060   -2.6871  -59.9611 C   0  0  0  0  0  0
   30.1610   -3.2966  -59.7782 C   0  0  0  0  0  0
   29.2592   -3.3807  -60.8426 C   0  0  0  0  0  0
   29.6013   -2.8556  -62.0919 C   0  0  0  0  0  0
   30.8453   -2.2451  -62.2790 C   0  0  0  0  0  0
   36.6889    0.7932  -63.1969 H   0  0  0  0  0  0
   36.3151   -0.7065  -63.8108 H   0  0  0  0  0  0
   34.9423    2.1661  -65.7405 H   0  0  0  0  0  0
   36.7484    3.8381  -63.6666 H   0  0  0  0  0  0
   34.0961    3.5853  -59.5942 H   0  0  0  0  0  0
  1  2  1  0  0  0
  1 20  1  0  0  0
  1 21  1  0  0  0
  2  3  1  0  0  0
  3  4  1  0  0  0
  3  5  1  0  0  0
  4 22  1  0  0  0
  5  6  1  0  0  0
  5  7  1  0  0  0
  6 23  1  0  0  0
  7  8  1  0  0  0
  7 10  1  0  0  0
  8  9  1  0  0  0
  9 24  1  0  0  0
 10 11  1  0  0  0
 11 12  1  0  0  0
 11  2  1  0  0  0
 12 13  1  0  0  0
 13 14  1  0  0  0
 14 15  2  0  0  0
 15 16  1  0  0  0
 16 17  2  0  0  0
 17 18  1  0  0  0
 18 19  2  0  0  0
 19 14  1  0  0  0
M  END
>  <CHROM.0>
-177.31625729,-176.19464442,178.44085321

>  <CHROM.1>
26.87818189,-169.88680543,156.98198386,-178.52097158,-58.89819106,68.73333551
179.96656875,-104.13639865,33.49764411,0.37480517,-62.00983191,-0.27614624
-0.83794837,-2.22877804

>  <Energy>
48.37187139696437

>  <Genealogy>
N[C@@H]1[C@H](O)[C@H](O)[C@@H](CO)O[C@H]1OCc1ccccc1 (3D coordinates assigned)
N[C@@H]1[C@H](O)[C@H](O)[C@@H](CO)O[C@H]1OCc1ccccc1 (nonaromatic ring conformer: 48.37187139696437 kcal/mol)

>  <Name>
ZINC000101136391

>  <RI>
1.63646e+07

>  <Rbt.Current_Directory>
/home/edward/Documentos/Virtual_Screening/rDock/N-terminal/3

>  <Rbt.Executable>
rbdock ($Id: //depot/dev/client3/rdock/2013.1/src/exe/rbdock.cxx#4 $)

>  <Rbt.Library>
libRbt.so (2013.1, Build901 2013/11/27)

>  <Rbt.Parameter_File>
/home/edward/anaconda3/envs/MD/share/rdock-2013.1-1/data/scripts/dock.prm

>  <Rbt.Receptor>
parameters.prm

>  <SCORE>
-22.605

>  <SCORE.INTER>
-17.5116

>  <SCORE.INTER.CONST>
1

>  <SCORE.INTER.POLAR>
-4.2038

>  <SCORE.INTER.REPUL>
0

>  <SCORE.INTER.ROT>
5

>  <SCORE.INTER.VDW>
-13.6187

>  <SCORE.INTER.norm>
-0.921664

>  <SCORE.INTRA>
-4.6408

>  <SCORE.INTRA.DIHEDRAL>
-8.92582

>  <SCORE.INTRA.DIHEDRAL.0>
14.1242

>  <SCORE.INTRA.POLAR>
-0.800762

>  <SCORE.INTRA.POLAR.0>
0

>  <SCORE.INTRA.REPUL>
0

>  <SCORE.INTRA.REPUL.0>
0

>  <SCORE.INTRA.VDW>
2.54469

>  <SCORE.INTRA.VDW.0>
-2.66605

>  <SCORE.INTRA.norm>
-0.244253

>  <SCORE.RESTR>
0

>  <SCORE.RESTR.CAVITY>
0

>  <SCORE.RESTR.norm>
0

>  <SCORE.SYSTEM>
-0.452553

>  <SCORE.SYSTEM.CONST>
0

>  <SCORE.SYSTEM.DIHEDRAL>
0.118697

>  <SCORE.SYSTEM.REPUL>
0.0843988

>  <SCORE.SYSTEM.VDW>
-0.933895

>  <SCORE.SYSTEM.norm>
-0.0238186

>  <SCORE.heavy>
19

>  <SCORE.norm>
-1.18974

>  <SMILES>
N[C@@H]1[C@H](O)[C@H](O)[C@@H](CO)O[C@H]1OCc1ccccc1

>  <UniqueID>
375

$$$$
ZINC000101178654
  rDOCK(R)          3D
libRbt.so/2013.1/901 2013/11/27
 22 22  0  0  0  0  0  0  0  0999 V2000
   31.2686   -1.2369  -65.2916 H   0  0  0  0  0  0
   31.9782   -0.7593  -64.7493 O   0  0  0  0  0  0
   33.0527   -1.4543  -64.1948 C   0  0  0  0  0  0
   33.9459   -0.8353  -63.4832 N   0  0  0  0  0  0
   33.9226    0.5990  -63.1885 C   0  0  0  0  0  0
   35.1355    1.3103  -63.8350 C   0  0  0  0  0  0
   36.3244    0.5734  -63.6647 O   0  0  0  0  0  0
   36.2074   -0.3126  -64.0917 H   0  0  0  0  0  0
   35.2670    2.7566  -63.3060 C   0  0  0  0  0  0
   36.4686    3.3438  -63.7439 O   0  0  0  0  0  0
   36.4472    4.3044  -63.4946 H   0  0  0  0  0  0
   35.1223    2.8070  -61.7628 C   0  0  0  0  0  0
   35.1298    4.2604  -61.2670 C   0  0  0  0  0  0
   35.1074    4.2984  -59.8651 O   0  0  0  0  0  0
   35.1367    5.2558  -59.6036 H   0  0  0  0  0  0
   33.8995    2.2046  -61.3718 O   0  0  0  0  0  0
   33.8999    0.8169  -61.6587 C   0  0  0  0  0  0
   32.6917    0.2769  -61.1436 O   0  0  0  0  0  0
   32.6387    0.3142  -59.7268 C   0  0  0  0  0  0
   32.0286    1.6412  -59.2634 C   0  0  0  0  0  0
   31.7824   -0.8559  -59.2454 C   0  0  0  0  0  0
   33.1979   -2.9211  -64.4411 C   0  0  0  0  0  0
  1  2  1  0  0  0
  2  3  1  0  0  0
  3  4  2  0  0  0
  3 22  1  0  0  0
  4  5  1  0  0  0
  5  6  1  0  0  0
  6  7  1  0  0  0
  6  9  1  0  0  0
  7  8  1  0  0  0
  9 10  1  0  0  0
  9 12  1  0  0  0
 10 11  1  0  0  0
 12 13  1  0  0  0
 12 16  1  0  0  0
 13 14  1  0  0  0
 14 15  1  0  0  0
 16 17  1  0  0  0
 17 18  1  0  0  0
 17  5  1  0  0  0
 18 19  1  0  0  0
 19 20  1  0  0  0
 19 21  1  0  0  0
M  END
>  <CHROM.0>
-174.54454025,-175.95810336,61.14944440

>  <CHROM.1>
-178.90529787,-115.24972927,59.99555782,171.84843905,-175.25614239,178.59368278
174.26557124,89.24547076,33.98908770,1.05424294,-62.21028245,-2.14015594
0.82272830,0.88670942

>  <Energy>
34.81778303564077

>  <Genealogy>
CC(O)=N[C@@H]1[C@H](O)[C@H](O)[C@@H](CO)O[C@H]1OC(C)C (tautomer)
C/C(O)=N\[C@@H]1[C@H](O)[C@H](O)[C@@H](CO)O[C@H]1OC(C)C (cis-trans isomerization)
C/C(O)=N\[C@@H]1[C@H](O)[C@H](O)[C@@H](CO)O[C@H]1OC(C)C (3D coordinates assigned)
C/C(O)=N\[C@@H]1[C@H](O)[C@H](O)[C@@H](CO)O[C@H]1OC(C)C (nonaromatic ring conformer: 34.81778303564077 kcal/mol)

>  <Name>
ZINC000101178654

>  <RI>
1.63646e+07

>  <Rbt.Current_Directory>
/home/edward/Documentos/Virtual_Screening/rDock/N-terminal/3

>  <Rbt.Executable>
rbdock ($Id: //depot/dev/client3/rdock/2013.1/src/exe/rbdock.cxx#4 $)

>  <Rbt.Library>
libRbt.so (2013.1, Build901 2013/11/27)

>  <Rbt.Parameter_File>
/home/edward/anaconda3/envs/MD/share/rdock-2013.1-1/data/scripts/dock.prm

>  <Rbt.Receptor>
parameters.prm

>  <SCORE>
-21.9731

>  <SCORE.INTER>
-17.2731

>  <SCORE.INTER.CONST>
1

>  <SCORE.INTER.POLAR>
-3.43459

>  <SCORE.INTER.REPUL>
0.00472494

>  <SCORE.INTER.ROT>
4

>  <SCORE.INTER.VDW>
-15.0191

>  <SCORE.INTER.norm>
-0.959615

>  <SCORE.INTRA>
-4.18092

>  <SCORE.INTRA.DIHEDRAL>
-10.3403

>  <SCORE.INTRA.DIHEDRAL.0>
14.6067

>  <SCORE.INTRA.POLAR>
-0.010641

>  <SCORE.INTRA.POLAR.0>
0

>  <SCORE.INTRA.REPUL>
0

>  <SCORE.INTRA.REPUL.0>
0

>  <SCORE.INTRA.VDW>
1.0254

>  <SCORE.INTRA.VDW.0>
-1.98909

>  <SCORE.INTRA.norm>
-0.232273

>  <SCORE.RESTR>
0

>  <SCORE.RESTR.CAVITY>
0

>  <SCORE.RESTR.norm>
0

>  <SCORE.SYSTEM>
-0.519112

>  <SCORE.SYSTEM.CONST>
0

>  <SCORE.SYSTEM.DIHEDRAL>
0.232711

>  <SCORE.SYSTEM.REPUL>
0.0762059

>  <SCORE.SYSTEM.VDW>
-1.0165

>  <SCORE.SYSTEM.norm>
-0.0288396

>  <SCORE.heavy>
18

>  <SCORE.norm>
-1.22073

>  <SMILES>
C/C(O)=N\[C@@H]1[C@H](O)[C@H](O)[C@@H](CO)O[C@H]1OC(C)C

>  <UniqueID>
377

$$$$
ZINC000101361998
  rDOCK(R)          3D
libRbt.so/2013.1/901 2013/11/27
 33 35  0  0  0  0  0  0  0  0999 V2000
   31.5702   -1.0596  -63.9601 O   0  0  0  0  0  0
   32.7022   -1.6082  -64.0618 C   0  0  0  0  0  0
   33.8994   -0.8268  -63.9661 N   0  0  0  0  0  0
   33.9077    0.5666  -63.5064 C   0  0  0  0  0  0
   35.1707    1.2952  -64.0018 C   0  0  0  0  0  0
   36.3203    0.5651  -63.6433 O   0  0  0  0  0  0
   35.2243    2.7099  -63.3829 C   0  0  0  0  0  0
   36.4516    3.3255  -63.6843 O   0  0  0  0  0  0
   35.0378    2.6176  -61.8478 C   0  0  0  0  0  0
   35.0250    4.0130  -61.2129 C   0  0  0  0  0  0
   33.8187    4.6550  -61.5195 O   0  0  0  0  0  0
   33.8112    1.9733  -61.5401 O   0  0  0  0  0  0
   33.8341    0.6189  -61.9691 C   0  0  0  0  0  0
   32.6419   -0.0256  -61.5631 O   0  0  0  0  0  0
   32.6333   -0.2086  -60.1614 C   0  0  0  0  0  0
   31.4822   -1.0999  -59.7990 C   0  0  0  0  0  0
   30.1604   -0.6687  -60.0157 C   0  0  0  0  0  0
   29.0876   -1.4946  -59.6679 C   0  0  0  0  0  0
   29.3228   -2.7413  -59.0818 C   0  0  0  0  0  0
   30.6339   -3.1686  -58.8481 C   0  0  0  0  0  0
   31.7121   -2.3506  -59.1987 C   0  0  0  0  0  0
   32.8051   -2.9855  -64.2838 O   0  0  0  0  0  0
   31.6794   -3.8304  -64.5103 C   0  0  0  0  0  0
   32.1227   -5.2420  -64.7863 C   0  0  0  0  0  0
   32.9773   -5.5108  -65.8670 C   0  0  0  0  0  0
   33.3910   -6.8212  -66.1243 C   0  0  0  0  0  0
   32.9735   -7.8671  -65.2922 C   0  0  0  0  0  0
   32.1334   -7.6061  -64.2071 C   0  0  0  0  0  0
   31.7071   -6.2989  -63.9537 C   0  0  0  0  0  0
   34.8132   -1.3220  -64.0908 H   0  0  0  0  0  0
   36.2687   -0.3072  -64.1138 H   0  0  0  0  0  0
   36.3491    4.2895  -63.4661 H   0  0  0  0  0  0
   34.0285    5.6256  -61.5665 H   0  0  0  0  0  0
  1  2  2  0  0  0
  2  3  1  0  0  0
  2 22  1  0  0  0
  3  4  1  0  0  0
  3 30  1  0  0  0
  4  5  1  0  0  0
  5  6  1  0  0  0
  5  7  1  0  0  0
  6 31  1  0  0  0
  7  8  1  0  0  0
  7  9  1  0  0  0
  8 32  1  0  0  0
  9 10  1  0  0  0
  9 12  1  0  0  0
 10 11  1  0  0  0
 11 33  1  0  0  0
 12 13  1  0  0  0
 13 14  1  0  0  0
 13  4  1  0  0  0
 14 15  1  0  0  0
 15 16  1  0  0  0
 16 17  2  0  0  0
 17 18  1  0  0  0
 18 19  2  0  0  0
 19 20  1  0  0  0
 20 21  2  0  0  0
 21 16  1  0  0  0
 22 23  1  0  0  0
 23 24  1  0  0  0
 24 25  2  0  0  0
 25 26  1  0  0  0
 26 27  2  0  0  0
 27 28  1  0  0  0
 28 29  2  0  0  0
 29 24  1  0  0  0
M  END
>  <CHROM.0>
68.37833772,-58.74040730,-61.22433372

>  <CHROM.1>
4.99116869,-158.34047203,63.12208811,166.31545396,72.84002037,-148.81598420
170.02890996,-170.16874665,-64.89010369,177.03099340,-58.68659247,32.99168047
-1.17481346,-62.62654011,-1.99433381,0.82918307,0.55735646

>  <Energy>
50.332878173747126

>  <Genealogy>
O=C(N[C@@H]1[C@H](O)[C@H](O)[C@@H](CO)O[C@H]1OCc1ccccc1)OCc1ccccc1 (3D coordinates assigned)
O=C(N[C@@H]1[C@H](O)[C@H](O)[C@@H](CO)O[C@H]1OCc1ccccc1)OCc1ccccc1 (nonaromatic ring conformer: 50.332878173747126 kcal/mol)

>  <Name>
ZINC000101361998

>  <RI>
1.63646e+07

>  <Rbt.Current_Directory>
/home/edward/Documentos/Virtual_Screening/rDock/N-terminal/3

>  <Rbt.Executable>
rbdock ($Id: //depot/dev/client3/rdock/2013.1/src/exe/rbdock.cxx#4 $)

>  <Rbt.Library>
libRbt.so (2013.1, Build901 2013/11/27)

>  <Rbt.Parameter_File>
/home/edward/anaconda3/envs/MD/share/rdock-2013.1-1/data/scripts/dock.prm

>  <Rbt.Receptor>
parameters.prm

>  <SCORE>
-20.8019

>  <SCORE.INTER>
-24.5213

>  <SCORE.INTER.CONST>
1

>  <SCORE.INTER.POLAR>
-4.89367

>  <SCORE.INTER.REPUL>
0.0341226

>  <SCORE.INTER.ROT>
8

>  <SCORE.INTER.VDW>
-21.4535

>  <SCORE.INTER.norm>
-0.845564

>  <SCORE.INTRA>
3.57087

>  <SCORE.INTRA.DIHEDRAL>
1.30678

>  <SCORE.INTRA.DIHEDRAL.0>
7.56586

>  <SCORE.INTRA.POLAR>
0

>  <SCORE.INTRA.POLAR.0>
0

>  <SCORE.INTRA.REPUL>
0

>  <SCORE.INTRA.REPUL.0>
0

>  <SCORE.INTRA.VDW>
2.91748

>  <SCORE.INTRA.VDW.0>
-4.10121

>  <SCORE.INTRA.norm>
0.123134

>  <SCORE.RESTR>
0

>  <SCORE.RESTR.CAVITY>
0

>  <SCORE.RESTR.norm>
0

>  <SCORE.SYSTEM>
0.148596

>  <SCORE.SYSTEM.CONST>
0

>  <SCORE.SYSTEM.DIHEDRAL>
0.356107

>  <SCORE.SYSTEM.POLAR>
-0.0323626

>  <SCORE.SYSTEM.VDW>
0.0805756

>  <SCORE.SYSTEM.norm>
0.00512402

>  <SCORE.heavy>
29

>  <SCORE.norm>
-0.717306

>  <SMILES>
O=C(N[C@@H]1[C@H](O)[C@H](O)[C@@H](CO)O[C@H]1OCc1ccccc1)OCc1ccccc1

>  <UniqueID>
380

$$$$
ZINC000102205030
  rDOCK(R)          3D
libRbt.so/2013.1/901 2013/11/27
 24 24  0  0  0  0  0  0  0  0999 V2000
   31.7952   -0.2798  -64.6709 H   0  0  0  0  0  0
   32.1009   -1.2396  -64.7493 O   0  0  0  0  0  0
   33.2889   -1.7276  -64.1973 C   0  0  0  0  0  0
   34.1257   -0.9695  -63.5468 N   0  0  0  0  0  0
   33.9747    0.4538  -63.2278 C   0  0  0  0  0  0
   35.1448    1.2434  -63.8561 C   0  0  0  0  0  0
   36.3786    0.5829  -63.6868 O   0  0  0  0  0  0
   36.3041   -0.3259  -64.0726 H   0  0  0  0  0  0
   35.1930    2.6934  -63.3220 C   0  0  0  0  0  0
   36.4014    3.3057  -63.6947 O   0  0  0  0  0  0
   36.3188    4.2668  -63.4598 H   0  0  0  0  0  0
   35.0389    2.7198  -61.7832 C   0  0  0  0  0  0
   34.9638    4.1665  -61.2723 C   0  0  0  0  0  0
   33.6530    4.6544  -61.3782 O   0  0  0  0  0  0
   33.0996    4.1309  -60.7415 H   0  0  0  0  0  0
   33.8518    2.0474  -61.4002 O   0  0  0  0  0  0
   33.9370    0.6641  -61.6969 C   0  0  0  0  0  0
   32.7847    0.0257  -61.1800 O   0  0  0  0  0  0
   32.6930    0.1824  -59.7757 C   0  0  0  0  0  0
   31.6217   -0.7463  -59.2046 C   0  0  0  0  0  0
   31.9875   -2.1349  -59.4445 N   0  0  0  0  0  0
   31.4340   -2.7850  -60.3312 N   0  3  0  0  0  0
   30.8806   -3.4355  -61.2162 N   0  5  0  0  0  0
   33.6195   -3.1707  -64.3775 C   0  0  0  0  0  0
  1  2  1  0  0  0
  2  3  1  0  0  0
  3  4  2  0  0  0
  3 24  1  0  0  0
  4  5  1  0  0  0
  5  6  1  0  0  0
  6  7  1  0  0  0
  6  9  1  0  0  0
  7  8  1  0  0  0
  9 10  1  0  0  0
  9 12  1  0  0  0
 10 11  1  0  0  0
 12 13  1  0  0  0
 12 16  1  0  0  0
 13 14  1  0  0  0
 14 15  1  0  0  0
 16 17  1  0  0  0
 17 18  1  0  0  0
 17  5  1  0  0  0
 18 19  1  0  0  0
 19 20  1  0  0  0
 20 21  1  0  0  0
 21 22  2  0  0  0
 22 23  2  0  0  0
M  END
>  <CHROM.0>
-73.24088605,-60.07034650,-61.66260803

>  <CHROM.1>
-1.30078104,-120.47854202,56.40923701,170.96320875,83.55112009,66.57766471
179.97715207,-168.16077776,62.66315310,-103.78908924,33.67123466,0.38097764
-62.18615668,-2.57977016,0.93416748,0.70310701

>  <Energy>
33.84595458334942

>  <Genealogy>
CC(O)=N[C@@H]1[C@H](O)[C@H](O)[C@@H](CO)O[C@H]1OCCN=[N+]=[N-] (tautomer)
C/C(O)=N\[C@@H]1[C@H](O)[C@H](O)[C@@H](CO)O[C@H]1OCCN=[N+]=[N-] (cis-trans isomerization)
C/C(O)=N\[C@@H]1[C@H](O)[C@H](O)[C@@H](CO)O[C@H]1OCCN=[N+]=[N-] (3D coordinates assigned)
C/C(O)=N\[C@@H]1[C@H](O)[C@H](O)[C@@H](CO)O[C@H]1OCCN=[N+]=[N-] (nonaromatic ring conformer: 33.84595458334942 kcal/mol)

>  <Name>
ZINC000102205030

>  <RI>
1.63646e+07

>  <Rbt.Current_Directory>
/home/edward/Documentos/Virtual_Screening/rDock/N-terminal/3

>  <Rbt.Executable>
rbdock ($Id: //depot/dev/client3/rdock/2013.1/src/exe/rbdock.cxx#4 $)

>  <Rbt.Library>
libRbt.so (2013.1, Build901 2013/11/27)

>  <Rbt.Parameter_File>
/home/edward/anaconda3/envs/MD/share/rdock-2013.1-1/data/scripts/dock.prm

>  <Rbt.Receptor>
parameters.prm

>  <SCORE>
-20.6594

>  <SCORE.INTER>
-17.1267

>  <SCORE.INTER.CONST>
1

>  <SCORE.INTER.POLAR>
-3.97834

>  <SCORE.INTER.REPUL>
0.0393739

>  <SCORE.INTER.ROT>
6

>  <SCORE.INTER.VDW>
-15.1972

>  <SCORE.INTER.norm>
-0.856333

>  <SCORE.INTRA>
-3.5134

>  <SCORE.INTRA.DIHEDRAL>
-10.1922

>  <SCORE.INTRA.DIHEDRAL.0>
13.8679

>  <SCORE.INTRA.POLAR>
-0.0454304

>  <SCORE.INTRA.POLAR.0>
0

>  <SCORE.INTRA.REPUL>
0

>  <SCORE.INTRA.REPUL.0>
0

>  <SCORE.INTRA.VDW>
1.73716

>  <SCORE.INTRA.VDW.0>
-3.36542

>  <SCORE.INTRA.norm>
-0.17567

>  <SCORE.RESTR>
0

>  <SCORE.RESTR.CAVITY>
0

>  <SCORE.RESTR.norm>
0

>  <SCORE.SYSTEM>
-0.0193682

>  <SCORE.SYSTEM.CONST>
0

>  <SCORE.SYSTEM.DIHEDRAL>
0.844728

>  <SCORE.SYSTEM.VDW>
-0.441732

>  <SCORE.SYSTEM.norm>
-0.00096841

>  <SCORE.heavy>
20

>  <SCORE.norm>
-1.03297

>  <SMILES>
C/C(O)=N\[C@@H]1[C@H](O)[C@H](O)[C@@H](CO)O[C@H]1OCCN=[N+]=[N-]

>  <UniqueID>
382

$$$$
ZINC000102863660
  rDOCK(R)          3D
libRbt.so/2013.1/901 2013/11/27
 23 23  0  0  0  0  0  0  0  0999 V2000
   30.6332   -3.3933  -63.0460 H   0  0  0  0  0  0
   29.9932   -2.6294  -63.2275 O   0  0  0  0  0  0
   30.4360   -1.3133  -63.3330 C   0  0  0  0  0  0
   31.7152   -1.0847  -63.2427 N   0  0  0  0  0  0
   32.3909    0.2171  -63.3016 C   0  0  0  0  0  0
   32.7424    0.6990  -61.8781 C   0  0  0  0  0  0
   31.5354    0.8890  -61.1583 O   0  0  0  0  0  0
   31.6839    1.0014  -59.7436 C   0  0  0  0  0  0
   30.2700    1.2346  -59.1849 C   0  0  0  0  0  0
   32.5649    2.2033  -59.3198 C   0  0  0  0  0  0
   32.2221   -0.3141  -59.1370 C   0  0  0  0  0  0
   33.4183    1.9433  -61.9476 O   0  0  0  0  0  0
   34.6804    1.8001  -62.5779 C   0  0  0  0  0  0
   35.4298    3.1359  -62.4661 C   0  0  0  0  0  0
   36.5621    3.1327  -63.2935 O   0  0  0  0  0  0
   36.8065    4.0830  -63.4449 H   0  0  0  0  0  0
   34.4899    1.3913  -64.0587 C   0  0  0  0  0  0
   35.7352    1.2035  -64.6843 O   0  0  0  0  0  0
   35.5776    1.2237  -65.6643 H   0  0  0  0  0  0
   33.6756    0.0862  -64.1392 C   0  0  0  0  0  0
   34.4414   -0.9981  -63.6702 O   0  0  0  0  0  0
   35.2546   -1.0471  -64.2376 H   0  0  0  0  0  0
   29.4344   -0.2160  -63.5731 C   0  0  0  0  0  0
  1  2  1  0  0  0
  2  3  1  0  0  0
  3  4  2  0  0  0
  3 23  1  0  0  0
  4  5  1  0  0  0
  5  6  1  0  0  0
  6  7  1  0  0  0
  6 12  1  0  0  0
  7  8  1  0  0  0
  8  9  1  0  0  0
  8 10  1  0  0  0
  8 11  1  0  0  0
 12 13  1  0  0  0
 13 14  1  0  0  0
 13 17  1  0  0  0
 14 15  1  0  0  0
 15 16  1  0  0  0
 17 18  1  0  0  0
 17 20  1  0  0  0
 18 19  1  0  0  0
 20 21  1  0  0  0
 20  5  1  0  0  0
 21 22  1  0  0  0
M  END
>  <CHROM.0>
72.49803247,-57.61683209,176.81853216

>  <CHROM.1>
2.57681758,100.32530101,164.71396908,178.60871204,-168.39891596,159.60736578
-162.83811145,179.82512269,32.85816691,0.65227884,-62.33366297,3.09952432
0.56980237,1.02868836

>  <Energy>
41.50734628905602

>  <Genealogy>
CC(O)=N[C@H]1[C@H](OC(C)(C)C)O[C@H](CO)[C@@H](O)[C@H]1O (tautomer)
C/C(O)=N\[C@H]1[C@H](OC(C)(C)C)O[C@H](CO)[C@@H](O)[C@H]1O (cis-trans isomerization)
C/C(O)=N\[C@H]1[C@H](OC(C)(C)C)O[C@H](CO)[C@@H](O)[C@H]1O (3D coordinates assigned)
C/C(O)=N\[C@H]1[C@H](OC(C)(C)C)O[C@H](CO)[C@@H](O)[C@H]1O (nonaromatic ring conformer: 41.50734628905602 kcal/mol)

>  <Name>
ZINC000102863660

>  <RI>
1.63646e+07

>  <Rbt.Current_Directory>
/home/edward/Documentos/Virtual_Screening/rDock/N-terminal/3

>  <Rbt.Executable>
rbdock ($Id: //depot/dev/client3/rdock/2013.1/src/exe/rbdock.cxx#4 $)

>  <Rbt.Library>
libRbt.so (2013.1, Build901 2013/11/27)

>  <Rbt.Parameter_File>
/home/edward/anaconda3/envs/MD/share/rdock-2013.1-1/data/scripts/dock.prm

>  <Rbt.Receptor>
parameters.prm

>  <SCORE>
-18.5701

>  <SCORE.INTER>
-16.0493

>  <SCORE.INTER.CONST>
1

>  <SCORE.INTER.POLAR>
-4.21862

>  <SCORE.INTER.REPUL>
0

>  <SCORE.INTER.ROT>
4

>  <SCORE.INTER.VDW>
-11.106

>  <SCORE.INTER.norm>
-0.8447

>  <SCORE.INTRA>
-2.55623

>  <SCORE.INTRA.DIHEDRAL>
-8.2097

>  <SCORE.INTRA.DIHEDRAL.0>
13.6562

>  <SCORE.INTRA.POLAR>
-0.00669282

>  <SCORE.INTRA.POLAR.0>
0

>  <SCORE.INTRA.REPUL>
0

>  <SCORE.INTRA.REPUL.0>
0

>  <SCORE.INTRA.VDW>
1.57138

>  <SCORE.INTRA.VDW.0>
-0.732845

>  <SCORE.INTRA.norm>
-0.134538

>  <SCORE.RESTR>
0

>  <SCORE.RESTR.CAVITY>
0

>  <SCORE.RESTR.norm>
0

>  <SCORE.SYSTEM>
0.0354324

>  <SCORE.SYSTEM.CONST>
0

>  <SCORE.SYSTEM.DIHEDRAL>
0.821526

>  <SCORE.SYSTEM.POLAR>
-0.0179804

>  <SCORE.SYSTEM.REPUL>
0.00685902

>  <SCORE.SYSTEM.VDW>
-0.348493

>  <SCORE.SYSTEM.norm>
0.00186487

>  <SCORE.heavy>
19

>  <SCORE.norm>
-0.977373

>  <SMILES>
C/C(O)=N\[C@H]1[C@H](OC(C)(C)C)O[C@H](CO)[C@@H](O)[C@H]1O

>  <UniqueID>
387

$$$$
ZINC000102974493
  rDOCK(R)          3D
libRbt.so/2013.1/901 2013/11/27
 26 27  0  0  0  0  0  0  0  0999 V2000
   32.6680   -2.7648  -64.4938 C   0  0  0  0  0  0
   32.6917   -1.3247  -64.0966 C   0  0  0  0  0  0
   31.6179   -0.7606  -63.7535 O   0  0  0  0  0  0
   33.9386   -0.6145  -64.0491 N   0  0  0  0  0  0
   34.0551    0.7661  -63.5654 C   0  0  0  0  0  0
   34.1103    0.8157  -62.0199 C   0  0  0  0  0  0
   32.9016    0.2786  -61.4747 O   0  0  0  0  0  0
   32.3624    0.5425  -60.2033 C   0  0  0  0  0  0
   32.1912    1.8457  -59.6912 C   0  0  0  0  0  0
   31.6607    2.0353  -58.4113 C   0  0  0  0  0  0
   31.2907    0.9347  -57.6334 C   0  0  0  0  0  0
   30.6322    1.1765  -56.0259 Cl  0  0  0  0  0  0
   31.4454   -0.3587  -58.1395 C   0  0  0  0  0  0
   31.9743   -0.5513  -59.4189 C   0  0  0  0  0  0
   34.2059    2.1639  -61.5935 O   0  0  0  0  0  0
   35.4341    2.7453  -62.0028 C   0  0  0  0  0  0
   35.5392    4.1316  -61.3522 C   0  0  0  0  0  0
   35.5354    4.0186  -59.9557 O   0  0  0  0  0  0
   35.4871    2.8363  -63.5497 C   0  0  0  0  0  0
   36.7143    3.3746  -63.9760 O   0  0  0  0  0  0
   35.3089    1.4340  -64.1594 C   0  0  0  0  0  0
   36.4438    0.6434  -63.8974 O   0  0  0  0  0  0
   34.8114   -1.1379  -64.2870 H   0  0  0  0  0  0
   34.6976    3.5417  -59.7201 H   0  0  0  0  0  0
   36.7301    4.3278  -63.6991 H   0  0  0  0  0  0
   36.4626    0.4765  -62.9190 H   0  0  0  0  0  0
  1  2  1  0  0  0
  2  3  2  0  0  0
  2  4  1  0  0  0
  4  5  1  0  0  0
  4 23  1  0  0  0
  5  6  1  0  0  0
  6  7  1  0  0  0
  6 15  1  0  0  0
  7  8  1  0  0  0
  8  9  2  0  0  0
  9 10  1  0  0  0
 10 11  2  0  0  0
 11 12  1  0  0  0
 11 13  1  0  0  0
 13 14  2  0  0  0
 14  8  1  0  0  0
 15 16  1  0  0  0
 16 17  1  0  0  0
 16 19  1  0  0  0
 17 18  1  0  0  0
 18 24  1  0  0  0
 19 20  1  0  0  0
 19 21  1  0  0  0
 20 25  1  0  0  0
 21 22  1  0  0  0
 21  5  1  0  0  0
 22 26  1  0  0  0
M  END
>  <CHROM.0>
-71.65887091,-58.14234405,-59.52013715

>  <CHROM.1>
81.34666267,-156.79252289,49.64789385,61.15968369,-57.15012121,-68.53443505
-53.25900000,33.45268910,1.09927198,-61.24597792,0.75794406,-0.78208345,-2.18351709

>  <Energy>
38.21603993503328

>  <Genealogy>
CC(=O)N[C@H]1[C@H](Oc2ccc(Cl)cc2)O[C@H](CO)[C@@H](O)[C@H]1O (3D coordinates assigned)
CC(=O)N[C@H]1[C@H](Oc2ccc(Cl)cc2)O[C@H](CO)[C@@H](O)[C@H]1O (nonaromatic ring conformer: 38.21603993503328 kcal/mol)

>  <Name>
ZINC000102974493

>  <RI>
1.63646e+07

>  <Rbt.Current_Directory>
/home/edward/Documentos/Virtual_Screening/rDock/N-terminal/3

>  <Rbt.Executable>
rbdock ($Id: //depot/dev/client3/rdock/2013.1/src/exe/rbdock.cxx#4 $)

>  <Rbt.Library>
libRbt.so (2013.1, Build901 2013/11/27)

>  <Rbt.Parameter_File>
/home/edward/anaconda3/envs/MD/share/rdock-2013.1-1/data/scripts/dock.prm

>  <Rbt.Receptor>
parameters.prm

>  <SCORE>
-21.9054

>  <SCORE.INTER>
-21.2924

>  <SCORE.INTER.CONST>
1

>  <SCORE.INTER.POLAR>
-3.44982

>  <SCORE.INTER.REPUL>
0

>  <SCORE.INTER.ROT>
4

>  <SCORE.INTER.VDW>
-18.963

>  <SCORE.INTER.norm>
-0.967836

>  <SCORE.INTRA>
-0.645129

>  <SCORE.INTRA.DIHEDRAL>
-5.23387

>  <SCORE.INTRA.DIHEDRAL.0>
12.0103

>  <SCORE.INTRA.POLAR>
-0.0382426

>  <SCORE.INTRA.POLAR.0>
0

>  <SCORE.INTRA.REPUL>
0

>  <SCORE.INTRA.REPUL.0>
0

>  <SCORE.INTRA.VDW>
2.10183

>  <SCORE.INTRA.VDW.0>
-3.83656

>  <SCORE.INTRA.norm>
-0.0293241

>  <SCORE.RESTR>
0

>  <SCORE.RESTR.CAVITY>
0

>  <SCORE.RESTR.norm>
0

>  <SCORE.SYSTEM>
0.0321679

>  <SCORE.SYSTEM.CONST>
0

>  <SCORE.SYSTEM.DIHEDRAL>
0.668362

>  <SCORE.SYSTEM.VDW>
-0.302013

>  <SCORE.SYSTEM.norm>
0.00146218

>  <SCORE.heavy>
22

>  <SCORE.norm>
-0.995698

>  <SMILES>
CC(=O)N[C@H]1[C@H](Oc2ccc(Cl)cc2)O[C@H](CO)[C@@H](O)[C@H]1O

>  <UniqueID>
388

$$$$
ZINC000105341667
  rDOCK(R)          3D
libRbt.so/2013.1/901 2013/11/27
 18 18  0  0  0  0  0  0  0  0999 V2000
   36.2397   -1.4255  -61.7941 C   0  0  0  0  0  0
   35.0729   -0.6489  -61.6299 O   0  0  0  0  0  0
   35.3941    0.7307  -61.5311 C   0  0  0  0  0  0
   34.1987    1.5304  -60.9593 C   0  0  0  0  0  0
   33.0086    1.1760  -61.6187 O   0  0  0  0  0  0
   34.4161    3.0586  -61.1017 C   0  0  0  0  0  0
   35.3681    3.6476  -60.0393 C   0  0  0  0  0  0
   36.6094    2.9996  -60.0995 O   0  0  0  0  0  0
   34.7790    3.4394  -62.4237 O   0  0  0  0  0  0
   35.9620    2.7920  -62.8735 C   0  0  0  0  0  0
   36.3209    3.2819  -64.1402 O   0  0  0  0  0  0
   35.7919    1.2557  -62.9225 C   0  0  0  0  0  0
   34.8202    0.8353  -63.9412 N   0  0  0  0  0  0
   33.1136    1.4347  -62.5715 H   0  0  0  0  0  0
   37.1707    3.4113  -59.3922 H   0  0  0  0  0  0
   36.4777    4.2582  -64.0524 H   0  0  0  0  0  0
   34.9063    1.4313  -64.7955 H   0  0  0  0  0  0
   35.0396   -0.1461  -64.2287 H   0  0  0  0  0  0
  1  2  1  0  0  0
  2  3  1  0  0  0
  3  4  1  0  0  0
  4  5  1  0  0  0
  4  6  1  0  0  0
  5 14  1  0  0  0
  6  7  1  0  0  0
  6  9  1  0  0  0
  7  8  1  0  0  0
  8 15  1  0  0  0
  9 10  1  0  0  0
 10 11  1  0  0  0
 10 12  1  0  0  0
 11 16  1  0  0  0
 12 13  1  0  0  0
 12  3  1  0  0  0
 13 17  1  0  0  0
 13 18  1  0  0  0
M  END
>  <CHROM.0>
-177.52038754,-178.56780074,179.37203761

>  <CHROM.1>
-163.95530843,-63.10681919,57.46745796,-179.39622227,60.06692350,161.44879686
35.23595746,1.74854868,-61.96012816,1.99254449,-1.35333001,-2.57861785

>  <Energy>
33.28497894503443

>  <Genealogy>
CO[C@@H]1[C@H](O)[C@@H](CO)O[C@H](O)[C@@H]1N (3D coordinates assigned)
CO[C@@H]1[C@H](O)[C@@H](CO)O[C@H](O)[C@@H]1N (nonaromatic ring conformer: 33.28497894503443 kcal/mol)

>  <Name>
ZINC000105341667

>  <RI>
1.63646e+07

>  <Rbt.Current_Directory>
/home/edward/Documentos/Virtual_Screening/rDock/N-terminal/3

>  <Rbt.Executable>
rbdock ($Id: //depot/dev/client3/rdock/2013.1/src/exe/rbdock.cxx#4 $)

>  <Rbt.Library>
libRbt.so (2013.1, Build901 2013/11/27)

>  <Rbt.Parameter_File>
/home/edward/anaconda3/envs/MD/share/rdock-2013.1-1/data/scripts/dock.prm

>  <Rbt.Receptor>
parameters.prm

>  <SCORE>
-23.3099

>  <SCORE.INTER>
-19.468

>  <SCORE.INTER.CONST>
1

>  <SCORE.INTER.POLAR>
-3.75262

>  <SCORE.INTER.REPUL>
0

>  <SCORE.INTER.ROT>
3

>  <SCORE.INTER.VDW>
-15.1091

>  <SCORE.INTER.norm>
-1.49754

>  <SCORE.INTRA>
-3.38086

>  <SCORE.INTRA.DIHEDRAL>
-6.48422

>  <SCORE.INTRA.DIHEDRAL.0>
8.64013

>  <SCORE.INTRA.POLAR>
-0.441564

>  <SCORE.INTRA.POLAR.0>
0

>  <SCORE.INTRA.REPUL>
0

>  <SCORE.INTRA.REPUL.0>
0

>  <SCORE.INTRA.VDW>
1.36257

>  <SCORE.INTRA.VDW.0>
-1.21754

>  <SCORE.INTRA.norm>
-0.260066

>  <SCORE.RESTR>
0

>  <SCORE.RESTR.CAVITY>
0

>  <SCORE.RESTR.norm>
0

>  <SCORE.SYSTEM>
-0.461031

>  <SCORE.SYSTEM.CONST>
0

>  <SCORE.SYSTEM.DIHEDRAL>
0.0423622

>  <SCORE.SYSTEM.REPUL>
0.0895231

>  <SCORE.SYSTEM.VDW>
-0.929828

>  <SCORE.SYSTEM.norm>
-0.0354639

>  <SCORE.heavy>
13

>  <SCORE.norm>
-1.79307

>  <SMILES>
CO[C@@H]1[C@H](O)[C@@H](CO)O[C@H](O)[C@@H]1N

>  <UniqueID>
393

$$$$
ZINC000106381125
  rDOCK(R)          3D
libRbt.so/2013.1/901 2013/11/27
 24 24  0  0  0  0  0  0  0  0999 V2000
   29.2656    0.4477  -61.4672 C   0  0  0  0  0  0
   30.1406   -0.6733  -60.8968 C   0  0  0  0  0  0
   31.6485   -0.3116  -60.8113 C   0  0  0  0  0  0
   31.8570    0.7465  -59.6939 C   0  0  0  0  0  0
   32.4096   -1.6106  -60.4554 C   0  0  0  0  0  0
   32.0343    0.1524  -62.1058 O   0  0  0  0  0  0
   33.3765    0.6012  -62.2124 C   0  0  0  0  0  0
   33.4502    1.9176  -61.6905 O   0  0  0  0  0  0
   34.7852    2.3965  -61.7089 C   0  0  0  0  0  0
   34.8298    3.7394  -60.9688 C   0  0  0  0  0  0
   33.9218    4.6427  -61.5380 O   0  0  0  0  0  0
   35.2902    2.5347  -63.1663 C   0  0  0  0  0  0
   36.6242    2.9754  -63.1724 O   0  0  0  0  0  0
   35.1791    1.1798  -63.8903 C   0  0  0  0  0  0
   36.1417    0.2930  -63.3715 O   0  0  0  0  0  0
   33.7571    0.6109  -63.7049 C   0  0  0  0  0  0
   33.6602   -0.7446  -64.2598 N   0  0  0  0  0  0
   32.4052   -1.3954  -64.5061 C   0  0  0  0  0  0
   32.3812   -2.8221  -64.9483 C   0  0  0  0  0  0
   31.3176   -0.7867  -64.3156 O   0  0  0  0  0  0
   34.3236    5.5434  -61.4271 H   0  0  0  0  0  0
   36.5990    3.9636  -63.0785 H   0  0  0  0  0  0
   36.1178   -0.5270  -63.9307 H   0  0  0  0  0  0
   34.5274   -1.3247  -64.3212 H   0  0  0  0  0  0
  1  2  1  0  0  0
  2  3  1  0  0  0
  3  4  1  0  0  0
  3  5  1  0  0  0
  3  6  1  0  0  0
  6  7  1  0  0  0
  7  8  1  0  0  0
  8  9  1  0  0  0
  9 10  1  0  0  0
  9 12  1  0  0  0
 10 11  1  0  0  0
 11 21  1  0  0  0
 12 13  1  0  0  0
 12 14  1  0  0  0
 13 22  1  0  0  0
 14 15  1  0  0  0
 14 16  1  0  0  0
 15 23  1  0  0  0
 16 17  1  0  0  0
 16  7  1  0  0  0
 17 18  1  0  0  0
 17 24  1  0  0  0
 18 19  1  0  0  0
 18 20  2  0  0  0
M  END
>  <CHROM.0>
-71.19022462,-177.96123098,-61.48887305

>  <CHROM.1>
70.59203454,176.85920862,-79.78875313,-55.95747910,-147.98090057,-83.19703049
-173.24587424,72.37608641,33.25256545,0.73297793,-62.44216345,2.58536460
-0.57197074,-2.41301694

>  <Energy>
40.87812884376794

>  <Genealogy>
CCC(C)(C)O[C@@H]1O[C@H](CO)[C@@H](O)[C@@H](O)[C@H]1NC(C)=O (3D coordinates assigned)
CCC(C)(C)O[C@@H]1O[C@H](CO)[C@@H](O)[C@@H](O)[C@H]1NC(C)=O (nonaromatic ring conformer: 40.87812884376794 kcal/mol)

>  <Name>
ZINC000106381125

>  <RI>
1.63646e+07

>  <Rbt.Current_Directory>
/home/edward/Documentos/Virtual_Screening/rDock/N-terminal/3

>  <Rbt.Executable>
rbdock ($Id: //depot/dev/client3/rdock/2013.1/src/exe/rbdock.cxx#4 $)

>  <Rbt.Library>
libRbt.so (2013.1, Build901 2013/11/27)

>  <Rbt.Parameter_File>
/home/edward/anaconda3/envs/MD/share/rdock-2013.1-1/data/scripts/dock.prm

>  <Rbt.Receptor>
parameters.prm

>  <SCORE>
-18.77

>  <SCORE.INTER>
-19.7847

>  <SCORE.INTER.CONST>
1

>  <SCORE.INTER.POLAR>
-4.93722

>  <SCORE.INTER.REPUL>
0

>  <SCORE.INTER.ROT>
5

>  <SCORE.INTER.VDW>
-13.3982

>  <SCORE.INTER.norm>
-0.989236

>  <SCORE.INTRA>
0.42182

>  <SCORE.INTRA.DIHEDRAL>
-2.23637

>  <SCORE.INTRA.DIHEDRAL.0>
12.0388

>  <SCORE.INTRA.POLAR>
0

>  <SCORE.INTRA.POLAR.0>
0

>  <SCORE.INTRA.REPUL>
0

>  <SCORE.INTRA.REPUL.0>
0

>  <SCORE.INTRA.VDW>
1.54

>  <SCORE.INTRA.VDW.0>
0.552162

>  <SCORE.INTRA.norm>
0.021091

>  <SCORE.RESTR>
0

>  <SCORE.RESTR.CAVITY>
0

>  <SCORE.RESTR.norm>
0

>  <SCORE.SYSTEM>
0.592884

>  <SCORE.SYSTEM.CONST>
0

>  <SCORE.SYSTEM.DIHEDRAL>
0.63189

>  <SCORE.SYSTEM.REPUL>
0.0551582

>  <SCORE.SYSTEM.VDW>
0.00114786

>  <SCORE.SYSTEM.norm>
0.0296442

>  <SCORE.heavy>
20

>  <SCORE.norm>
-0.938501

>  <SMILES>
CCC(C)(C)O[C@@H]1O[C@H](CO)[C@@H](O)[C@@H](O)[C@H]1NC(C)=O

>  <UniqueID>
394

$$$$
ZINC000106382931
  rDOCK(R)          3D
libRbt.so/2013.1/901 2013/11/27
 26 27  0  0  0  0  0  0  0  0999 V2000
   34.0900   -3.3738  -64.3028 H   0  0  0  0  0  0
   33.1837   -2.9328  -64.4040 O   0  0  0  0  0  0
   32.9843   -1.5906  -64.0909 C   0  0  0  0  0  0
   33.9948   -0.9063  -63.6362 N   0  0  0  0  0  0
   33.9997    0.5136  -63.2677 C   0  0  0  0  0  0
   34.0812    0.6426  -61.7369 C   0  0  0  0  0  0
   32.9404    0.0066  -61.1616 O   0  0  0  0  0  0
   32.4139    0.2981  -59.8935 C   0  0  0  0  0  0
   32.0991   -0.7708  -59.0445 C   0  0  0  0  0  0
   31.5719   -0.5343  -57.7712 C   0  0  0  0  0  0
   31.3553    0.7756  -57.3355 C   0  0  0  0  0  0
   30.8439    1.0040  -56.1008 F   0  0  0  0  0  0
   31.6666    1.8500  -58.1731 C   0  0  0  0  0  0
   32.1945    1.6173  -59.4473 C   0  0  0  0  0  0
   34.0805    2.0100  -61.3643 O   0  0  0  0  0  0
   35.2629    2.6518  -61.8117 C   0  0  0  0  0  0
   35.2802    4.0697  -61.2244 C   0  0  0  0  0  0
   34.0260    4.6764  -61.3730 O   0  0  0  0  0  0
   34.1444    5.6237  -61.1018 H   0  0  0  0  0  0
   35.2972    2.6750  -63.3620 C   0  0  0  0  0  0
   36.4875    3.2636  -63.8248 O   0  0  0  0  0  0
   36.4611    4.2223  -63.5682 H   0  0  0  0  0  0
   35.1998    1.2417  -63.9114 C   0  0  0  0  0  0
   36.3962    0.5515  -63.6404 O   0  0  0  0  0  0
   36.2991   -0.3598  -64.0221 H   0  0  0  0  0  0
   31.6163   -0.9875  -64.2624 C   0  0  0  0  0  0
  1  2  1  0  0  0
  2  3  1  0  0  0
  3  4  2  0  0  0
  3 26  1  0  0  0
  4  5  1  0  0  0
  5  6  1  0  0  0
  6  7  1  0  0  0
  6 15  1  0  0  0
  7  8  1  0  0  0
  8  9  2  0  0  0
  9 10  1  0  0  0
 10 11  2  0  0  0
 11 12  1  0  0  0
 11 13  1  0  0  0
 13 14  2  0  0  0
 14  8  1  0  0  0
 15 16  1  0  0  0
 16 17  1  0  0  0
 16 20  1  0  0  0
 17 18  1  0  0  0
 18 19  1  0  0  0
 20 21  1  0  0  0
 20 23  1  0  0  0
 21 22  1  0  0  0
 23 24  1  0  0  0
 23  5  1  0  0  0
 24 25  1  0  0  0
M  END
>  <CHROM.0>
-73.79197489,-177.75121830,-62.39507198

>  <CHROM.1>
-1.18677364,108.05979735,-156.53996148,-133.04140611,-45.57824668,-171.69554284
-66.96734154,59.79085013,33.53597006,0.94669012,-61.42833015,0.65645032,-0.90261006
-2.34731524

>  <Energy>
38.77546518827223

>  <Genealogy>
CC(O)=N[C@H]1[C@H](Oc2ccc(F)cc2)O[C@H](CO)[C@@H](O)[C@H]1O (tautomer)
C/C(O)=N\[C@H]1[C@H](Oc2ccc(F)cc2)O[C@H](CO)[C@@H](O)[C@H]1O (cis-trans isomerization)
C/C(O)=N\[C@H]1[C@H](Oc2ccc(F)cc2)O[C@H](CO)[C@@H](O)[C@H]1O (3D coordinates assigned)
C/C(O)=N\[C@H]1[C@H](Oc2ccc(F)cc2)O[C@H](CO)[C@@H](O)[C@H]1O (nonaromatic ring conformer: 38.77546518827223 kcal/mol)

>  <Name>
ZINC000106382931

>  <RI>
1.63646e+07

>  <Rbt.Current_Directory>
/home/edward/Documentos/Virtual_Screening/rDock/N-terminal/3

>  <Rbt.Executable>
rbdock ($Id: //depot/dev/client3/rdock/2013.1/src/exe/rbdock.cxx#4 $)

>  <Rbt.Library>
libRbt.so (2013.1, Build901 2013/11/27)

>  <Rbt.Parameter_File>
/home/edward/anaconda3/envs/MD/share/rdock-2013.1-1/data/scripts/dock.prm

>  <Rbt.Receptor>
parameters.prm

>  <SCORE>
-21.7145

>  <SCORE.INTER>
-20.8113

>  <SCORE.INTER.CONST>
1

>  <SCORE.INTER.POLAR>
-4.0538

>  <SCORE.INTER.REPUL>
0.243981

>  <SCORE.INTER.ROT>
4

>  <SCORE.INTER.VDW>
-17.6483

>  <SCORE.INTER.norm>
-0.94597

>  <SCORE.INTRA>
-1.46719

>  <SCORE.INTRA.DIHEDRAL>
-3.11605

>  <SCORE.INTRA.DIHEDRAL.0>
9.59525

>  <SCORE.INTRA.POLAR>
-0.034015

>  <SCORE.INTRA.POLAR.0>
0

>  <SCORE.INTRA.REPUL>
0

>  <SCORE.INTRA.REPUL.0>
0

>  <SCORE.INTRA.VDW>
0.206486

>  <SCORE.INTRA.VDW.0>
-2.00046

>  <SCORE.INTRA.norm>
-0.0666904

>  <SCORE.RESTR>
0

>  <SCORE.RESTR.CAVITY>
0

>  <SCORE.RESTR.norm>
0

>  <SCORE.SYSTEM>
0.564016

>  <SCORE.SYSTEM.CONST>
0

>  <SCORE.SYSTEM.DIHEDRAL>
0.951797

>  <SCORE.SYSTEM.REPUL>
0.0547534

>  <SCORE.SYSTEM.VDW>
-0.18565

>  <SCORE.SYSTEM.norm>
0.0256371

>  <SCORE.heavy>
22

>  <SCORE.norm>
-0.987024

>  <SMILES>
C/C(O)=N\[C@H]1[C@H](Oc2ccc(F)cc2)O[C@H](CO)[C@@H](O)[C@H]1O

>  <UniqueID>
399

$$$$
ZINC000106382957
  rDOCK(R)          3D
libRbt.so/2013.1/901 2013/11/27
 27 28  0  0  0  0  0  0  0  0999 V2000
   31.9882   -0.0890  -64.4001 H   0  0  0  0  0  0
   32.1345   -1.0671  -64.6185 O   0  0  0  0  0  0
   33.2960   -1.7283  -64.2201 C   0  0  0  0  0  0
   34.2118   -1.1095  -63.5353 N   0  0  0  0  0  0
   34.1367    0.2925  -63.1168 C   0  0  0  0  0  0
   34.3481    0.4444  -61.5894 C   0  0  0  0  0  0
   33.3292   -0.2612  -60.8755 O   0  0  0  0  0  0
   31.9350   -0.1452  -61.0454 C   0  0  0  0  0  0
   31.3541    0.7865  -61.9335 C   0  0  0  0  0  0
   29.9669    0.8740  -62.0615 C   0  0  0  0  0  0
   29.1400    0.0376  -61.3149 C   0  0  0  0  0  0
   29.6962   -0.8908  -60.4347 C   0  0  0  0  0  0
   31.0921   -0.9919  -60.2914 C   0  0  0  0  0  0
   31.6706   -1.9722  -59.3469 C   0  0  0  0  0  0
   30.9319   -2.6867  -58.6181 O   0  0  0  0  0  0
   34.2453    1.8129  -61.2353 O   0  0  0  0  0  0
   35.3055    2.5656  -61.8046 C   0  0  0  0  0  0
   35.2530    3.9925  -61.2380 C   0  0  0  0  0  0
   33.9854    4.5641  -61.4294 O   0  0  0  0  0  0
   34.1114    5.5485  -61.4448 H   0  0  0  0  0  0
   35.2057    2.5600  -63.3490 C   0  0  0  0  0  0
   36.2855    3.2686  -63.9019 O   0  0  0  0  0  0
   36.1674    4.2191  -63.6402 H   0  0  0  0  0  0
   35.2037    1.1106  -63.8682 C   0  0  0  0  0  0
   36.4792    0.5432  -63.6887 O   0  0  0  0  0  0
   36.4327   -0.3900  -64.0242 H   0  0  0  0  0  0
   33.4785   -3.1718  -64.5607 C   0  0  0  0  0  0
  1  2  1  0  0  0
  2  3  1  0  0  0
  3  4  2  0  0  0
  3 27  1  0  0  0
  4  5  1  0  0  0
  5  6  1  0  0  0
  6  7  1  0  0  0
  6 16  1  0  0  0
  7  8  1  0  0  0
  8  9  2  0  0  0
  9 10  1  0  0  0
 10 11  2  0  0  0
 11 12  1  0  0  0
 12 13  2  0  0  0
 13 14  1  0  0  0
 13  8  1  0  0  0
 14 15  2  0  0  0
 16 17  1  0  0  0
 17 18  1  0  0  0
 17 21  1  0  0  0
 18 19  1  0  0  0
 19 20  1  0  0  0
 21 22  1  0  0  0
 21 24  1  0  0  0
 22 23  1  0  0  0
 24 25  1  0  0  0
 24  5  1  0  0  0
 25 26  1  0  0  0
M  END
>  <CHROM.0>
-172.53542250,-57.87280056,-178.99269274

>  <CHROM.1>
1.25750044,126.27849734,-52.51110310,-3.94313295,176.36844454,-54.12587189
-154.60411273,-66.63316082,58.32720494,33.24870572,0.43685008,-62.12313226
-2.79163564,0.70378997,0.56331782

>  <Energy>
41.80469716855105

>  <Genealogy>
CC(O)=N[C@H]1[C@H](Oc2ccccc2C=O)O[C@H](CO)[C@@H](O)[C@H]1O (tautomer)
C/C(O)=N\[C@H]1[C@H](Oc2ccccc2C=O)O[C@H](CO)[C@@H](O)[C@H]1O (cis-trans isomerization)
C/C(O)=N\[C@H]1[C@H](Oc2ccccc2C=O)O[C@H](CO)[C@@H](O)[C@H]1O (3D coordinates assigned)
C/C(O)=N\[C@H]1[C@H](Oc2ccccc2C=O)O[C@H](CO)[C@@H](O)[C@H]1O (nonaromatic ring conformer: 41.80469716855105 kcal/mol)

>  <Name>
ZINC000106382957

>  <RI>
1.63646e+07

>  <Rbt.Current_Directory>
/home/edward/Documentos/Virtual_Screening/rDock/N-terminal/3

>  <Rbt.Executable>
rbdock ($Id: //depot/dev/client3/rdock/2013.1/src/exe/rbdock.cxx#4 $)

>  <Rbt.Library>
libRbt.so (2013.1, Build901 2013/11/27)

>  <Rbt.Parameter_File>
/home/edward/anaconda3/envs/MD/share/rdock-2013.1-1/data/scripts/dock.prm

>  <Rbt.Receptor>
parameters.prm

>  <SCORE>
-23.6966

>  <SCORE.INTER>
-19.2254

>  <SCORE.INTER.CONST>
1

>  <SCORE.INTER.POLAR>
-4.03957

>  <SCORE.INTER.REPUL>
0.134436

>  <SCORE.INTER.ROT>
5

>  <SCORE.INTER.VDW>
-16.563

>  <SCORE.INTER.norm>
-0.835886

>  <SCORE.INTRA>
-3.5028

>  <SCORE.INTRA.DIHEDRAL>
-8.88663

>  <SCORE.INTRA.DIHEDRAL.0>
12.407

>  <SCORE.INTRA.POLAR>
-0.0457494

>  <SCORE.INTRA.POLAR.0>
0

>  <SCORE.INTRA.REPUL>
0

>  <SCORE.INTRA.REPUL.0>
0

>  <SCORE.INTRA.VDW>
1.09606

>  <SCORE.INTRA.VDW.0>
-3.85897

>  <SCORE.INTRA.norm>
-0.152296

>  <SCORE.RESTR>
0

>  <SCORE.RESTR.CAVITY>
0

>  <SCORE.RESTR.norm>
0

>  <SCORE.SYSTEM>
-0.968405

>  <SCORE.SYSTEM.CONST>
0

>  <SCORE.SYSTEM.DIHEDRAL>
0.298797

>  <SCORE.SYSTEM.REPUL>
0.0191849

>  <SCORE.SYSTEM.VDW>
-1.21373

>  <SCORE.SYSTEM.norm>
-0.0421046

>  <SCORE.heavy>
23

>  <SCORE.norm>
-1.03029

>  <SMILES>
C/C(O)=N\[C@H]1[C@H](Oc2ccccc2C=O)O[C@H](CO)[C@@H](O)[C@H]1O

>  <UniqueID>
402

$$$$
ZINC000106382965
  rDOCK(R)          3D
libRbt.so/2013.1/901 2013/11/27
 27 28  0  0  0  0  0  0  0  0999 V2000
   31.7605    1.5127  -63.4007 H   0  0  0  0  0  0
   31.5085    0.5816  -63.7101 O   0  0  0  0  0  0
   32.4497   -0.4469  -63.7429 C   0  0  0  0  0  0
   33.6175   -0.2937  -63.1957 N   0  0  0  0  0  0
   34.0708    0.9288  -62.5317 C   0  0  0  0  0  0
   34.5659    0.6095  -61.1019 C   0  0  0  0  0  0
   33.4929    0.0662  -60.3272 O   0  0  0  0  0  0
   32.5070    0.7901  -59.6330 C   0  0  0  0  0  0
   31.8435    0.1469  -58.5818 C   0  0  0  0  0  0
   30.8587    0.8116  -57.8456 C   0  0  0  0  0  0
   30.5173    2.1380  -58.1552 C   0  0  0  0  0  0
   29.4842    2.8587  -57.3890 C   0  0  0  0  0  0
   29.2236    4.0682  -57.6259 O   0  0  0  0  0  0
   31.1723    2.7836  -59.2135 C   0  0  0  0  0  0
   32.1555    2.1174  -59.9512 C   0  0  0  0  0  0
   34.9876    1.8038  -60.4665 O   0  0  0  0  0  0
   36.1259    2.3499  -61.1134 C   0  0  0  0  0  0
   36.6506    3.5243  -60.2714 C   0  0  0  0  0  0
   37.9716    3.8485  -60.6163 O   0  0  0  0  0  0
   37.9742    4.0405  -61.5902 H   0  0  0  0  0  0
   35.7667    2.7922  -62.5543 C   0  0  0  0  0  0
   36.9037    3.2857  -63.2179 O   0  0  0  0  0  0
   36.6070    4.0486  -63.7795 H   0  0  0  0  0  0
   35.2021    1.5988  -63.3405 C   0  0  0  0  0  0
   36.2319    0.6757  -63.6017 O   0  0  0  0  0  0
   35.8270   -0.0769  -64.1070 H   0  0  0  0  0  0
   32.1025   -1.7553  -64.3759 C   0  0  0  0  0  0
  1  2  1  0  0  0
  2  3  1  0  0  0
  3  4  2  0  0  0
  3 27  1  0  0  0
  4  5  1  0  0  0
  5  6  1  0  0  0
  6  7  1  0  0  0
  6 16  1  0  0  0
  7  8  1  0  0  0
  8  9  2  0  0  0
  9 10  1  0  0  0
 10 11  2  0  0  0
 11 12  1  0  0  0
 11 14  1  0  0  0
 12 13  2  0  0  0
 14 15  2  0  0  0
 15  8  1  0  0  0
 16 17  1  0  0  0
 17 18  1  0  0  0
 17 21  1  0  0  0
 18 19  1  0  0  0
 19 20  1  0  0  0
 21 22  1  0  0  0
 21 24  1  0  0  0
 22 23  1  0  0  0
 24 25  1  0  0  0
 24  5  1  0  0  0
 25 26  1  0  0  0
M  END
>  <CHROM.0>
-75.79445184,-60.83716931,-59.99742409

>  <CHROM.1>
10.21720296,126.24242590,-84.15297508,-158.09423774,176.58818108,162.16706277
56.42131274,-142.64477954,58.85016474,33.55205657,1.56428384,-61.06339632
0.56090580,-0.39764611,-2.20551381

>  <Energy>
40.3199007105945

>  <Genealogy>
CC(O)=N[C@H]1[C@H](Oc2ccc(C=O)cc2)O[C@H](CO)[C@@H](O)[C@H]1O (tautomer)
C/C(O)=N\[C@H]1[C@H](Oc2ccc(C=O)cc2)O[C@H](CO)[C@@H](O)[C@H]1O (cis-trans isomerization)
C/C(O)=N\[C@H]1[C@H](Oc2ccc(C=O)cc2)O[C@H](CO)[C@@H](O)[C@H]1O (3D coordinates assigned)
C/C(O)=N\[C@H]1[C@H](Oc2ccc(C=O)cc2)O[C@H](CO)[C@@H](O)[C@H]1O (nonaromatic ring conformer: 40.3199007105945 kcal/mol)

>  <Name>
ZINC000106382965

>  <RI>
1.63646e+07

>  <Rbt.Current_Directory>
/home/edward/Documentos/Virtual_Screening/rDock/N-terminal/3

>  <Rbt.Executable>
rbdock ($Id: //depot/dev/client3/rdock/2013.1/src/exe/rbdock.cxx#4 $)

>  <Rbt.Library>
libRbt.so (2013.1, Build901 2013/11/27)

>  <Rbt.Parameter_File>
/home/edward/anaconda3/envs/MD/share/rdock-2013.1-1/data/scripts/dock.prm

>  <Rbt.Receptor>
parameters.prm

>  <SCORE>
-21.9632

>  <SCORE.INTER>
-19.1077

>  <SCORE.INTER.CONST>
1

>  <SCORE.INTER.POLAR>
-3.79244

>  <SCORE.INTER.REPUL>
0.407012

>  <SCORE.INTER.ROT>
5

>  <SCORE.INTER.VDW>
-18.6484

>  <SCORE.INTER.norm>
-0.830768

>  <SCORE.INTRA>
-2.85703

>  <SCORE.INTRA.DIHEDRAL>
-2.43488

>  <SCORE.INTRA.DIHEDRAL.0>
12.4618

>  <SCORE.INTRA.POLAR>
-0.586121

>  <SCORE.INTRA.POLAR.0>
0

>  <SCORE.INTRA.REPUL>
0

>  <SCORE.INTRA.REPUL.0>
0

>  <SCORE.INTRA.VDW>
0.353218

>  <SCORE.INTRA.VDW.0>
-2.71483

>  <SCORE.INTRA.norm>
-0.124219

>  <SCORE.RESTR>
0

>  <SCORE.RESTR.CAVITY>
0

>  <SCORE.RESTR.norm>
0

>  <SCORE.SYSTEM>
0.00148518

>  <SCORE.SYSTEM.CONST>
0

>  <SCORE.SYSTEM.DIHEDRAL>
1.16593

>  <SCORE.SYSTEM.VDW>
-0.581482

>  <SCORE.SYSTEM.norm>
6.45729e-05

>  <SCORE.heavy>
23

>  <SCORE.norm>
-0.954922

>  <SMILES>
C/C(O)=N\[C@H]1[C@H](Oc2ccc(C=O)cc2)O[C@H](CO)[C@@H](O)[C@H]1O

>  <UniqueID>
403

$$$$
ZINC000106384102
  rDOCK(R)          3D
libRbt.so/2013.1/901 2013/11/27
 26 27  0  0  0  0  0  0  0  0999 V2000
   32.5770   -2.6936  -64.4177 C   0  0  0  0  0  0
   32.6012   -1.2666  -63.9777 C   0  0  0  0  0  0
   31.5153   -0.6541  -63.7905 O   0  0  0  0  0  0
   33.8556   -0.5943  -63.8056 N   0  0  0  0  0  0
   33.9495    0.8097  -63.3928 C   0  0  0  0  0  0
   33.9115    0.9344  -61.8512 C   0  0  0  0  0  0
   32.6574    0.4599  -61.3537 O   0  0  0  0  0  0
   32.2312    0.6313  -60.0313 C   0  0  0  0  0  0
   32.2689    1.9192  -59.4813 C   0  0  0  0  0  0
   31.8130    2.1477  -58.1816 C   0  0  0  0  0  0
   31.3288    1.0869  -57.4152 C   0  0  0  0  0  0
   31.3183   -0.2081  -57.9393 C   0  0  0  0  0  0
   31.7902   -0.4548  -59.2397 C   0  0  0  0  0  0
   31.8059   -1.8676  -59.7527 C   0  0  0  0  0  0
   34.0339    2.2932  -61.4710 O   0  0  0  0  0  0
   35.3020    2.8146  -61.8319 C   0  0  0  0  0  0
   35.4200    4.2205  -61.2243 C   0  0  0  0  0  0
   35.4317    4.1587  -59.8219 O   0  0  0  0  0  0
   35.4388    2.8487  -63.3736 C   0  0  0  0  0  0
   36.7033    3.3388  -63.7400 O   0  0  0  0  0  0
   35.2449    1.4341  -63.9476 C   0  0  0  0  0  0
   36.3565    0.6376  -63.6136 O   0  0  0  0  0  0
   34.7287   -1.0979  -64.0847 H   0  0  0  0  0  0
   36.2467    3.6577  -59.5570 H   0  0  0  0  0  0
   36.7074    4.3083  -63.5259 H   0  0  0  0  0  0
   36.2791   -0.2046  -64.1339 H   0  0  0  0  0  0
  1  2  1  0  0  0
  2  3  2  0  0  0
  2  4  1  0  0  0
  4  5  1  0  0  0
  4 23  1  0  0  0
  5  6  1  0  0  0
  6  7  1  0  0  0
  6 15  1  0  0  0
  7  8  1  0  0  0
  8  9  2  0  0  0
  9 10  1  0  0  0
 10 11  2  0  0  0
 11 12  1  0  0  0
 12 13  2  0  0  0
 13 14  1  0  0  0
 13  8  1  0  0  0
 15 16  1  0  0  0
 16 17  1  0  0  0
 16 19  1  0  0  0
 17 18  1  0  0  0
 18 24  1  0  0  0
 19 20  1  0  0  0
 19 21  1  0  0  0
 20 25  1  0  0  0
 21 22  1  0  0  0
 21  5  1  0  0  0
 22 26  1  0  0  0
M  END
>  <CHROM.0>
-73.04667300,-175.78845410,-59.94618228

>  <CHROM.1>
85.92503787,-169.63350826,51.48872358,65.35460670,63.49557454,-70.97659283
68.85053445,33.61296308,1.02512477,-61.60843999,0.39666204,-0.80416529,-2.19642453

>  <Energy>
45.275621978796096

>  <Genealogy>
CC(=O)N[C@H]1[C@H](Oc2ccccc2C)O[C@H](CO)[C@@H](O)[C@H]1O (3D coordinates assigned)
CC(=O)N[C@H]1[C@H](Oc2ccccc2C)O[C@H](CO)[C@@H](O)[C@H]1O (nonaromatic ring conformer: 45.275621978796096 kcal/mol)

>  <Name>
ZINC000106384102

>  <RI>
1.63646e+07

>  <Rbt.Current_Directory>
/home/edward/Documentos/Virtual_Screening/rDock/N-terminal/3

>  <Rbt.Executable>
rbdock ($Id: //depot/dev/client3/rdock/2013.1/src/exe/rbdock.cxx#4 $)

>  <Rbt.Library>
libRbt.so (2013.1, Build901 2013/11/27)

>  <Rbt.Parameter_File>
/home/edward/anaconda3/envs/MD/share/rdock-2013.1-1/data/scripts/dock.prm

>  <Rbt.Receptor>
parameters.prm

>  <SCORE>
-26.273

>  <SCORE.INTER>
-23.9511

>  <SCORE.INTER.CONST>
1

>  <SCORE.INTER.POLAR>
-4.25908

>  <SCORE.INTER.REPUL>
0

>  <SCORE.INTER.ROT>
4

>  <SCORE.INTER.VDW>
-18.8702

>  <SCORE.INTER.norm>
-1.08869

>  <SCORE.INTRA>
-2.9069

>  <SCORE.INTRA.DIHEDRAL>
-11.7194

>  <SCORE.INTRA.DIHEDRAL.0>
17.7436

>  <SCORE.INTRA.POLAR>
0

>  <SCORE.INTRA.POLAR.0>
0

>  <SCORE.INTRA.REPUL>
0

>  <SCORE.INTRA.REPUL.0>
0

>  <SCORE.INTRA.VDW>
2.95282

>  <SCORE.INTRA.VDW.0>
-3.9682

>  <SCORE.INTRA.norm>
-0.132132

>  <SCORE.RESTR>
0

>  <SCORE.RESTR.CAVITY>
0

>  <SCORE.RESTR.norm>
0

>  <SCORE.SYSTEM>
0.585032

>  <SCORE.SYSTEM.CONST>
0

>  <SCORE.SYSTEM.DIHEDRAL>
0.895009

>  <SCORE.SYSTEM.REPUL>
0.0509973

>  <SCORE.SYSTEM.VDW>
-0.117458

>  <SCORE.SYSTEM.norm>
0.0265924

>  <SCORE.heavy>
22

>  <SCORE.norm>
-1.19423

>  <SMILES>
CC(=O)N[C@H]1[C@H](Oc2ccccc2C)O[C@H](CO)[C@@H](O)[C@H]1O

>  <UniqueID>
408

$$$$
ZINC000164373873
  rDOCK(R)          3D
libRbt.so/2013.1/901 2013/11/27
 19 19  0  0  0  0  0  0  0  0999 V2000
   32.3042    2.3446  -58.9790 C   0  0  0  0  0  0
   32.1360    1.3164  -59.9307 O   0  0  0  0  0  0
   33.3550    1.0752  -60.6081 C   0  0  0  0  0  0
   33.6611    2.2018  -61.4158 O   0  0  0  0  0  0
   34.9211    2.0455  -62.0472 C   0  0  0  0  0  0
   35.2837    3.3671  -62.7371 C   0  0  0  0  0  0
   36.4300    3.2087  -63.5280 O   0  0  0  0  0  0
   34.8748    0.8668  -63.0518 C   0  0  0  0  0  0
   36.1301    0.6834  -63.6583 O   0  0  0  0  0  0
   34.4677   -0.4249  -62.3195 C   0  0  0  0  0  0
   35.5045   -0.8496  -61.4678 O   0  0  0  0  0  0
   33.1819   -0.1775  -61.5001 C   0  0  0  0  0  0
   32.8330   -1.3588  -60.6979 N   0  3  0  0  0  0
   36.6264    4.1033  -63.9100 H   0  0  0  0  0  0
   36.0790   -0.1523  -64.1915 H   0  0  0  0  0  0
   35.2489   -1.7444  -61.1218 H   0  0  0  0  0  0
   33.1876   -2.2339  -61.1480 H   0  0  0  0  0  0
   33.2500   -1.2756  -59.7425 H   0  0  0  0  0  0
   31.7944   -1.4229  -60.5921 H   0  0  0  0  0  0
  1  2  1  0  0  0
  2  3  1  0  0  0
  3  4  1  0  0  0
  4  5  1  0  0  0
  5  6  1  0  0  0
  5  8  1  0  0  0
  6  7  1  0  0  0
  7 14  1  0  0  0
  8  9  1  0  0  0
  8 10  1  0  0  0
  9 15  1  0  0  0
 10 11  1  0  0  0
 10 12  1  0  0  0
 11 16  1  0  0  0
 12 13  1  0  0  0
 12  3  1  0  0  0
 13 17  1  0  0  0
 13 18  1  0  0  0
 13 19  1  0  0  0
M  END
>  <CHROM.0>
-175.70471656,-60.41965825,-62.42353357

>  <CHROM.1>
-68.10544299,-171.87609901,-177.70309746,172.36893185,-172.11406683,-150.52873952
34.26041653,1.07996963,-61.68705349,2.84123602,-0.77514197,-3.10478841

>  <Energy>
27.797626291259096

>  <Genealogy>
CO[C@@H]1O[C@H](CO)[C@@H](O)[C@@H](O)[C@H]1[NH3+] (protonated)
CO[C@@H]1O[C@H](CO)[C@@H](O)[C@@H](O)[C@H]1[NH3+] (3D coordinates assigned)
CO[C@@H]1O[C@H](CO)[C@@H](O)[C@@H](O)[C@H]1[NH3+] (nonaromatic ring conformer: 27.797626291259096 kcal/mol)

>  <Name>
ZINC000164373873

>  <RI>
1.63646e+07

>  <Rbt.Current_Directory>
/home/edward/Documentos/Virtual_Screening/rDock/N-terminal/3

>  <Rbt.Executable>
rbdock ($Id: //depot/dev/client3/rdock/2013.1/src/exe/rbdock.cxx#4 $)

>  <Rbt.Library>
libRbt.so (2013.1, Build901 2013/11/27)

>  <Rbt.Parameter_File>
/home/edward/anaconda3/envs/MD/share/rdock-2013.1-1/data/scripts/dock.prm

>  <Rbt.Receptor>
parameters.prm

>  <SCORE>
-20.7852

>  <SCORE.INTER>
-19.0345

>  <SCORE.INTER.CONST>
1

>  <SCORE.INTER.POLAR>
-5.23207

>  <SCORE.INTER.REPUL>
0.177514

>  <SCORE.INTER.ROT>
2

>  <SCORE.INTER.VDW>
-9.53302

>  <SCORE.INTER.norm>
-1.46419

>  <SCORE.INTRA>
-0.75999

>  <SCORE.INTRA.DIHEDRAL>
-5.11796

>  <SCORE.INTRA.DIHEDRAL.0>
8.03441

>  <SCORE.INTRA.POLAR>
0

>  <SCORE.INTRA.POLAR.0>
0

>  <SCORE.INTRA.REPUL>
0.0345459

>  <SCORE.INTRA.REPUL.0>
0

>  <SCORE.INTRA.VDW>
1.62626

>  <SCORE.INTRA.VDW.0>
-0.939633

>  <SCORE.INTRA.norm>
-0.0584608

>  <SCORE.RESTR>
0

>  <SCORE.RESTR.CAVITY>
0

>  <SCORE.RESTR.norm>
0

>  <SCORE.SYSTEM>
-0.990686

>  <SCORE.SYSTEM.CONST>
0

>  <SCORE.SYSTEM.DIHEDRAL>
0.120476

>  <SCORE.SYSTEM.REPUL>
0.028145

>  <SCORE.SYSTEM.VDW>
-1.19165

>  <SCORE.SYSTEM.norm>
-0.0762066

>  <SCORE.heavy>
13

>  <SCORE.norm>
-1.59886

>  <SMILES>
CO[C@@H]1O[C@H](CO)[C@@H](O)[C@@H](O)[C@H]1[NH3+]

>  <UniqueID>
410

$$$$
ZINC000196304985
  rDOCK(R)          3D
libRbt.so/2013.1/901 2013/11/27
 20 20  0  0  0  0  0  0  0  0999 V2000
   32.4250    0.4588  -59.5904 C   0  0  0  0  0  0
   33.5365    0.3957  -60.4581 O   0  0  0  0  0  0
   33.9550    1.7011  -60.8119 C   0  0  0  0  0  0
   34.6684    2.2763  -59.7237 O   0  0  0  0  0  0
   35.0435    3.6280  -59.9637 C   0  0  0  0  0  0
   33.8274    4.5825  -59.9650 C   0  0  0  0  0  0
   34.2469    5.9142  -60.1078 O   0  0  0  0  0  0
   35.9518    3.7705  -61.2179 C   0  0  0  0  0  0
   37.2694    3.3595  -60.9371 O   0  0  0  0  0  0
   35.3631    3.0131  -62.4331 C   0  0  0  0  0  0
   36.2482    2.9904  -63.5268 O   0  0  0  0  0  0
   34.8509    1.6026  -62.0629 C   0  0  0  0  0  0
   35.9504    0.6516  -61.8429 N   0  0  0  0  0  0
   35.9850   -0.6467  -62.4529 C   0  0  0  0  0  0
   37.1206   -1.5735  -62.1655 C   0  0  0  0  0  0
   35.0500   -1.0241  -63.2100 O   0  0  0  0  0  0
   34.6529    5.9960  -61.0096 H   0  0  0  0  0  0
   37.2307    2.5331  -60.3924 H   0  0  0  0  0  0
   36.4395    3.9253  -63.7943 H   0  0  0  0  0  0
   36.6906    0.8765  -61.1396 H   0  0  0  0  0  0
  1  2  1  0  0  0
  2  3  1  0  0  0
  3  4  1  0  0  0
  4  5  1  0  0  0
  5  6  1  0  0  0
  5  8  1  0  0  0
  6  7  1  0  0  0
  7 17  1  0  0  0
  8  9  1  0  0  0
  8 10  1  0  0  0
  9 18  1  0  0  0
 10 11  1  0  0  0
 10 12  1  0  0  0
 11 19  1  0  0  0
 12 13  1  0  0  0
 12  3  1  0  0  0
 13 14  1  0  0  0
 13 20  1  0  0  0
 14 15  1  0  0  0
 14 16  2  0  0  0
M  END
>  <CHROM.0>
-174.54850606,-179.30728260,-179.47018632

>  <CHROM.1>
76.46736536,175.74121610,65.38315564,42.15518942,-59.72212424,106.64251764
35.10782620,1.97016596,-61.27305261,1.34202422,-0.66766915,-2.92378851

>  <Energy>
37.91688604549601

>  <Genealogy>
CO[C@H]1O[C@H](CO)[C@@H](O)[C@@H](O)[C@H]1NC(C)=O (3D coordinates assigned)
CO[C@H]1O[C@H](CO)[C@@H](O)[C@@H](O)[C@H]1NC(C)=O (nonaromatic ring conformer: 37.91688604549601 kcal/mol)

>  <Name>
ZINC000196304985

>  <RI>
1.63646e+07

>  <Rbt.Current_Directory>
/home/edward/Documentos/Virtual_Screening/rDock/N-terminal/3

>  <Rbt.Executable>
rbdock ($Id: //depot/dev/client3/rdock/2013.1/src/exe/rbdock.cxx#4 $)

>  <Rbt.Library>
libRbt.so (2013.1, Build901 2013/11/27)

>  <Rbt.Parameter_File>
/home/edward/anaconda3/envs/MD/share/rdock-2013.1-1/data/scripts/dock.prm

>  <Rbt.Receptor>
parameters.prm

>  <SCORE>
-18.2831

>  <SCORE.INTER>
-16.3635

>  <SCORE.INTER.CONST>
1

>  <SCORE.INTER.POLAR>
-3.32581

>  <SCORE.INTER.REPUL>
0.549927

>  <SCORE.INTER.ROT>
3

>  <SCORE.INTER.VDW>
-16.2054

>  <SCORE.INTER.norm>
-1.02272

>  <SCORE.INTRA>
-1.48057

>  <SCORE.INTRA.DIHEDRAL>
-4.51354

>  <SCORE.INTRA.DIHEDRAL.0>
8.99039

>  <SCORE.INTRA.POLAR>
0.00109676

>  <SCORE.INTRA.POLAR.0>
-0.00109676

>  <SCORE.INTRA.REPUL>
0.017895

>  <SCORE.INTRA.REPUL.0>
0

>  <SCORE.INTRA.VDW>
0.682992

>  <SCORE.INTRA.VDW.0>
-1.91618

>  <SCORE.INTRA.norm>
-0.0925359

>  <SCORE.RESTR>
0

>  <SCORE.RESTR.CAVITY>
0

>  <SCORE.RESTR.norm>
0

>  <SCORE.SYSTEM>
-0.439079

>  <SCORE.SYSTEM.CONST>
0

>  <SCORE.SYSTEM.DIHEDRAL>
0.149416

>  <SCORE.SYSTEM.REPUL>
0.0826636

>  <SCORE.SYSTEM.VDW>
-0.927105

>  <SCORE.SYSTEM.norm>
-0.0274425

>  <SCORE.heavy>
16

>  <SCORE.norm>
-1.1427

>  <SMILES>
CO[C@H]1O[C@H](CO)[C@@H](O)[C@@H](O)[C@H]1NC(C)=O

>  <UniqueID>
414

$$$$
ZINC000252694384
  rDOCK(R)          3D
libRbt.so/2013.1/901 2013/11/27
 27 27  0  0  0  0  0  0  0  0999 V2000
   36.7899   12.0569  -55.3086 H   0  0  0  0  0  0
   36.0750   12.1670  -54.5998 O   0  0  0  0  0  0
   34.7285   11.9568  -54.8963 C   0  0  0  0  0  0
   34.3549   11.6298  -56.0973 N   0  0  0  0  0  0
   35.2633   11.4303  -57.2302 C   0  0  0  0  0  0
   34.8158   12.3160  -58.4115 C   0  0  0  0  0  0
   33.4513   12.1093  -58.6891 O   0  0  0  0  0  0
   32.9502   12.3120  -57.8566 H   0  0  0  0  0  0
   35.6584   11.9824  -59.6584 C   0  0  0  0  0  0
   35.2019   12.7016  -60.7787 O   0  0  0  0  0  0
   35.8431   12.5505  -61.5217 H   0  0  0  0  0  0
   35.6604   10.4530  -59.9110 C   0  0  0  0  0  0
   36.5530   10.0947  -61.1075 C   0  0  0  0  0  0
   37.9071   10.2345  -60.7677 O   0  0  0  0  0  0
   38.4290   10.0186  -61.5845 H   0  0  0  0  0  0
   36.1536    9.7791  -58.7663 O   0  0  0  0  0  0
   35.2768    9.9456  -57.6633 C   0  0  0  0  0  0
   35.7652    9.1608  -56.5876 O   0  0  0  0  0  0
   35.5714    7.7752  -56.8093 C   0  0  0  0  0  0
   34.0882    7.3892  -56.7244 C   0  0  0  0  0  0
   33.8863    5.8951  -57.0100 C   0  0  0  0  0  0
   34.2584    5.5044  -58.4524 C   0  0  0  0  0  0
   34.1044    4.0088  -58.7893 C   0  0  0  0  0  0
   34.5477    3.6655  -60.2220 C   0  0  0  0  0  0
   36.0644    3.8205  -60.4186 C   0  0  0  0  0  0
   36.4982    3.5929  -61.8668 C   0  0  0  0  0  0
   33.7024   12.1022  -53.8195 C   0  0  0  0  0  0
  1  2  1  0  0  0
  2  3  1  0  0  0
  3  4  2  0  0  0
  3 27  1  0  0  0
  4  5  1  0  0  0
  5  6  1  0  0  0
  6  7  1  0  0  0
  6  9  1  0  0  0
  7  8  1  0  0  0
  9 10  1  0  0  0
  9 12  1  0  0  0
 10 11  1  0  0  0
 12 13  1  0  0  0
 12 16  1  0  0  0
 13 14  1  0  0  0
 14 15  1  0  0  0
 16 17  1  0  0  0
 17 18  1  0  0  0
 17  5  1  0  0  0
 18 19  1  0  0  0
 19 20  1  0  0  0
 20 21  1  0  0  0
 21 22  1  0  0  0
 22 23  1  0  0  0
 23 24  1  0  0  0
 24 25  1  0  0  0
 25 26  1  0  0  0
M  END
>  <CHROM.0>
-175.61827231,63.99020007,-65.13294347

>  <CHROM.1>
-0.87753463,-126.09201746,57.55108159,172.53079503,72.60973505,-178.23253170
168.78588131,-70.29462049,178.19876915,-65.03663363,178.75440848,-177.47452432
68.08407801,-175.28750115,35.22924789,9.16053245,-58.25709507,1.68400117
1.22935920,0.28089591

>  <Energy>
39.58278237199297

>  <Genealogy>
CCCCCCCCO[C@@H]1O[C@H](CO)[C@@H](O)[C@@H](O)[C@H]1N=C(C)O (tautomer)
CCCCCCCCO[C@@H]1O[C@H](CO)[C@@H](O)[C@@H](O)[C@H]1/N=C(\C)O (cis-trans isomerization)
CCCCCCCCO[C@@H]1O[C@H](CO)[C@@H](O)[C@@H](O)[C@H]1/N=C(\C)O (3D coordinates assigned)
CCCCCCCCO[C@@H]1O[C@H](CO)[C@@H](O)[C@@H](O)[C@H]1/N=C(\C)O (nonaromatic ring conformer: 39.58278237199297 kcal/mol)

>  <Name>
ZINC000252694384

>  <RI>
1.63646e+07

>  <Rbt.Current_Directory>
/home/edward/Documentos/Virtual_Screening/rDock/N-terminal/3

>  <Rbt.Executable>
rbdock ($Id: //depot/dev/client3/rdock/2013.1/src/exe/rbdock.cxx#4 $)

>  <Rbt.Library>
libRbt.so (2013.1, Build901 2013/11/27)

>  <Rbt.Parameter_File>
/home/edward/anaconda3/envs/MD/share/rdock-2013.1-1/data/scripts/dock.prm

>  <Rbt.Receptor>
parameters.prm

>  <SCORE>
-16.8616

>  <SCORE.INTER>
-12.2577

>  <SCORE.INTER.CONST>
1

>  <SCORE.INTER.POLAR>
-3.03851

>  <SCORE.INTER.REPUL>
0.000751867

>  <SCORE.INTER.ROT>
10

>  <SCORE.INTER.VDW>
-17.3305

>  <SCORE.INTER.norm>
-0.532941

>  <SCORE.INTRA>
-4.45935

>  <SCORE.INTRA.DIHEDRAL>
-10.0561

>  <SCORE.INTRA.DIHEDRAL.0>
12.6735

>  <SCORE.INTRA.POLAR>
-0.0617081

>  <SCORE.INTRA.POLAR.0>
0

>  <SCORE.INTRA.REPUL>
0

>  <SCORE.INTRA.REPUL.0>
0

>  <SCORE.INTRA.VDW>
0.778519

>  <SCORE.INTRA.VDW.0>
-1.71382

>  <SCORE.INTRA.norm>
-0.193885

>  <SCORE.RESTR>
0

>  <SCORE.RESTR.CAVITY>
0

>  <SCORE.RESTR.norm>
0

>  <SCORE.SYSTEM>
-0.144643

>  <SCORE.SYSTEM.CONST>
0

>  <SCORE.SYSTEM.DIHEDRAL>
0.301853

>  <SCORE.SYSTEM.REPUL>
0.168011

>  <SCORE.SYSTEM.VDW>
-1.13563

>  <SCORE.SYSTEM.norm>
-0.00628884

>  <SCORE.heavy>
23

>  <SCORE.norm>
-0.733115

>  <SMILES>
CCCCCCCCO[C@@H]1O[C@H](CO)[C@@H](O)[C@@H](O)[C@H]1/N=C(\C)O

>  <UniqueID>
417

$$$$
ZINC000257346145
  rDOCK(R)          3D
libRbt.so/2013.1/901 2013/11/27
 24 26  0  0  0  0  0  0  0  0999 V2000
   35.9191    1.7713  -65.7152 H   0  0  0  0  0  0
   36.0367    1.7336  -64.7095 O   0  0  0  0  0  0
   35.2137    2.4687  -63.8635 C   0  0  0  0  0  0
   35.3935    2.4246  -62.5797 N   0  0  0  0  0  0
   34.5666    3.1756  -61.6340 C   0  0  0  0  0  0
   35.4073    4.2382  -60.8871 C   0  0  0  0  0  0
   36.5525    3.6532  -60.3160 O   0  0  0  0  0  0
   37.0706    3.2446  -61.0576 H   0  0  0  0  0  0
   34.5516    4.8766  -59.7855 C   0  0  0  0  0  0
   35.3350    5.7650  -59.0085 O   0  0  0  0  0  0
   34.6883    6.1473  -57.7943 C   0  0  0  0  0  0
   34.8639    7.6303  -57.6056 C   0  0  0  0  0  0
   35.0516    8.4799  -58.7104 C   0  0  0  0  0  0
   35.2210    9.8552  -58.5209 C   0  0  0  0  0  0
   35.2073   10.3923  -57.2309 C   0  0  0  0  0  0
   35.0256    9.5550  -56.1272 C   0  0  0  0  0  0
   34.8560    8.1794  -56.3114 C   0  0  0  0  0  0
   33.2967    5.8545  -57.7788 O   0  0  0  0  0  0
   33.0929    4.4531  -57.8109 C   0  0  0  0  0  0
   33.9299    3.7738  -58.9099 C   0  0  0  0  0  0
   33.1166    2.9202  -59.6958 O   0  0  0  0  0  0
   33.9133    2.2018  -60.6289 C   0  0  0  0  0  0
   33.0858    1.3093  -61.3512 O   0  0  0  0  0  0
   33.8224    0.1694  -61.7381 C   0  0  0  0  0  0
  1  2  1  0  0  0
  2  3  1  0  0  0
  3  4  2  0  0  0
  4  5  1  0  0  0
  5  6  1  0  0  0
  6  7  1  0  0  0
  6  9  1  0  0  0
  7  8  1  0  0  0
  9 10  1  0  0  0
 10 11  1  0  0  0
 11 12  1  0  0  0
 11 18  1  0  0  0
 12 13  2  0  0  0
 13 14  1  0  0  0
 14 15  2  0  0  0
 15 16  1  0  0  0
 16 17  2  0  0  0
 17 12  1  0  0  0
 18 19  1  0  0  0
 19 20  1  0  0  0
 20 21  1  0  0  0
 20  9  1  0  0  0
 21 22  1  0  0  0
 22 23  1  0  0  0
 22  5  1  0  0  0
 23 24  1  0  0  0
M  END
>  <CHROM.0>
72.41525332,-60.03076767,-61.38556553

>  <CHROM.1>
-178.86686287,-115.34312420,58.84385125,26.38762296,90.15901252,34.64560683
4.81796268,-59.77517581,-1.60285548,0.89252827,0.66769347

>  <Energy>
56.109875679147095

>  <Genealogy>
CO[C@@H]1O[C@@H]2CO[C@H](c3ccccc3)O[C@H]2[C@@H](O)[C@H]1N=CO (tautomer)
CO[C@@H]1O[C@@H]2CO[C@H](c3ccccc3)O[C@H]2[C@@H](O)[C@H]1/N=C/O (cis-trans isomerization)
CO[C@@H]1O[C@@H]2CO[C@H](c3ccccc3)O[C@H]2[C@@H](O)[C@H]1/N=C/O (3D coordinates assigned)
CO[C@@H]1O[C@@H]2CO[C@H](c3ccccc3)O[C@H]2[C@@H](O)[C@H]1/N=C/O (nonaromatic ring conformer: 56.109875679147095 kcal/mol)

>  <Name>
ZINC000257346145

>  <RI>
1.63646e+07

>  <Rbt.Current_Directory>
/home/edward/Documentos/Virtual_Screening/rDock/N-terminal/3

>  <Rbt.Executable>
rbdock ($Id: //depot/dev/client3/rdock/2013.1/src/exe/rbdock.cxx#4 $)

>  <Rbt.Library>
libRbt.so (2013.1, Build901 2013/11/27)

>  <Rbt.Parameter_File>
/home/edward/anaconda3/envs/MD/share/rdock-2013.1-1/data/scripts/dock.prm

>  <Rbt.Receptor>
parameters.prm

>  <SCORE>
-15.0092

>  <SCORE.INTER>
-14.6118

>  <SCORE.INTER.CONST>
1

>  <SCORE.INTER.POLAR>
-1.85935

>  <SCORE.INTER.REPUL>
0

>  <SCORE.INTER.ROT>
3

>  <SCORE.INTER.VDW>
-16.69

>  <SCORE.INTER.norm>
-0.664171

>  <SCORE.INTRA>
-0.436413

>  <SCORE.INTRA.DIHEDRAL>
-2.31384

>  <SCORE.INTRA.DIHEDRAL.0>
6.7081

>  <SCORE.INTRA.POLAR>
-0.0347036

>  <SCORE.INTRA.POLAR.0>
0

>  <SCORE.INTRA.REPUL>
0

>  <SCORE.INTRA.REPUL.0>
0

>  <SCORE.INTRA.VDW>
0.838499

>  <SCORE.INTRA.VDW.0>
-1.29147

>  <SCORE.INTRA.norm>
-0.019837

>  <SCORE.RESTR>
0

>  <SCORE.RESTR.CAVITY>
0

>  <SCORE.RESTR.norm>
0

>  <SCORE.SYSTEM>
0.0389762

>  <SCORE.SYSTEM.CONST>
0

>  <SCORE.SYSTEM.DIHEDRAL>
0.743706

>  <SCORE.SYSTEM.POLAR>
-0.0182524

>  <SCORE.SYSTEM.REPUL>
0.00661756

>  <SCORE.SYSTEM.VDW>
-0.303906

>  <SCORE.SYSTEM.norm>
0.00177165

>  <SCORE.heavy>
22

>  <SCORE.norm>
-0.682236

>  <SMILES>
CO[C@@H]1O[C@@H]2CO[C@H](c3ccccc3)O[C@H]2[C@@H](O)[C@H]1/N=C/O

>  <UniqueID>
418

$$$$
ZINC000257346492
  rDOCK(R)          3D
libRbt.so/2013.1/901 2013/11/27
 24 26  0  0  0  0  0  0  0  0999 V2000
   36.1765    4.2332  -64.0691 H   0  0  0  0  0  0
   36.3001    3.2532  -64.1722 O   0  0  0  0  0  0
   35.1099    2.6463  -63.7341 C   0  0  0  0  0  0
   34.8172    2.9793  -62.2441 C   0  0  0  0  0  0
   35.8729    3.6947  -61.6333 O   0  0  0  0  0  0
   35.5620    4.0416  -60.2822 C   0  0  0  0  0  0
   34.5837    5.2335  -60.1750 C   0  0  0  0  0  0
   34.5177    5.7541  -58.7624 C   0  0  0  0  0  0
   34.9775    7.0470  -58.4592 C   0  0  0  0  0  0
   34.8856    7.5390  -57.1536 C   0  0  0  0  0  0
   34.3280    6.7489  -56.1446 C   0  0  0  0  0  0
   33.8584    5.4662  -56.4403 C   0  0  0  0  0  0
   33.9481    4.9703  -57.7447 C   0  0  0  0  0  0
   35.1774    2.9289  -59.4724 O   0  0  0  0  0  0
   34.1399    2.1613  -60.0541 C   0  0  0  0  0  0
   34.5478    1.7115  -61.4456 C   0  0  0  0  0  0
   33.5272    0.9737  -62.0768 O   0  0  0  0  0  0
   33.9849    0.3728  -63.2920 C   0  0  0  0  0  0
   32.8999    0.3147  -64.2007 O   0  0  0  0  0  0
   31.9625   -0.6570  -63.7887 C   0  0  0  0  0  0
   35.1641    1.1264  -64.0063 C   0  0  0  0  0  0
   36.4612    0.5938  -63.5856 N   0  0  0  0  0  0
   36.5637   -0.1300  -62.5943 N   0  3  0  0  0  0
   36.6662   -0.8525  -61.6043 N   0  5  0  0  0  0
  1  2  1  0  0  0
  2  3  1  0  0  0
  3  4  1  0  0  0
  4  5  1  0  0  0
  5  6  1  0  0  0
  6  7  1  0  0  0
  6 14  1  0  0  0
  7  8  1  0  0  0
  8  9  2  0  0  0
  9 10  1  0  0  0
 10 11  2  0  0  0
 11 12  1  0  0  0
 12 13  2  0  0  0
 13  8  1  0  0  0
 14 15  1  0  0  0
 15 16  1  0  0  0
 16 17  1  0  0  0
 16  4  1  0  0  0
 17 18  1  0  0  0
 18 19  1  0  0  0
 18 21  1  0  0  0
 19 20  1  0  0  0
 21 22  1  0  0  0
 21  3  1  0  0  0
 22 23  2  0  0  0
 23 24  2  0  0  0
M  END
>  <CHROM.0>
72.96896137,-61.12576810,178.14851120

>  <CHROM.1>
-60.43804229,-167.66607197,114.64111909,-71.49689645,109.12698240,34.77681209
2.86836928,-61.10679895,-1.55410478,0.66108178,0.78816001

>  <Energy>
67.09226658052313

>  <Genealogy>
CO[C@@H]1O[C@@H]2CO[C@H](Cc3ccccc3)O[C@H]2[C@@H](O)[C@H]1N=[N+]=[N-] (cis-trans isomerization)
CO[C@@H]1O[C@@H]2CO[C@H](Cc3ccccc3)O[C@H]2[C@@H](O)[C@H]1N=[N+]=[N-] (3D coordinates assigned)
CO[C@@H]1O[C@@H]2CO[C@H](Cc3ccccc3)O[C@H]2[C@@H](O)[C@H]1N=[N+]=[N-] (nonaromatic ring conformer: 67.09226658052313 kcal/mol)

>  <Name>
ZINC000257346492

>  <RI>
1.63646e+07

>  <Rbt.Current_Directory>
/home/edward/Documentos/Virtual_Screening/rDock/N-terminal/3

>  <Rbt.Executable>
rbdock ($Id: //depot/dev/client3/rdock/2013.1/src/exe/rbdock.cxx#4 $)

>  <Rbt.Library>
libRbt.so (2013.1, Build901 2013/11/27)

>  <Rbt.Parameter_File>
/home/edward/anaconda3/envs/MD/share/rdock-2013.1-1/data/scripts/dock.prm

>  <Rbt.Receptor>
parameters.prm

>  <SCORE>
-20.4031

>  <SCORE.INTER>
-19.2595

>  <SCORE.INTER.CONST>
1

>  <SCORE.INTER.POLAR>
-2.69687

>  <SCORE.INTER.REPUL>
0.0875129

>  <SCORE.INTER.ROT>
4

>  <SCORE.INTER.VDW>
-19.9277

>  <SCORE.INTER.norm>
-0.837371

>  <SCORE.INTRA>
-1.13716

>  <SCORE.INTRA.DIHEDRAL>
-3.28289

>  <SCORE.INTRA.DIHEDRAL.0>
5.81127

>  <SCORE.INTRA.POLAR>
0

>  <SCORE.INTRA.POLAR.0>
0

>  <SCORE.INTRA.REPUL>
0

>  <SCORE.INTRA.REPUL.0>
0

>  <SCORE.INTRA.VDW>
0.504281

>  <SCORE.INTRA.VDW.0>
-1.49909

>  <SCORE.INTRA.norm>
-0.0494419

>  <SCORE.RESTR>
0

>  <SCORE.RESTR.CAVITY>
0

>  <SCORE.RESTR.norm>
0

>  <SCORE.SYSTEM>
-0.00642011

>  <SCORE.SYSTEM.CONST>
0

>  <SCORE.SYSTEM.DIHEDRAL>
0.821752

>  <SCORE.SYSTEM.POLAR>
-0.0164516

>  <SCORE.SYSTEM.REPUL>
0.00823105

>  <SCORE.SYSTEM.VDW>
-0.402516

>  <SCORE.SYSTEM.norm>
-0.000279135

>  <SCORE.heavy>
23

>  <SCORE.norm>
-0.887092

>  <SMILES>
CO[C@@H]1O[C@@H]2CO[C@H](Cc3ccccc3)O[C@H]2[C@@H](O)[C@H]1N=[N+]=[N-]

>  <UniqueID>
422

$$$$
ZINC000257346903
  rDOCK(R)          3D
libRbt.so/2013.1/901 2013/11/27
 29 30  0  0  0  0  0  0  0  0999 V2000
   28.5488    1.9360  -62.2012 C   0  0  0  0  0  0
   29.8145    1.4715  -62.9136 C   0  0  0  0  0  0
   29.8415    0.0586  -62.9874 O   0  0  0  0  0  0
   30.9946   -0.3957  -63.6717 C   0  0  0  0  0  0
   30.7129   -1.6579  -64.2527 O   0  0  0  0  0  0
   31.8152   -2.1163  -65.0185 C   0  0  0  0  0  0
   31.3998   -3.4026  -65.7473 C   0  0  0  0  0  0
   32.3437   -3.7332  -66.7307 O   0  0  0  0  0  0
   33.0334   -2.3765  -64.0995 C   0  0  0  0  0  0
   34.1285   -2.8073  -64.8665 O   0  0  0  0  0  0
   33.4029   -1.0923  -63.3293 C   0  0  0  0  0  0
   33.9181   -0.1341  -64.2397 O   0  0  0  0  0  0
   35.1016    0.8352  -63.5007 S   0  0  0  0  0  0
   36.1240   -0.1334  -62.4110 C   0  0  0  0  0  0
   34.4646    1.9582  -62.7306 O   0  0  0  0  0  0
   35.9735    1.4221  -64.5739 O   0  0  0  0  0  0
   32.1375   -0.5340  -62.6477 C   0  0  0  0  0  0
   32.4158    0.7643  -62.0272 N   0  0  0  0  0  0
   32.4043    0.9560  -60.6035 C   0  0  0  0  0  0
   32.3123   -0.0433  -59.8391 O   0  0  0  0  0  0
   32.5250    2.3120  -60.0182 C   0  0  0  0  0  0
   32.3442    2.5026  -58.6357 C   0  0  0  0  0  0
   32.4530    3.7793  -58.0762 C   0  0  0  0  0  0
   32.7349    4.8790  -58.8894 C   0  0  0  0  0  0
   32.9053    4.7047  -60.2644 C   0  0  0  0  0  0
   32.7990    3.4301  -60.8294 C   0  0  0  0  0  0
   33.2296   -3.7522  -66.2832 H   0  0  0  0  0  0
   34.8644   -3.0031  -64.2299 H   0  0  0  0  0  0
   32.7750    1.5331  -62.6371 H   0  0  0  0  0  0
  1  2  1  0  0  0
  2  3  1  0  0  0
  3  4  1  0  0  0
  4  5  1  0  0  0
  5  6  1  0  0  0
  6  7  1  0  0  0
  6  9  1  0  0  0
  7  8  1  0  0  0
  8 27  1  0  0  0
  9 10  1  0  0  0
  9 11  1  0  0  0
 10 28  1  0  0  0
 11 12  1  0  0  0
 11 17  1  0  0  0
 12 13  1  0  0  0
 13 14  1  0  0  0
 13 15  2  0  0  0
 13 16  2  0  0  0
 17 18  1  0  0  0
 17  4  1  0  0  0
 18 19  1  0  0  0
 18 29  1  0  0  0
 19 20  2  0  0  0
 19 21  1  0  0  0
 21 22  2  0  0  0
 22 23  1  0  0  0
 23 24  2  0  0  0
 24 25  1  0  0  0
 25 26  2  0  0  0
 26 21  1  0  0  0
M  END
>  <CHROM.0>
-70.42061251,63.07455986,178.28248441

>  <CHROM.1>
178.70461851,-153.51571706,167.31672706,53.01106068,-177.20992798,-147.22297314
38.83195057,125.18804812,172.01145633,32.70781078,0.40800437,-62.66290879
1.59190519,0.14437823,0.76065492

>  <Energy>
46.717881511477685

>  <Genealogy>
CCO[C@@H]1O[C@H](CO)[C@@H](O)[C@@H](OS(C)(=O)=O)[C@H]1NC(=O)c1ccccc1 (3D coordinates assigned)
CCO[C@@H]1O[C@H](CO)[C@@H](O)[C@@H](OS(C)(=O)=O)[C@H]1NC(=O)c1ccccc1 (nonaromatic ring conformer: 46.717881511477685 kcal/mol)

>  <Name>
ZINC000257346903

>  <RI>
1.63646e+07

>  <Rbt.Current_Directory>
/home/edward/Documentos/Virtual_Screening/rDock/N-terminal/3

>  <Rbt.Executable>
rbdock ($Id: //depot/dev/client3/rdock/2013.1/src/exe/rbdock.cxx#4 $)

>  <Rbt.Library>
libRbt.so (2013.1, Build901 2013/11/27)

>  <Rbt.Parameter_File>
/home/edward/anaconda3/envs/MD/share/rdock-2013.1-1/data/scripts/dock.prm

>  <Rbt.Receptor>
parameters.prm

>  <SCORE>
-17.1134

>  <SCORE.INTER>
-10.4357

>  <SCORE.INTER.CONST>
1

>  <SCORE.INTER.POLAR>
-1.70578

>  <SCORE.INTER.REPUL>
0

>  <SCORE.INTER.ROT>
7

>  <SCORE.INTER.VDW>
-17.0361

>  <SCORE.INTER.norm>
-0.401374

>  <SCORE.INTRA>
-7.47139

>  <SCORE.INTRA.DIHEDRAL>
-11.3567

>  <SCORE.INTRA.DIHEDRAL.0>
21.0859

>  <SCORE.INTRA.POLAR>
-1.03701

>  <SCORE.INTRA.POLAR.0>
0

>  <SCORE.INTRA.REPUL>
0

>  <SCORE.INTRA.REPUL.0>
0

>  <SCORE.INTRA.VDW>
1.73281

>  <SCORE.INTRA.VDW.0>
-4.3554

>  <SCORE.INTRA.norm>
-0.287361

>  <SCORE.RESTR>
0

>  <SCORE.RESTR.CAVITY>
0

>  <SCORE.RESTR.norm>
0

>  <SCORE.SYSTEM>
0.793701

>  <SCORE.SYSTEM.CONST>
0

>  <SCORE.SYSTEM.DIHEDRAL>
0.583798

>  <SCORE.SYSTEM.REPUL>
0.140108

>  <SCORE.SYSTEM.VDW>
-0.19874

>  <SCORE.SYSTEM.norm>
0.030527

>  <SCORE.heavy>
26

>  <SCORE.norm>
-0.658208

>  <SMILES>
CCO[C@@H]1O[C@H](CO)[C@@H](O)[C@@H](OS(C)(=O)=O)[C@H]1NC(=O)c1ccccc1

>  <UniqueID>
425

$$$$
ZINC000257347638
  rDOCK(R)          3D
libRbt.so/2013.1/901 2013/11/27
 33 36  0  0  0  0  0  0  0  0999 V2000
   29.8880    2.2916  -61.8943 C   0  0  0  0  0  0
   29.8642    0.8823  -61.9809 O   0  0  0  0  0  0
   30.7840    0.4397  -62.9609 C   0  0  0  0  0  0
   30.2670   -0.7290  -63.5846 O   0  0  0  0  0  0
   31.1423   -1.1612  -64.6107 C   0  0  0  0  0  0
   30.5281   -2.3368  -65.3925 C   0  0  0  0  0  0
   31.3679   -3.4768  -65.3639 O   0  0  0  0  0  0
   32.6734   -3.1313  -65.8180 C   0  0  0  0  0  0
   33.5128   -4.3877  -65.8645 C   0  0  0  0  0  0
   32.9228   -5.6724  -65.9045 C   0  0  0  0  0  0
   33.7306   -6.8131  -65.9457 C   0  0  0  0  0  0
   35.1256   -6.6851  -65.9709 C   0  0  0  0  0  0
   35.7174   -5.4167  -65.9611 C   0  0  0  0  0  0
   34.9149   -4.2734  -65.9122 C   0  0  0  0  0  0
   33.3170   -2.1295  -65.0248 O   0  0  0  0  0  0
   32.4735   -1.6328  -64.0054 C   0  0  0  0  0  0
   33.1442   -0.4728  -63.2544 C   0  0  0  0  0  0
   33.5443    0.5295  -64.1744 O   0  0  0  0  0  0
   34.9848    1.2662  -63.6636 S   0  0  0  0  0  0
   35.8902    0.1075  -62.6640 C   0  0  0  0  0  0
   34.6842    2.4899  -62.8404 O   0  0  0  0  0  0
   35.8294    1.6473  -64.8491 O   0  0  0  0  0  0
   32.1271    0.1242  -62.2546 C   0  0  0  0  0  0
   32.6801    1.3297  -61.6258 N   0  0  0  0  0  0
   32.5340    1.5917  -60.2203 C   0  0  0  0  0  0
   31.7475    0.8836  -59.5314 O   0  0  0  0  0  0
   33.2784    2.6941  -59.5679 C   0  0  0  0  0  0
   34.5027    3.1327  -60.1064 C   0  0  0  0  0  0
   35.2124    4.1730  -59.4984 C   0  0  0  0  0  0
   34.7061    4.7916  -58.3526 C   0  0  0  0  0  0
   33.4843    4.3767  -57.8180 C   0  0  0  0  0  0
   32.7697    3.3371  -58.4220 C   0  0  0  0  0  0
   33.1425    2.0477  -62.2302 H   0  0  0  0  0  0
  1  2  1  0  0  0
  2  3  1  0  0  0
  3  4  1  0  0  0
  4  5  1  0  0  0
  5  6  1  0  0  0
  6  7  1  0  0  0
  7  8  1  0  0  0
  8  9  1  0  0  0
  8 15  1  0  0  0
  9 10  2  0  0  0
 10 11  1  0  0  0
 11 12  2  0  0  0
 12 13  1  0  0  0
 13 14  2  0  0  0
 14  9  1  0  0  0
 15 16  1  0  0  0
 16 17  1  0  0  0
 16  5  1  0  0  0
 17 18  1  0  0  0
 17 23  1  0  0  0
 18 19  1  0  0  0
 19 20  1  0  0  0
 19 21  2  0  0  0
 19 22  2  0  0  0
 23 24  1  0  0  0
 23  3  1  0  0  0
 24 25  1  0  0  0
 24 33  1  0  0  0
 25 26  2  0  0  0
 25 27  1  0  0  0
 27 28  2  0  0  0
 28 29  1  0  0  0
 29 30  2  0  0  0
 30 31  1  0  0  0
 31 32  2  0  0  0
 32 27  1  0  0  0
M  END
>  <CHROM.0>
-72.45234018,-60.37795563,61.89108880

>  <CHROM.1>
-146.61402139,19.83850023,-145.58959939,26.61288594,99.61832294,-26.58675620
33.14645173,-0.27801591,-63.02338769,1.57748146,0.11828208,0.65171106

>  <Energy>
75.83789908238481

>  <Genealogy>
CO[C@@H]1O[C@@H]2CO[C@H](c3ccccc3)O[C@H]2[C@@H](OS(C)(=O)=O)[C@H]1NC(=O)c1ccccc1 (3D coordinates assigned)
CO[C@@H]1O[C@@H]2CO[C@H](c3ccccc3)O[C@H]2[C@@H](OS(C)(=O)=O)[C@H]1NC(=O)c1ccccc1 (nonaromatic ring conformer: 75.83789908238481 kcal/mol)

>  <Name>
ZINC000257347638

>  <RI>
1.63646e+07

>  <Rbt.Current_Directory>
/home/edward/Documentos/Virtual_Screening/rDock/N-terminal/3

>  <Rbt.Executable>
rbdock ($Id: //depot/dev/client3/rdock/2013.1/src/exe/rbdock.cxx#4 $)

>  <Rbt.Library>
libRbt.so (2013.1, Build901 2013/11/27)

>  <Rbt.Parameter_File>
/home/edward/anaconda3/envs/MD/share/rdock-2013.1-1/data/scripts/dock.prm

>  <Rbt.Receptor>
parameters.prm

>  <SCORE>
-14.5039

>  <SCORE.INTER>
-16.6914

>  <SCORE.INTER.CONST>
1

>  <SCORE.INTER.POLAR>
-1.37944

>  <SCORE.INTER.REPUL>
0

>  <SCORE.INTER.ROT>
6

>  <SCORE.INTER.VDW>
-23.4013

>  <SCORE.INTER.norm>
-0.521606

>  <SCORE.INTRA>
2.335

>  <SCORE.INTRA.DIHEDRAL>
1.42884

>  <SCORE.INTRA.DIHEDRAL.0>
12.3842

>  <SCORE.INTRA.POLAR>
-0.400878

>  <SCORE.INTRA.POLAR.0>
0

>  <SCORE.INTRA.REPUL>
0

>  <SCORE.INTRA.REPUL.0>
0

>  <SCORE.INTRA.VDW>
2.98357

>  <SCORE.INTRA.VDW.0>
-4.24357

>  <SCORE.INTRA.norm>
0.0729688

>  <SCORE.RESTR>
0

>  <SCORE.RESTR.CAVITY>
0

>  <SCORE.RESTR.norm>
0

>  <SCORE.SYSTEM>
-0.147474

>  <SCORE.SYSTEM.CONST>
0

>  <SCORE.SYSTEM.DIHEDRAL>
0.756806

>  <SCORE.SYSTEM.VDW>
-0.525877

>  <SCORE.SYSTEM.norm>
-0.00460856

>  <SCORE.heavy>
32

>  <SCORE.norm>
-0.453245

>  <SMILES>
CO[C@@H]1O[C@@H]2CO[C@H](c3ccccc3)O[C@H]2[C@@H](OS(C)(=O)=O)[C@H]1NC(=O)c1ccccc1

>  <UniqueID>
429

$$$$
ZINC000257347639
  rDOCK(R)          3D
libRbt.so/2013.1/901 2013/11/27
 33 36  0  0  0  0  0  0  0  0999 V2000
   35.7704   14.2160  -57.1886 H   0  0  0  0  0  0
   35.8603   14.0711  -56.1883 O   0  0  0  0  0  0
   35.7132   12.8038  -55.6295 C   0  0  0  0  0  0
   35.3045   11.8214  -56.3826 N   0  0  0  0  0  0
   35.1907   10.4107  -55.9977 C   0  0  0  0  0  0
   35.2962    9.5132  -57.2500 C   0  0  0  0  0  0
   34.3299    9.9182  -58.2067 O   0  0  0  0  0  0
   34.9126    9.6932  -59.7839 S   0  0  0  0  0  0
   35.4823   10.9756  -60.3228 O   0  0  0  0  0  0
   35.9639    8.6224  -59.8029 O   0  0  0  0  0  0
   33.5563    9.1920  -60.8163 C   0  0  0  0  0  0
   35.0182    8.0660  -56.8268 C   0  0  0  0  0  0
   34.9869    7.2121  -57.9512 O   0  0  0  0  0  0
   34.7716    5.8734  -57.5238 C   0  0  0  0  0  0
   34.8096    4.9740  -58.7315 C   0  0  0  0  0  0
   33.9470    5.2140  -59.8149 C   0  0  0  0  0  0
   33.9679    4.3738  -60.9335 C   0  0  0  0  0  0
   34.8384    3.2811  -60.9734 C   0  0  0  0  0  0
   35.6907    3.0263  -59.8948 C   0  0  0  0  0  0
   35.6769    3.8664  -58.7774 C   0  0  0  0  0  0
   33.4992    5.7337  -56.9029 O   0  0  0  0  0  0
   33.4339    6.5339  -55.7366 C   0  0  0  0  0  0
   33.6713    8.0002  -56.0915 C   0  0  0  0  0  0
   33.7024    8.8031  -54.9238 O   0  0  0  0  0  0
   33.8440   10.1733  -55.2749 C   0  0  0  0  0  0
   33.8486   10.9327  -54.0753 O   0  0  0  0  0  0
   32.5758   10.9385  -53.4760 C   0  0  0  0  0  0
   36.0332   12.6313  -54.2003 C   0  0  0  0  0  0
   35.7070   13.6391  -53.2779 C   0  0  0  0  0  0
   35.9494   13.4485  -51.9125 C   0  0  0  0  0  0
   36.5153   12.2527  -51.4655 C   0  0  0  0  0  0
   36.8350   11.2428  -52.3782 C   0  0  0  0  0  0
   36.5832   11.4250  -53.7407 C   0  0  0  0  0  0
  1  2  1  0  0  0
  2  3  1  0  0  0
  3  4  2  0  0  0
  3 28  1  0  0  0
  4  5  1  0  0  0
  5  6  1  0  0  0
  6  7  1  0  0  0
  6 12  1  0  0  0
  7  8  1  0  0  0
  8  9  2  0  0  0
  8 10  2  0  0  0
  8 11  1  0  0  0
 12 13  1  0  0  0
 13 14  1  0  0  0
 14 15  1  0  0  0
 14 21  1  0  0  0
 15 16  2  0  0  0
 16 17  1  0  0  0
 17 18  2  0  0  0
 18 19  1  0  0  0
 19 20  2  0  0  0
 20 15  1  0  0  0
 21 22  1  0  0  0
 22 23  1  0  0  0
 23 24  1  0  0  0
 23 12  1  0  0  0
 24 25  1  0  0  0
 25 26  1  0  0  0
 25  5  1  0  0  0
 26 27  1  0  0  0
 28 29  2  0  0  0
 29 30  1  0  0  0
 30 31  2  0  0  0
 31 32  1  0  0  0
 32 33  2  0  0  0
 33 28  1  0  0  0
M  END
>  <CHROM.0>
-179.00542112,-179.45612492,-63.72686492

>  <CHROM.1>
-7.89098748,37.84032039,-154.67611016,146.63138845,-96.74037817,-56.05519758
170.38254386,34.89037576,9.08840878,-56.88717675,-0.94008731,-1.41109039
-1.82300031

>  <Energy>
74.48748427597805

>  <Genealogy>
CO[C@@H]1O[C@@H]2CO[C@@H](c3ccccc3)O[C@H]2[C@@H](OS(C)(=O)=O)[C@H]1N=C(O)c1ccccc1 (tautomer)
CO[C@@H]1O[C@@H]2CO[C@@H](c3ccccc3)O[C@H]2[C@@H](OS(C)(=O)=O)[C@H]1/N=C(/O)c1ccccc1 (cis-trans isomerization)
CO[C@@H]1O[C@@H]2CO[C@@H](c3ccccc3)O[C@H]2[C@@H](OS(C)(=O)=O)[C@H]1/N=C(/O)c1ccccc1 (3D coordinates assigned)
CO[C@@H]1O[C@@H]2CO[C@@H](c3ccccc3)O[C@H]2[C@@H](OS(C)(=O)=O)[C@H]1/N=C(/O)c1ccccc1 (nonaromatic ring conformer: 74.48748427597805 kcal/mol)

>  <Name>
ZINC000257347639

>  <RI>
1.63646e+07

>  <Rbt.Current_Directory>
/home/edward/Documentos/Virtual_Screening/rDock/N-terminal/3

>  <Rbt.Executable>
rbdock ($Id: //depot/dev/client3/rdock/2013.1/src/exe/rbdock.cxx#4 $)

>  <Rbt.Library>
libRbt.so (2013.1, Build901 2013/11/27)

>  <Rbt.Parameter_File>
/home/edward/anaconda3/envs/MD/share/rdock-2013.1-1/data/scripts/dock.prm

>  <Rbt.Receptor>
parameters.prm

>  <SCORE>
-15.3612

>  <SCORE.INTER>
-10.0509

>  <SCORE.INTER.CONST>
1

>  <SCORE.INTER.POLAR>
0

>  <SCORE.INTER.REPUL>
0.306563

>  <SCORE.INTER.ROT>
6

>  <SCORE.INTER.VDW>
-22.9837

>  <SCORE.INTER.norm>
-0.314089

>  <SCORE.INTRA>
-4.92271

>  <SCORE.INTRA.DIHEDRAL>
-14.9163

>  <SCORE.INTRA.DIHEDRAL.0>
27.3897

>  <SCORE.INTRA.POLAR>
0

>  <SCORE.INTRA.POLAR.0>
0

>  <SCORE.INTRA.REPUL>
0

>  <SCORE.INTRA.REPUL.0>
0

>  <SCORE.INTRA.VDW>
2.53542

>  <SCORE.INTRA.VDW.0>
-5.67117

>  <SCORE.INTRA.norm>
-0.153835

>  <SCORE.RESTR>
0

>  <SCORE.RESTR.CAVITY>
0

>  <SCORE.RESTR.norm>
0

>  <SCORE.SYSTEM>
-0.387627

>  <SCORE.SYSTEM.CONST>
0

>  <SCORE.SYSTEM.DIHEDRAL>
0.0746648

>  <SCORE.SYSTEM.REPUL>
0.095325

>  <SCORE.SYSTEM.VDW>
-0.901584

>  <SCORE.SYSTEM.norm>
-0.0121133

>  <SCORE.heavy>
32

>  <SCORE.norm>
-0.480037

>  <SMILES>
CO[C@@H]1O[C@@H]2CO[C@@H](c3ccccc3)O[C@H]2[C@@H](OS(C)(=O)=O)[C@H]1/N=C(/O)c1ccccc1

>  <UniqueID>
432

$$$$
ZINC000307008534
  rDOCK(R)          3D
libRbt.so/2013.1/901 2013/11/27
 19 19  0  0  0  0  0  0  0  0999 V2000
   32.2085   -1.4601  -60.4020 C   0  0  0  0  0  0
   33.4768   -0.9459  -60.9332 N   0  3  0  0  0  0
   33.2697    0.1541  -61.9177 C   0  0  0  0  0  0
   33.3176    1.5549  -61.2446 C   0  0  0  0  0  0
   32.3929    1.6107  -60.1712 O   0  0  0  0  0  0
   31.0642    1.6701  -60.6452 C   0  0  0  0  0  0
   34.6085    1.8096  -60.7100 O   0  0  0  0  0  0
   35.6284    1.8552  -61.7022 C   0  0  0  0  0  0
   35.5484    3.1326  -62.5697 C   0  0  0  0  0  0
   36.4590    3.0644  -63.6347 O   0  0  0  0  0  0
   35.7127    0.5488  -62.5293 C   0  0  0  0  0  0
   36.2587   -0.4654  -61.7233 O   0  0  0  0  0  0
   34.3206    0.1355  -63.0523 C   0  0  0  0  0  0
   34.3633   -1.1280  -63.6662 O   0  0  0  0  0  0
   34.0686   -0.6283  -60.1306 H   0  0  0  0  0  0
   33.9650   -1.7604  -61.3705 H   0  0  0  0  0  0
   36.4522    3.9546  -64.0743 H   0  0  0  0  0  0
   36.3190   -1.2829  -62.2836 H   0  0  0  0  0  0
   35.0865   -1.0931  -64.3457 H   0  0  0  0  0  0
  1  2  1  0  0  0
  2  3  1  0  0  0
  2 15  1  0  0  0
  2 16  1  0  0  0
  3  4  1  0  0  0
  4  5  1  0  0  0
  4  7  1  0  0  0
  5  6  1  0  0  0
  7  8  1  0  0  0
  8  9  1  0  0  0
  8 11  1  0  0  0
  9 10  1  0  0  0
 10 17  1  0  0  0
 11 12  1  0  0  0
 11 13  1  0  0  0
 12 18  1  0  0  0
 13 14  1  0  0  0
 13  3  1  0  0  0
 14 19  1  0  0  0
M  END
>  <CHROM.0>
-73.17083375,-61.60080114,61.44963360

>  <CHROM.1>
92.94657284,-72.70857781,-172.71563305,-172.24574329,-178.79836625,-176.85105628
34.21058967,0.80005827,-61.78470081,-2.80815660,0.58022721,0.13383772

>  <Energy>
40.42622209823629

>  <Genealogy>
C[NH2+][C@H]1[C@@H](OC)O[C@H](CO)[C@@H](O)[C@H]1O (protonated)
C[NH2+][C@H]1[C@@H](OC)O[C@H](CO)[C@@H](O)[C@H]1O (3D coordinates assigned)
C[NH2+][C@H]1[C@@H](OC)O[C@H](CO)[C@@H](O)[C@H]1O (nonaromatic ring conformer: 40.42622209823629 kcal/mol)

>  <Name>
ZINC000307008534

>  <RI>
1.63646e+07

>  <Rbt.Current_Directory>
/home/edward/Documentos/Virtual_Screening/rDock/N-terminal/3

>  <Rbt.Executable>
rbdock ($Id: //depot/dev/client3/rdock/2013.1/src/exe/rbdock.cxx#4 $)

>  <Rbt.Library>
libRbt.so (2013.1, Build901 2013/11/27)

>  <Rbt.Parameter_File>
/home/edward/anaconda3/envs/MD/share/rdock-2013.1-1/data/scripts/dock.prm

>  <Rbt.Receptor>
parameters.prm

>  <SCORE>
-24.0312

>  <SCORE.INTER>
-21.0234

>  <SCORE.INTER.CONST>
1

>  <SCORE.INTER.POLAR>
-5.44987

>  <SCORE.INTER.REPUL>
0.00796002

>  <SCORE.INTER.ROT>
3

>  <SCORE.INTER.VDW>
-10.9336

>  <SCORE.INTER.norm>
-1.50167

>  <SCORE.INTRA>
-2.85466

>  <SCORE.INTRA.DIHEDRAL>
-8.94964

>  <SCORE.INTRA.DIHEDRAL.0>
12.4905

>  <SCORE.INTRA.POLAR>
0.00380251

>  <SCORE.INTRA.POLAR.0>
-0.0304638

>  <SCORE.INTRA.REPUL>
0

>  <SCORE.INTRA.REPUL.0>
0

>  <SCORE.INTRA.VDW>
1.60723

>  <SCORE.INTRA.VDW.0>
-1.44569

>  <SCORE.INTRA.norm>
-0.203904

>  <SCORE.RESTR>
0

>  <SCORE.RESTR.CAVITY>
0

>  <SCORE.RESTR.norm>
0

>  <SCORE.SYSTEM>
-0.153188

>  <SCORE.SYSTEM.CONST>
0

>  <SCORE.SYSTEM.DIHEDRAL>
0.845655

>  <SCORE.SYSTEM.VDW>
-0.576016

>  <SCORE.SYSTEM.norm>
-0.010942

>  <SCORE.heavy>
14

>  <SCORE.norm>
-1.71651

>  <SMILES>
C[NH2+][C@H]1[C@@H](OC)O[C@H](CO)[C@@H](O)[C@H]1O

>  <UniqueID>
435

$$$$
ZINC000307565252
  rDOCK(R)          3D
libRbt.so/2013.1/901 2013/11/27
 27 29  0  0  0  0  0  0  0  0999 V2000
   31.0461    1.4235  -60.5220 C   0  0  0  0  0  0
   32.0053    1.8906  -59.5986 O   0  0  0  0  0  0
   32.8762    2.8135  -60.2254 C   0  0  0  0  0  0
   33.6975    2.1115  -61.1471 O   0  0  0  0  0  0
   34.5129    3.0070  -61.8864 C   0  0  0  0  0  0
   35.2568    2.2093  -62.9670 C   0  0  0  0  0  0
   36.3136    2.9670  -63.4926 O   0  0  0  0  0  0
   35.5174    3.7186  -60.9405 C   0  0  0  0  0  0
   36.3698    4.5960  -61.6368 O   0  0  0  0  0  0
   34.7642    4.4612  -59.8174 C   0  0  0  0  0  0
   34.0811    5.5677  -60.3545 O   0  0  0  0  0  0
   33.7661    3.4755  -59.1411 C   0  0  0  0  0  0
   32.9725    4.0575  -58.0186 N   0  3  0  0  0  0
   31.7443    4.7113  -58.4143 C   0  0  0  0  0  0
   30.7519    4.0999  -58.8929 O   0  0  0  0  0  0
   31.7457    6.1304  -58.0921 C   0  0  0  0  0  0
   30.7887    7.1197  -58.3140 C   0  0  0  0  0  0
   31.0750    8.4240  -57.8720 C   0  0  0  0  0  0
   32.2961    8.7045  -57.2210 C   0  0  0  0  0  0
   33.2386    7.6823  -57.0076 C   0  0  0  0  0  0
   32.9262    6.4015  -57.4608 C   0  0  0  0  0  0
   33.6705    5.1540  -57.3869 C   0  0  0  0  0  0
   34.7840    5.0265  -56.8096 O   0  0  0  0  0  0
   35.9249    3.8271  -63.8003 H   0  0  0  0  0  0
   36.9609    4.0514  -62.2193 H   0  0  0  0  0  0
   34.6801    5.9839  -61.0280 H   0  0  0  0  0  0
   32.7624    3.3376  -57.2886 H   0  0  0  0  0  0
  1  2  1  0  0  0
  2  3  1  0  0  0
  3  4  1  0  0  0
  4  5  1  0  0  0
  5  6  1  0  0  0
  5  8  1  0  0  0
  6  7  1  0  0  0
  7 24  1  0  0  0
  8  9  1  0  0  0
  8 10  1  0  0  0
  9 25  1  0  0  0
 10 11  1  0  0  0
 10 12  1  0  0  0
 11 26  1  0  0  0
 12 13  1  0  0  0
 12  3  1  0  0  0
 13 14  1  0  0  0
 13 27  1  0  0  0
 14 15  2  0  0  0
 14 16  1  0  0  0
 16 17  2  0  0  0
 17 18  1  0  0  0
 18 19  2  0  0  0
 19 20  1  0  0  0
 20 21  2  0  0  0
 21 22  1  0  0  0
 21 16  1  0  0  0
 22 23  2  0  0  0
 22 13  1  0  0  0
M  END
>  <CHROM.0>
-174.84331291,62.82235641,-179.67046111

>  <CHROM.1>
-69.88327521,-165.00174850,-54.40241286,-67.30975811,-40.22313745,-39.10416568
33.38003135,4.49851433,-59.55147635,1.08306310,-0.49062556,-2.57326770

>  <Energy>
76.85282061248539

>  <Genealogy>
CO[C@@H]1O[C@H](CO)[C@@H](O)[C@@H](O)[C@H]1[NH+]1C(=O)c2ccccc2C1=O (protonated)
CO[C@@H]1O[C@H](CO)[C@@H](O)[C@@H](O)[C@H]1[NH+]1C(=O)c2ccccc2C1=O (3D coordinates assigned)
CO[C@@H]1O[C@H](CO)[C@@H](O)[C@@H](O)[C@H]1[NH+]1C(=O)c2ccccc2C1=O (nonaromatic ring conformer: 76.85282061248539 kcal/mol)

>  <Name>
ZINC000307565252

>  <RI>
1.63646e+07

>  <Rbt.Current_Directory>
/home/edward/Documentos/Virtual_Screening/rDock/N-terminal/3

>  <Rbt.Executable>
rbdock ($Id: //depot/dev/client3/rdock/2013.1/src/exe/rbdock.cxx#4 $)

>  <Rbt.Library>
libRbt.so (2013.1, Build901 2013/11/27)

>  <Rbt.Parameter_File>
/home/edward/anaconda3/envs/MD/share/rdock-2013.1-1/data/scripts/dock.prm

>  <Rbt.Receptor>
parameters.prm

>  <SCORE>
-19.5902

>  <SCORE.INTER>
-20.3303

>  <SCORE.INTER.CONST>
1

>  <SCORE.INTER.POLAR>
-4.42088

>  <SCORE.INTER.REPUL>
0.0900519

>  <SCORE.INTER.ROT>
3

>  <SCORE.INTER.VDW>
-14.1495

>  <SCORE.INTER.norm>
-0.883925

>  <SCORE.INTRA>
0.962527

>  <SCORE.INTRA.DIHEDRAL>
-3.25209

>  <SCORE.INTRA.DIHEDRAL.0>
8.0391

>  <SCORE.INTRA.POLAR>
-0.388507

>  <SCORE.INTRA.POLAR.0>
0

>  <SCORE.INTRA.REPUL>
0

>  <SCORE.INTRA.REPUL.0>
0

>  <SCORE.INTRA.VDW>
3.90949

>  <SCORE.INTRA.VDW.0>
-2.48689

>  <SCORE.INTRA.norm>
0.041849

>  <SCORE.RESTR>
0

>  <SCORE.RESTR.CAVITY>
0

>  <SCORE.RESTR.norm>
0

>  <SCORE.SYSTEM>
-0.222445

>  <SCORE.SYSTEM.CONST>
0

>  <SCORE.SYSTEM.DIHEDRAL>
0.170202

>  <SCORE.SYSTEM.REPUL>
0.165836

>  <SCORE.SYSTEM.VDW>
-1.13673

>  <SCORE.SYSTEM.norm>
-0.00967154

>  <SCORE.heavy>
23

>  <SCORE.norm>
-0.851747

>  <SMILES>
CO[C@@H]1O[C@H](CO)[C@@H](O)[C@@H](O)[C@H]1[NH+]1C(=O)c2ccccc2C1=O

>  <UniqueID>
437

$$$$
ZINC000383920275
  rDOCK(R)          3D
libRbt.so/2013.1/901 2013/11/27
 18 19  0  0  0  0  0  0  0  0999 V2000
   31.6405    2.4460  -60.9882 C   0  0  0  0  0  0
   32.9491    2.9725  -61.0293 O   0  0  0  0  0  0
   33.8975    1.9593  -60.7201 C   0  0  0  0  0  0
   34.2394    1.2097  -61.8745 O   0  0  0  0  0  0
   34.8473    2.0327  -62.8543 C   0  0  0  0  0  0
   34.8666    1.2676  -64.1848 C   0  0  0  0  0  0
   35.6778    1.9259  -65.1193 O   0  0  0  0  0  0
   36.2625    2.4158  -62.3925 C   0  0  0  0  0  0
   36.8725    3.2752  -63.3234 O   0  0  0  0  0  0
   36.2258    3.1005  -61.0176 C   0  0  0  0  0  0
   35.9737    4.5001  -61.0941 O   0  0  0  0  0  0
   35.2023    4.8586  -60.0107 C   0  0  0  0  0  0
   34.8868    6.0463  -59.7399 O   0  0  0  0  0  0
   34.7658    3.7433  -59.2622 N   0  0  0  0  0  0
   35.1521    2.5612  -60.0262 C   0  0  0  0  0  0
   35.6352    1.3849  -65.9501 H   0  0  0  0  0  0
   36.4023    4.1479  -63.2700 H   0  0  0  0  0  0
   34.0825    3.7688  -58.4727 H   0  0  0  0  0  0
  1  2  1  0  0  0
  2  3  1  0  0  0
  3  4  1  0  0  0
  4  5  1  0  0  0
  5  6  1  0  0  0
  5  8  1  0  0  0
  6  7  1  0  0  0
  7 16  1  0  0  0
  8  9  1  0  0  0
  8 10  1  0  0  0
  9 17  1  0  0  0
 10 11  1  0  0  0
 11 12  1  0  0  0
 12 13  2  0  0  0
 12 14  1  0  0  0
 14 15  1  0  0  0
 14 18  1  0  0  0
 15  3  1  0  0  0
 15 10  1  0  0  0
M  END
>  <CHROM.0>
-177.55140634,61.15116935,60.92887087

>  <CHROM.1>
85.09718927,-168.78329768,-179.40978100,70.02464641,34.88832129,2.96867147
-61.62987370,1.79116475,0.51087723,0.91419597

>  <Energy>
51.267067238586385

>  <Genealogy>
CO[C@H]1O[C@H](CO)[C@@H](O)[C@H]2OC(=O)N[C@@H]12 (3D coordinates assigned)
CO[C@H]1O[C@H](CO)[C@@H](O)[C@H]2OC(=O)N[C@@H]12 (nonaromatic ring conformer: 51.267067238586385 kcal/mol)

>  <Name>
ZINC000383920275

>  <RI>
1.63646e+07

>  <Rbt.Current_Directory>
/home/edward/Documentos/Virtual_Screening/rDock/N-terminal/3

>  <Rbt.Executable>
rbdock ($Id: //depot/dev/client3/rdock/2013.1/src/exe/rbdock.cxx#4 $)

>  <Rbt.Library>
libRbt.so (2013.1, Build901 2013/11/27)

>  <Rbt.Parameter_File>
/home/edward/anaconda3/envs/MD/share/rdock-2013.1-1/data/scripts/dock.prm

>  <Rbt.Receptor>
parameters.prm

>  <SCORE>
-18.4765

>  <SCORE.INTER>
-17.6938

>  <SCORE.INTER.CONST>
1

>  <SCORE.INTER.POLAR>
-3.9437

>  <SCORE.INTER.REPUL>
0.238688

>  <SCORE.INTER.ROT>
2

>  <SCORE.INTER.VDW>
-12.8786

>  <SCORE.INTER.norm>
-1.17958

>  <SCORE.INTRA>
-0.472577

>  <SCORE.INTRA.DIHEDRAL>
-1.29146

>  <SCORE.INTRA.DIHEDRAL.0>
4.94569

>  <SCORE.INTRA.POLAR>
-0.0913865

>  <SCORE.INTRA.POLAR.0>
0

>  <SCORE.INTRA.REPUL>
0

>  <SCORE.INTRA.REPUL.0>
0

>  <SCORE.INTRA.VDW>
0.483869

>  <SCORE.INTRA.VDW.0>
-0.588992

>  <SCORE.INTRA.norm>
-0.0315051

>  <SCORE.RESTR>
0

>  <SCORE.RESTR.CAVITY>
0

>  <SCORE.RESTR.norm>
0

>  <SCORE.SYSTEM>
-0.310106

>  <SCORE.SYSTEM.CONST>
0

>  <SCORE.SYSTEM.DIHEDRAL>
0.0403411

>  <SCORE.SYSTEM.REPUL>
0.173386

>  <SCORE.SYSTEM.VDW>
-1.19721

>  <SCORE.SYSTEM.norm>
-0.0206737

>  <SCORE.heavy>
15

>  <SCORE.norm>
-1.23176

>  <SMILES>
CO[C@H]1O[C@H](CO)[C@@H](O)[C@H]2OC(=O)N[C@@H]12

>  <UniqueID>
441

$$$$
ZINC000394934764
  rDOCK(R)          3D
libRbt.so/2013.1/901 2013/11/27
 18 18  0  0  0  0  0  0  0  0999 V2000
   35.1959    2.0971  -65.3060 H   0  0  0  0  0  0
   34.6225    1.2880  -65.2585 O   0  0  0  0  0  0
   34.9930    0.5954  -64.0963 C   0  0  0  0  0  0
   34.8626    1.5066  -62.8668 C   0  0  0  0  0  0
   35.1430    0.7352  -61.7079 O   0  0  0  0  0  0
   34.9291    1.4760  -60.5136 C   0  0  0  0  0  0
   33.5761    1.8871  -60.3887 O   0  0  0  0  0  0
   32.7539    0.7731  -60.1184 C   0  0  0  0  0  0
   35.8746    2.6971  -60.4506 C   0  0  0  0  0  0
   35.6308    3.4884  -59.2467 N   0  0  0  0  0  0
   35.1736    4.6299  -59.3159 N   0  3  0  0  0  0
   34.7174    5.7700  -59.3851 N   0  5  0  0  0  0
   35.7183    3.5778  -61.7038 C   0  0  0  0  0  0
   34.4760    4.2395  -61.6963 O   0  0  0  0  0  0
   34.4384    4.7793  -60.8640 H   0  0  0  0  0  0
   35.8334    2.7084  -62.9647 C   0  0  0  0  0  0
   35.5351    3.4945  -64.0923 O   0  0  0  0  0  0
   36.1572    4.2681  -64.0846 H   0  0  0  0  0  0
  1  2  1  0  0  0
  2  3  1  0  0  0
  3  4  1  0  0  0
  4  5  1  0  0  0
  5  6  1  0  0  0
  6  7  1  0  0  0
  6  9  1  0  0  0
  7  8  1  0  0  0
  9 10  1  0  0  0
  9 13  1  0  0  0
 10 11  2  0  0  0
 11 12  2  0  0  0
 13 14  1  0  0  0
 13 16  1  0  0  0
 14 15  1  0  0  0
 16 17  1  0  0  0
 16  4  1  0  0  0
 17 18  1  0  0  0
M  END
>  <CHROM.0>
-175.70570547,-61.52374176,60.13862099

>  <CHROM.1>
56.38314968,175.38692200,70.64089917,-113.38047151,58.17407265,177.54316645
34.89395743,2.59047323,-61.65044391,-1.54198876,1.16556053,1.00065240

>  <Energy>
27.191014068278896

>  <Genealogy>
CO[C@H]1O[C@H](CO)[C@@H](O)[C@@H](O)[C@H]1N=[N+]=[N-] (cis-trans isomerization)
CO[C@H]1O[C@H](CO)[C@@H](O)[C@@H](O)[C@H]1N=[N+]=[N-] (3D coordinates assigned)
CO[C@H]1O[C@H](CO)[C@@H](O)[C@@H](O)[C@H]1N=[N+]=[N-] (nonaromatic ring conformer: 27.191014068278896 kcal/mol)

>  <Name>
ZINC000394934764

>  <RI>
1.63646e+07

>  <Rbt.Current_Directory>
/home/edward/Documentos/Virtual_Screening/rDock/N-terminal/3

>  <Rbt.Executable>
rbdock ($Id: //depot/dev/client3/rdock/2013.1/src/exe/rbdock.cxx#4 $)

>  <Rbt.Library>
libRbt.so (2013.1, Build901 2013/11/27)

>  <Rbt.Parameter_File>
/home/edward/anaconda3/envs/MD/share/rdock-2013.1-1/data/scripts/dock.prm

>  <Rbt.Receptor>
parameters.prm

>  <SCORE>
-19.7341

>  <SCORE.INTER>
-11.1599

>  <SCORE.INTER.CONST>
1

>  <SCORE.INTER.POLAR>
-1.54939

>  <SCORE.INTER.REPUL>
0.000492617

>  <SCORE.INTER.ROT>
3

>  <SCORE.INTER.VDW>
-14.2945

>  <SCORE.INTER.norm>
-0.743996

>  <SCORE.INTRA>
-7.45586

>  <SCORE.INTRA.DIHEDRAL>
-11.5876

>  <SCORE.INTRA.DIHEDRAL.0>
12.4534

>  <SCORE.INTRA.POLAR>
-1.14419

>  <SCORE.INTRA.POLAR.0>
0

>  <SCORE.INTRA.REPUL>
0

>  <SCORE.INTRA.REPUL.0>
0

>  <SCORE.INTRA.VDW>
2.22821

>  <SCORE.INTRA.VDW.0>
-1.28565

>  <SCORE.INTRA.norm>
-0.497057

>  <SCORE.RESTR>
0

>  <SCORE.RESTR.CAVITY>
0

>  <SCORE.RESTR.norm>
0

>  <SCORE.SYSTEM>
-1.11828

>  <SCORE.SYSTEM.CONST>
0

>  <SCORE.SYSTEM.DIHEDRAL>
0.102166

>  <SCORE.SYSTEM.REPUL>
0.0281478

>  <SCORE.SYSTEM.VDW>
-1.3101

>  <SCORE.SYSTEM.norm>
-0.0745521

>  <SCORE.heavy>
15

>  <SCORE.norm>
-1.31561

>  <SMILES>
CO[C@H]1O[C@H](CO)[C@@H](O)[C@@H](O)[C@H]1N=[N+]=[N-]

>  <UniqueID>
442

$$$$
ZINC000396869768
  rDOCK(R)          3D
libRbt.so/2013.1/901 2013/11/27
 18 18  0  0  0  0  0  0  0  0999 V2000
   34.6674    4.7262  -57.6148 C   0  0  0  0  0  0
   34.2817    3.9603  -58.7333 O   0  0  0  0  0  0
   35.3825    3.8211  -59.6082 C   0  0  0  0  0  0
   34.9159    3.2107  -60.9355 C   0  0  0  0  0  0
   35.9202    3.4474  -61.9129 O   0  0  0  0  0  0
   35.5915    2.7928  -63.1235 C   0  0  0  0  0  0
   36.4209    3.2741  -64.1461 O   0  0  0  0  0  0
   35.8096    1.2666  -62.9681 C   0  0  0  0  0  0
   34.9423    0.5144  -63.8821 N   0  0  0  0  0  0
   35.6149    0.8160  -61.4952 C   0  0  0  0  0  0
   35.2269   -0.5503  -61.4540 O   0  0  0  0  0  0
   36.3151   -1.3933  -61.7638 C   0  0  0  0  0  0
   34.5677    1.6904  -60.7705 C   0  0  0  0  0  0
   33.2868    1.4250  -61.3212 O   0  0  0  0  0  0
   32.2709    1.9451  -60.4912 C   0  0  0  0  0  0
   36.2659    4.2534  -64.1956 H   0  0  0  0  0  0
   34.0678    0.2518  -63.3715 H   0  0  0  0  0  0
   35.4126   -0.3739  -64.1691 H   0  0  0  0  0  0
  1  2  1  0  0  0
  2  3  1  0  0  0
  3  4  1  0  0  0
  4  5  1  0  0  0
  5  6  1  0  0  0
  6  7  1  0  0  0
  6  8  1  0  0  0
  7 16  1  0  0  0
  8  9  1  0  0  0
  8 10  1  0  0  0
  9 17  1  0  0  0
  9 18  1  0  0  0
 10 11  1  0  0  0
 10 13  1  0  0  0
 11 12  1  0  0  0
 13 14  1  0  0  0
 13  4  1  0  0  0
 14 15  1  0  0  0
M  END
>  <CHROM.0>
-178.57413571,-59.20251305,60.63198568

>  <CHROM.1>
-169.96133758,162.83948524,-58.75497572,-94.15193983,73.22021413,-73.09931060
35.00341172,2.06324111,-61.35957095,2.05990627,1.07278732,0.41799020

>  <Energy>
43.872285684013576

>  <Genealogy>
COC[C@H]1O[C@@H](O)[C@H](N)[C@H](OC)[C@@H]1OC (3D coordinates assigned)
COC[C@H]1O[C@@H](O)[C@H](N)[C@H](OC)[C@@H]1OC (nonaromatic ring conformer: 43.872285684013576 kcal/mol)

>  <Name>
ZINC000396869768

>  <RI>
1.63646e+07

>  <Rbt.Current_Directory>
/home/edward/Documentos/Virtual_Screening/rDock/N-terminal/3

>  <Rbt.Executable>
rbdock ($Id: //depot/dev/client3/rdock/2013.1/src/exe/rbdock.cxx#4 $)

>  <Rbt.Library>
libRbt.so (2013.1, Build901 2013/11/27)

>  <Rbt.Parameter_File>
/home/edward/anaconda3/envs/MD/share/rdock-2013.1-1/data/scripts/dock.prm

>  <Rbt.Receptor>
parameters.prm

>  <SCORE>
-18.5102

>  <SCORE.INTER>
-17.0184

>  <SCORE.INTER.CONST>
1

>  <SCORE.INTER.POLAR>
-3.37869

>  <SCORE.INTER.REPUL>
0

>  <SCORE.INTER.ROT>
5

>  <SCORE.INTER.VDW>
-15.9308

>  <SCORE.INTER.norm>
-1.13456

>  <SCORE.INTRA>
-0.376422

>  <SCORE.INTRA.DIHEDRAL>
-4.8625

>  <SCORE.INTRA.DIHEDRAL.0>
9.4458

>  <SCORE.INTRA.POLAR>
-0.0158972

>  <SCORE.INTRA.POLAR.0>
0

>  <SCORE.INTRA.REPUL>
0

>  <SCORE.INTRA.REPUL.0>
0

>  <SCORE.INTRA.VDW>
2.10888

>  <SCORE.INTRA.VDW.0>
-1.61607

>  <SCORE.INTRA.norm>
-0.0250948

>  <SCORE.RESTR>
0

>  <SCORE.RESTR.CAVITY>
0

>  <SCORE.RESTR.norm>
0

>  <SCORE.SYSTEM>
-1.11536

>  <SCORE.SYSTEM.CONST>
0

>  <SCORE.SYSTEM.DIHEDRAL>
0.015137

>  <SCORE.SYSTEM.REPUL>
0.03609

>  <SCORE.SYSTEM.VDW>
-1.30338

>  <SCORE.SYSTEM.norm>
-0.0743574

>  <SCORE.heavy>
15

>  <SCORE.norm>
-1.23401

>  <SMILES>
COC[C@H]1O[C@@H](O)[C@H](N)[C@H](OC)[C@@H]1OC

>  <UniqueID>
447

$$$$
ZINC000575124622
  rDOCK(R)          3D
libRbt.so/2013.1/901 2013/11/27
 25 27  0  0  0  0  0  0  0  0999 V2000
   36.3358    3.7926  -64.2120 H   0  0  0  0  0  0
   35.9718    2.8877  -63.9385 O   0  0  0  0  0  0
   35.5745    2.6368  -62.6255 C   0  0  0  0  0  0
   34.9701    1.5288  -62.3164 N   0  0  0  0  0  0
   34.6251    0.4790  -63.2782 C   0  0  0  0  0  0
   33.1023    0.4569  -63.5372 C   0  0  0  0  0  0
   32.4103    0.4161  -62.3129 O   0  0  0  0  0  0
   32.7296    1.1863  -61.7739 H   0  0  0  0  0  0
   32.7510   -0.7695  -64.3940 C   0  0  0  0  0  0
   31.3473   -0.8794  -64.5491 O   0  0  0  0  0  0
   30.9499   -2.1502  -65.0644 C   0  0  0  0  0  0
   29.9120   -1.9296  -66.1319 C   0  0  0  0  0  0
   28.5462   -1.8566  -65.8050 C   0  0  0  0  0  0
   27.5913   -1.6586  -66.8074 C   0  0  0  0  0  0
   27.9899   -1.5345  -68.1410 C   0  0  0  0  0  0
   29.3445   -1.6091  -68.4754 C   0  0  0  0  0  0
   30.3030   -1.8075  -67.4770 C   0  0  0  0  0  0
   32.0237   -2.8920  -65.6290 O   0  0  0  0  0  0
   32.9562   -3.2424  -64.6220 C   0  0  0  0  0  0
   33.3403   -2.0351  -63.7472 C   0  0  0  0  0  0
   34.7494   -1.9251  -63.6471 O   0  0  0  0  0  0
   35.0996   -0.8889  -62.7389 C   0  0  0  0  0  0
   36.5082   -0.8477  -62.6075 O   0  0  0  0  0  0
   36.9644   -1.9865  -61.9100 C   0  0  0  0  0  0
   35.8786    3.6336  -61.5542 C   0  0  0  0  0  0
  1  2  1  0  0  0
  2  3  1  0  0  0
  3  4  2  0  0  0
  3 25  1  0  0  0
  4  5  1  0  0  0
  5  6  1  0  0  0
  6  7  1  0  0  0
  6  9  1  0  0  0
  7  8  1  0  0  0
  9 10  1  0  0  0
 10 11  1  0  0  0
 11 12  1  0  0  0
 11 18  1  0  0  0
 12 13  2  0  0  0
 13 14  1  0  0  0
 14 15  2  0  0  0
 15 16  1  0  0  0
 16 17  2  0  0  0
 17 12  1  0  0  0
 18 19  1  0  0  0
 19 20  1  0  0  0
 20 21  1  0  0  0
 20  9  1  0  0  0
 21 22  1  0  0  0
 22 23  1  0  0  0
 22  5  1  0  0  0
 23 24  1  0  0  0
M  END
>  <CHROM.0>
-176.96514657,63.22136850,-179.62895262

>  <CHROM.1>
172.14659644,-107.46912584,54.83428829,-88.41680140,170.13843142,32.86068114
-0.65486093,-64.32258430,0.42012359,-0.55618214,0.10766771

>  <Energy>
58.056338294175724

>  <Genealogy>
CO[C@@H]1O[C@@H]2CO[C@H](c3ccccc3)O[C@H]2[C@@H](O)[C@H]1N=C(C)O (tautomer)
CO[C@@H]1O[C@@H]2CO[C@H](c3ccccc3)O[C@H]2[C@@H](O)[C@H]1/N=C(\C)O (cis-trans isomerization)
CO[C@@H]1O[C@@H]2CO[C@H](c3ccccc3)O[C@H]2[C@@H](O)[C@H]1/N=C(\C)O (3D coordinates assigned)
CO[C@@H]1O[C@@H]2CO[C@H](c3ccccc3)O[C@H]2[C@@H](O)[C@H]1/N=C(\C)O (nonaromatic ring conformer: 58.056338294175724 kcal/mol)

>  <Name>
ZINC000575124622

>  <RI>
1.63646e+07

>  <Rbt.Current_Directory>
/home/edward/Documentos/Virtual_Screening/rDock/N-terminal/3

>  <Rbt.Executable>
rbdock ($Id: //depot/dev/client3/rdock/2013.1/src/exe/rbdock.cxx#4 $)

>  <Rbt.Library>
libRbt.so (2013.1, Build901 2013/11/27)

>  <Rbt.Parameter_File>
/home/edward/anaconda3/envs/MD/share/rdock-2013.1-1/data/scripts/dock.prm

>  <Rbt.Receptor>
parameters.prm

>  <SCORE>
-16.4325

>  <SCORE.INTER>
-14.5594

>  <SCORE.INTER.CONST>
1

>  <SCORE.INTER.POLAR>
-2.22694

>  <SCORE.INTER.REPUL>
0.366308

>  <SCORE.INTER.ROT>
3

>  <SCORE.INTER.VDW>
-17.2194

>  <SCORE.INTER.norm>
-0.633019

>  <SCORE.INTRA>
-1.63851

>  <SCORE.INTRA.DIHEDRAL>
-4.04983

>  <SCORE.INTRA.DIHEDRAL.0>
6.14603

>  <SCORE.INTRA.POLAR>
-0.0803772

>  <SCORE.INTRA.POLAR.0>
0

>  <SCORE.INTRA.REPUL>
0

>  <SCORE.INTRA.REPUL.0>
0

>  <SCORE.INTRA.VDW>
0.65969

>  <SCORE.INTRA.VDW.0>
-1.54133

>  <SCORE.INTRA.norm>
-0.0712396

>  <SCORE.RESTR>
0

>  <SCORE.RESTR.CAVITY>
0

>  <SCORE.RESTR.norm>
0

>  <SCORE.SYSTEM>
-0.234522

>  <SCORE.SYSTEM.CONST>
0

>  <SCORE.SYSTEM.DIHEDRAL>
0.0971232

>  <SCORE.SYSTEM.REPUL>
0.171764

>  <SCORE.SYSTEM.VDW>
-1.14191

>  <SCORE.SYSTEM.norm>
-0.0101966

>  <SCORE.heavy>
23

>  <SCORE.norm>
-0.714455

>  <SMILES>
CO[C@@H]1O[C@@H]2CO[C@H](c3ccccc3)O[C@H]2[C@@H](O)[C@H]1/N=C(\C)O

>  <UniqueID>
448

$$$$
ZINC000575124647
  rDOCK(R)          3D
libRbt.so/2013.1/901 2013/11/27
 22 22  0  0  0  0  0  0  0  0999 V2000
   33.0467   -2.3564  -64.9133 H   0  0  0  0  0  0
   32.2541   -1.8224  -64.5779 O   0  0  0  0  0  0
   32.4196   -0.6473  -63.8489 C   0  0  0  0  0  0
   33.6317   -0.2463  -63.5918 N   0  0  0  0  0  0
   34.0204    0.9649  -62.8609 C   0  0  0  0  0  0
   35.2482    1.6304  -63.5216 C   0  0  0  0  0  0
   36.2811    0.6912  -63.7002 O   0  0  0  0  0  0
   35.8820   -0.0977  -64.1517 H   0  0  0  0  0  0
   35.7496    2.7868  -62.6413 C   0  0  0  0  0  0
   36.9639    3.2695  -63.1602 O   0  0  0  0  0  0
   36.7479    4.0510  -63.7330 H   0  0  0  0  0  0
   35.9375    2.2953  -61.1841 C   0  0  0  0  0  0
   36.3895    3.4263  -60.2487 C   0  0  0  0  0  0
   37.6919    3.8471  -60.5598 O   0  0  0  0  0  0
   38.3027    3.1061  -60.3090 H   0  0  0  0  0  0
   34.7224    1.7612  -60.6858 O   0  0  0  0  0  0
   34.3489    0.5955  -61.4014 C   0  0  0  0  0  0
   33.1760    0.0622  -60.8075 O   0  0  0  0  0  0
   33.0883   -1.3434  -60.9699 C   0  0  0  0  0  0
   31.7858   -1.9217  -60.3961 C   0  0  0  0  0  0
   31.6467   -1.6459  -58.9006 C   0  0  0  0  0  0
   31.2056    0.0988  -63.3650 C   0  0  0  0  0  0
  1  2  1  0  0  0
  2  3  1  0  0  0
  3  4  2  0  0  0
  3 22  1  0  0  0
  4  5  1  0  0  0
  5  6  1  0  0  0
  6  7  1  0  0  0
  6  9  1  0  0  0
  7  8  1  0  0  0
  9 10  1  0  0  0
  9 12  1  0  0  0
 10 11  1  0  0  0
 12 13  1  0  0  0
 12 16  1  0  0  0
 13 14  1  0  0  0
 14 15  1  0  0  0
 16 17  1  0  0  0
 17 18  1  0  0  0
 17  5  1  0  0  0
 18 19  1  0  0  0
 19 20  1  0  0  0
 20 21  1  0  0  0
M  END
>  <CHROM.0>
73.28080365,64.42251487,-176.22909115

>  <CHROM.1>
-0.58292876,-140.29556223,50.49532819,95.96261369,-67.89561268,-69.05140039
89.95899437,-176.95058589,-59.91817178,34.29877277,0.77921674,-62.02611169
-3.04346617,0.74673497,1.49056513

>  <Energy>
34.98611397761327

>  <Genealogy>
CCCO[C@@H]1O[C@H](CO)[C@@H](O)[C@@H](O)[C@H]1N=C(C)O (tautomer)
CCCO[C@@H]1O[C@H](CO)[C@@H](O)[C@@H](O)[C@H]1/N=C(/C)O (cis-trans isomerization)
CCCO[C@@H]1O[C@H](CO)[C@@H](O)[C@@H](O)[C@H]1/N=C(/C)O (3D coordinates assigned)
CCCO[C@@H]1O[C@H](CO)[C@@H](O)[C@@H](O)[C@H]1/N=C(/C)O (nonaromatic ring conformer: 34.98611397761327 kcal/mol)

>  <Name>
ZINC000575124647

>  <RI>
1.63646e+07

>  <Rbt.Current_Directory>
/home/edward/Documentos/Virtual_Screening/rDock/N-terminal/3

>  <Rbt.Executable>
rbdock ($Id: //depot/dev/client3/rdock/2013.1/src/exe/rbdock.cxx#4 $)

>  <Rbt.Library>
libRbt.so (2013.1, Build901 2013/11/27)

>  <Rbt.Parameter_File>
/home/edward/anaconda3/envs/MD/share/rdock-2013.1-1/data/scripts/dock.prm

>  <Rbt.Receptor>
parameters.prm

>  <SCORE>
-22.0315

>  <SCORE.INTER>
-18.9668

>  <SCORE.INTER.CONST>
1

>  <SCORE.INTER.POLAR>
-4.05683

>  <SCORE.INTER.REPUL>
0.230549

>  <SCORE.INTER.ROT>
5

>  <SCORE.INTER.VDW>
-16.7264

>  <SCORE.INTER.norm>
-1.05371

>  <SCORE.INTRA>
-3.91666

>  <SCORE.INTRA.DIHEDRAL>
-7.90942

>  <SCORE.INTRA.DIHEDRAL.0>
17.9338

>  <SCORE.INTRA.POLAR>
-0.120286

>  <SCORE.INTRA.POLAR.0>
0

>  <SCORE.INTRA.REPUL>
0

>  <SCORE.INTRA.REPUL.0>
0

>  <SCORE.INTRA.VDW>
0.447021

>  <SCORE.INTRA.VDW.0>
-1.92042

>  <SCORE.INTRA.norm>
-0.217592

>  <SCORE.RESTR>
0

>  <SCORE.RESTR.CAVITY>
0

>  <SCORE.RESTR.norm>
0

>  <SCORE.SYSTEM>
0.852035

>  <SCORE.SYSTEM.CONST>
0

>  <SCORE.SYSTEM.DIHEDRAL>
1.00192

>  <SCORE.SYSTEM.POLAR>
-0.0154578

>  <SCORE.SYSTEM.REPUL>
0.149246

>  <SCORE.SYSTEM.VDW>
-0.342599

>  <SCORE.SYSTEM.norm>
0.0473353

>  <SCORE.heavy>
18

>  <SCORE.norm>
-1.22397

>  <SMILES>
CCCO[C@@H]1O[C@H](CO)[C@@H](O)[C@@H](O)[C@H]1/N=C(/C)O

>  <UniqueID>
453

$$$$
ZINC000616582453
  rDOCK(R)          3D
libRbt.so/2013.1/901 2013/11/27
 25 25  0  0  0  0  0  0  0  0999 V2000
   28.9008   -4.8556  -62.4476 C   0  0  0  0  0  0
   30.2900   -4.3528  -62.0655 C   0  0  0  0  0  0
   30.2133   -3.3131  -60.9414 C   0  0  0  0  0  0
   31.5754   -2.6381  -60.7257 C   0  0  0  0  0  0
   31.4661   -1.3086  -59.9586 C   0  0  0  0  0  0
   32.5952   -0.3165  -60.2770 C   0  0  0  0  0  0
   32.5947    0.0289  -61.6506 O   0  0  0  0  0  0
   33.8087    0.6543  -62.0229 C   0  0  0  0  0  0
   33.7724    2.0069  -61.5981 O   0  0  0  0  0  0
   35.0044    2.6552  -61.8680 C   0  0  0  0  0  0
   34.9532    4.0489  -61.2268 C   0  0  0  0  0  0
   33.7701    4.7097  -61.5829 O   0  0  0  0  0  0
   35.2342    2.7440  -63.3979 C   0  0  0  0  0  0
   36.4705    3.3536  -63.6693 O   0  0  0  0  0  0
   35.1993    1.3355  -64.0199 C   0  0  0  0  0  0
   36.3526    0.6247  -63.6391 O   0  0  0  0  0  0
   33.9302    0.5903  -63.5589 C   0  0  0  0  0  0
   33.9557   -0.8032  -64.0177 N   0  0  0  0  0  0
   32.7674   -1.5973  -64.1280 C   0  0  0  0  0  0
   32.8601   -3.0109  -64.6018 C   0  0  0  0  0  0
   31.6420   -1.1089  -63.8371 O   0  0  0  0  0  0
   33.9656    5.6803  -61.5156 H   0  0  0  0  0  0
   36.3722    4.3145  -63.4397 H   0  0  0  0  0  0
   36.3489   -0.2289  -64.1460 H   0  0  0  0  0  0
   34.8690   -1.2430  -64.2742 H   0  0  0  0  0  0
  1  2  1  0  0  0
  2  3  1  0  0  0
  3  4  1  0  0  0
  4  5  1  0  0  0
  5  6  1  0  0  0
  6  7  1  0  0  0
  7  8  1  0  0  0
  8  9  1  0  0  0
  9 10  1  0  0  0
 10 11  1  0  0  0
 10 13  1  0  0  0
 11 12  1  0  0  0
 12 22  1  0  0  0
 13 14  1  0  0  0
 13 15  1  0  0  0
 14 23  1  0  0  0
 15 16  1  0  0  0
 15 17  1  0  0  0
 16 24  1  0  0  0
 17 18  1  0  0  0
 17  8  1  0  0  0
 18 19  1  0  0  0
 18 25  1  0  0  0
 19 20  1  0  0  0
 19 21  2  0  0  0
M  END
>  <CHROM.0>
-175.24232523,-60.71453153,55.64067657

>  <CHROM.1>
-170.33241714,161.50376965,-152.83489486,60.80765808,-164.94418443,-78.61952429
-49.66871935,-154.55824500,-71.35893192,-173.14736416,78.73004919,33.23478973
0.02314667,-62.44743584,-2.54281216,0.79804722,0.72347877

>  <Energy>
32.86678784132937

>  <Genealogy>
CCCCCCO[C@@H]1O[C@H](CO)[C@@H](O)[C@@H](O)[C@H]1NC(C)=O (3D coordinates assigned)
CCCCCCO[C@@H]1O[C@H](CO)[C@@H](O)[C@@H](O)[C@H]1NC(C)=O (nonaromatic ring conformer: 32.86678784132937 kcal/mol)

>  <Name>
ZINC000616582453

>  <RI>
1.63646e+07

>  <Rbt.Current_Directory>
/home/edward/Documentos/Virtual_Screening/rDock/N-terminal/3

>  <Rbt.Executable>
rbdock ($Id: //depot/dev/client3/rdock/2013.1/src/exe/rbdock.cxx#4 $)

>  <Rbt.Library>
libRbt.so (2013.1, Build901 2013/11/27)

>  <Rbt.Parameter_File>
/home/edward/anaconda3/envs/MD/share/rdock-2013.1-1/data/scripts/dock.prm

>  <Rbt.Receptor>
parameters.prm

>  <SCORE>
-21.4061

>  <SCORE.INTER>
-20.1045

>  <SCORE.INTER.CONST>
1

>  <SCORE.INTER.POLAR>
-4.85794

>  <SCORE.INTER.REPUL>
0

>  <SCORE.INTER.ROT>
8

>  <SCORE.INTER.VDW>
-16.9875

>  <SCORE.INTER.norm>
-0.957359

>  <SCORE.INTRA>
-0.257501

>  <SCORE.INTRA.DIHEDRAL>
-0.411724

>  <SCORE.INTRA.DIHEDRAL.0>
12.5523

>  <SCORE.INTRA.POLAR>
0

>  <SCORE.INTRA.POLAR.0>
0

>  <SCORE.INTRA.REPUL>
0

>  <SCORE.INTRA.REPUL.0>
0

>  <SCORE.INTRA.VDW>
-0.0516394

>  <SCORE.INTRA.VDW.0>
-2.42814

>  <SCORE.INTRA.norm>
-0.012262

>  <SCORE.RESTR>
0

>  <SCORE.RESTR.CAVITY>
0

>  <SCORE.RESTR.norm>
0

>  <SCORE.SYSTEM>
-1.0441

>  <SCORE.SYSTEM.CONST>
0

>  <SCORE.SYSTEM.DIHEDRAL>
0.207017

>  <SCORE.SYSTEM.REPUL>
0.0268492

>  <SCORE.SYSTEM.VDW>
-1.28186

>  <SCORE.SYSTEM.norm>
-0.0497192

>  <SCORE.heavy>
21

>  <SCORE.norm>
-1.01934

>  <SMILES>
CCCCCCO[C@@H]1O[C@H](CO)[C@@H](O)[C@@H](O)[C@H]1NC(C)=O

>  <UniqueID>
454

$$$$
ZINC000616582683
  rDOCK(R)          3D
libRbt.so/2013.1/901 2013/11/27
 22 22  0  0  0  0  0  0  0  0999 V2000
   32.0598    1.0390  -63.6084 H   0  0  0  0  0  0
   31.8982    0.0644  -63.8318 O   0  0  0  0  0  0
   32.8477   -0.9117  -63.5314 C   0  0  0  0  0  0
   33.9572   -0.5953  -62.9337 N   0  0  0  0  0  0
   34.3198    0.7644  -62.5272 C   0  0  0  0  0  0
   35.1341    0.7130  -61.2187 C   0  0  0  0  0  0
   36.2550   -0.1456  -61.3662 O   0  0  0  0  0  0
   35.8372   -1.4940  -61.4113 C   0  0  0  0  0  0
   36.7980   -2.2787  -62.2525 C   0  0  0  0  0  0
   37.8643   -1.7011  -62.8127 C   0  0  0  0  0  0
   35.5253    2.0185  -60.8135 O   0  0  0  0  0  0
   36.3685    2.6370  -61.7741 C   0  0  0  0  0  0
   36.8675    3.9703  -61.1968 C   0  0  0  0  0  0
   37.6235    3.7637  -60.0324 O   0  0  0  0  0  0
   38.3967    3.1956  -60.2869 H   0  0  0  0  0  0
   35.6198    2.8393  -63.1123 C   0  0  0  0  0  0
   36.4753    3.4319  -64.0562 O   0  0  0  0  0  0
   36.7062    4.3323  -63.7072 H   0  0  0  0  0  0
   35.1125    1.4861  -63.6387 C   0  0  0  0  0  0
   36.2021    0.7037  -64.0634 O   0  0  0  0  0  0
   35.8481   -0.2011  -64.2675 H   0  0  0  0  0  0
   32.6025   -2.3329  -63.9237 C   0  0  0  0  0  0
  1  2  1  0  0  0
  2  3  1  0  0  0
  3  4  2  0  0  0
  3 22  1  0  0  0
  4  5  1  0  0  0
  5  6  1  0  0  0
  6  7  1  0  0  0
  6 11  1  0  0  0
  7  8  1  0  0  0
  8  9  1  0  0  0
  9 10  2  0  0  0
 11 12  1  0  0  0
 12 13  1  0  0  0
 12 16  1  0  0  0
 13 14  1  0  0  0
 14 15  1  0  0  0
 16 17  1  0  0  0
 16 19  1  0  0  0
 17 18  1  0  0  0
 19 20  1  0  0  0
 19  5  1  0  0  0
 20 21  1  0  0  0
M  END
>  <CHROM.0>
-174.54548297,-174.27021330,-59.58397997

>  <CHROM.1>
1.22121381,145.90659052,-71.92789799,149.99639842,0.85695013,61.74005611
60.14741087,-63.86201748,50.80868188,35.42853085,0.77518074,-62.47320787
2.25419060,0.52380846,-3.13886251

>  <Energy>
30.673858364256294

>  <Genealogy>
C=CCO[C@H]1O[C@H](CO)[C@@H](O)[C@@H](O)[C@H]1N=C(C)O (tautomer)
C=CCO[C@H]1O[C@H](CO)[C@@H](O)[C@@H](O)[C@H]1/N=C(/C)O (cis-trans isomerization)
C=CCO[C@H]1O[C@H](CO)[C@@H](O)[C@@H](O)[C@H]1/N=C(/C)O (3D coordinates assigned)
C=CCO[C@H]1O[C@H](CO)[C@@H](O)[C@@H](O)[C@H]1/N=C(/C)O (nonaromatic ring conformer: 30.673858364256294 kcal/mol)

>  <Name>
ZINC000616582683

>  <RI>
1.63646e+07

>  <Rbt.Current_Directory>
/home/edward/Documentos/Virtual_Screening/rDock/N-terminal/3

>  <Rbt.Executable>
rbdock ($Id: //depot/dev/client3/rdock/2013.1/src/exe/rbdock.cxx#4 $)

>  <Rbt.Library>
libRbt.so (2013.1, Build901 2013/11/27)

>  <Rbt.Parameter_File>
/home/edward/anaconda3/envs/MD/share/rdock-2013.1-1/data/scripts/dock.prm

>  <Rbt.Receptor>
parameters.prm

>  <SCORE>
-22.4686

>  <SCORE.INTER>
-21.3075

>  <SCORE.INTER.CONST>
1

>  <SCORE.INTER.POLAR>
-4.86269

>  <SCORE.INTER.REPUL>
0.212576

>  <SCORE.INTER.ROT>
5

>  <SCORE.INTER.VDW>
-16.2372

>  <SCORE.INTER.norm>
-1.18375

>  <SCORE.INTRA>
-0.810064

>  <SCORE.INTRA.DIHEDRAL>
-8.18106

>  <SCORE.INTRA.DIHEDRAL.0>
13.9875

>  <SCORE.INTRA.POLAR>
-0.0621352

>  <SCORE.INTRA.POLAR.0>
0

>  <SCORE.INTRA.REPUL>
0

>  <SCORE.INTRA.REPUL.0>
0

>  <SCORE.INTRA.VDW>
3.49173

>  <SCORE.INTRA.VDW.0>
-2.08766

>  <SCORE.INTRA.norm>
-0.0450035

>  <SCORE.RESTR>
0

>  <SCORE.RESTR.CAVITY>
0

>  <SCORE.RESTR.norm>
0

>  <SCORE.SYSTEM>
-0.351054

>  <SCORE.SYSTEM.CONST>
0

>  <SCORE.SYSTEM.DIHEDRAL>
0.307478

>  <SCORE.SYSTEM.REPUL>
0.0730156

>  <SCORE.SYSTEM.VDW>
-0.869871

>  <SCORE.SYSTEM.norm>
-0.019503

>  <SCORE.heavy>
18

>  <SCORE.norm>
-1.24826

>  <SMILES>
C=CCO[C@H]1O[C@H](CO)[C@@H](O)[C@@H](O)[C@H]1/N=C(/C)O

>  <UniqueID>
457

$$$$
ZINC000616582813
  rDOCK(R)          3D
libRbt.so/2013.1/901 2013/11/27
 21 21  0  0  0  0  0  0  0  0999 V2000
   31.3498   -0.4497  -59.6627 C   0  0  0  0  0  0
   32.6949    0.1245  -60.0776 C   0  0  0  0  0  0
   32.7008    0.3279  -61.4751 O   0  0  0  0  0  0
   33.9498    0.8356  -61.9166 C   0  0  0  0  0  0
   34.0826    2.1530  -61.4101 O   0  0  0  0  0  0
   35.3405    2.7128  -61.7558 C   0  0  0  0  0  0
   35.4714    4.0598  -61.0315 C   0  0  0  0  0  0
   35.5563    3.8650  -59.6466 O   0  0  0  0  0  0
   35.4436    2.8810  -63.2944 C   0  0  0  0  0  0
   36.7003    3.3976  -63.6566 O   0  0  0  0  0  0
   35.2376    1.5189  -63.9825 C   0  0  0  0  0  0
   36.3369    0.6768  -63.7302 O   0  0  0  0  0  0
   33.9431    0.8689  -63.4593 C   0  0  0  0  0  0
   33.7901   -0.4871  -63.9995 N   0  0  0  0  0  0
   32.5225   -1.1568  -64.0641 C   0  0  0  0  0  0
   32.4624   -2.6007  -64.4414 C   0  0  0  0  0  0
   31.4594   -0.5492  -63.7642 O   0  0  0  0  0  0
   36.3895    3.3486  -59.4915 H   0  0  0  0  0  0
   36.6853    4.3713  -63.4637 H   0  0  0  0  0  0
   36.1622   -0.1790  -64.2020 H   0  0  0  0  0  0
   34.6490   -1.0551  -64.1793 H   0  0  0  0  0  0
  1  2  1  0  0  0
  2  3  1  0  0  0
  3  4  1  0  0  0
  4  5  1  0  0  0
  5  6  1  0  0  0
  6  7  1  0  0  0
  6  9  1  0  0  0
  7  8  1  0  0  0
  8 18  1  0  0  0
  9 10  1  0  0  0
  9 11  1  0  0  0
 10 19  1  0  0  0
 11 12  1  0  0  0
 11 13  1  0  0  0
 12 20  1  0  0  0
 13 14  1  0  0  0
 13  4  1  0  0  0
 14 15  1  0  0  0
 14 21  1  0  0  0
 15 16  1  0  0  0
 15 17  2  0  0  0
M  END
>  <CHROM.0>
-177.33112594,-61.94404173,178.36055161

>  <CHROM.1>
-178.64740888,-68.20213358,66.95535935,63.02469898,-77.54087381,-179.28587862
79.09061848,34.09217578,1.08868654,-62.40716392,2.51113605,-0.72965263,-2.11143200

>  <Energy>
30.314055542279814

>  <Genealogy>
CCO[C@@H]1O[C@H](CO)[C@@H](O)[C@@H](O)[C@H]1NC(C)=O (3D coordinates assigned)
CCO[C@@H]1O[C@H](CO)[C@@H](O)[C@@H](O)[C@H]1NC(C)=O (nonaromatic ring conformer: 30.314055542279814 kcal/mol)

>  <Name>
ZINC000616582813

>  <RI>
1.63646e+07

>  <Rbt.Current_Directory>
/home/edward/Documentos/Virtual_Screening/rDock/N-terminal/3

>  <Rbt.Executable>
rbdock ($Id: //depot/dev/client3/rdock/2013.1/src/exe/rbdock.cxx#4 $)

>  <Rbt.Library>
libRbt.so (2013.1, Build901 2013/11/27)

>  <Rbt.Parameter_File>
/home/edward/anaconda3/envs/MD/share/rdock-2013.1-1/data/scripts/dock.prm

>  <Rbt.Receptor>
parameters.prm

>  <SCORE>
-25.1651

>  <SCORE.INTER>
-20.0668

>  <SCORE.INTER.CONST>
1

>  <SCORE.INTER.POLAR>
-4.30402

>  <SCORE.INTER.REPUL>
0.00580704

>  <SCORE.INTER.ROT>
4

>  <SCORE.INTER.VDW>
-14.8622

>  <SCORE.INTER.norm>
-1.1804

>  <SCORE.INTRA>
-4.05643

>  <SCORE.INTRA.DIHEDRAL>
-13.3379

>  <SCORE.INTRA.DIHEDRAL.0>
16.1737

>  <SCORE.INTRA.POLAR>
0

>  <SCORE.INTRA.POLAR.0>
0

>  <SCORE.INTRA.REPUL>
0

>  <SCORE.INTRA.REPUL.0>
0

>  <SCORE.INTRA.VDW>
2.61252

>  <SCORE.INTRA.VDW.0>
-2.9346

>  <SCORE.INTRA.norm>
-0.238614

>  <SCORE.RESTR>
0

>  <SCORE.RESTR.CAVITY>
0

>  <SCORE.RESTR.norm>
0

>  <SCORE.SYSTEM>
-1.04184

>  <SCORE.SYSTEM.CONST>
0

>  <SCORE.SYSTEM.DIHEDRAL>
0.0669825

>  <SCORE.SYSTEM.REPUL>
0.0326694

>  <SCORE.SYSTEM.VDW>
-1.23868

>  <SCORE.SYSTEM.norm>
-0.0612847

>  <SCORE.heavy>
17

>  <SCORE.norm>
-1.4803

>  <SMILES>
CCO[C@@H]1O[C@H](CO)[C@@H](O)[C@@H](O)[C@H]1NC(C)=O

>  <UniqueID>
461

$$$$
ZINC000616582904
  rDOCK(R)          3D
libRbt.so/2013.1/901 2013/11/27
 22 22  0  0  0  0  0  0  0  0999 V2000
   30.5048   -1.5129  -59.2829 C   0  0  0  0  0  0
   31.4446   -0.8462  -59.6368 C   0  0  0  0  0  0
   32.5883   -0.0311  -60.0625 C   0  0  0  0  0  0
   32.6409    0.0268  -61.4743 O   0  0  0  0  0  0
   33.8406    0.6382  -61.9136 C   0  0  0  0  0  0
   33.8490    1.9892  -61.4782 O   0  0  0  0  0  0
   35.0682    2.6253  -61.8265 C   0  0  0  0  0  0
   35.0912    4.0194  -61.1874 C   0  0  0  0  0  0
   33.8825    4.6877  -61.4260 O   0  0  0  0  0  0
   35.2111    2.7061  -63.3709 C   0  0  0  0  0  0
   36.3984    3.3556  -63.7575 O   0  0  0  0  0  0
   35.1310    1.2971  -63.9892 C   0  0  0  0  0  0
   36.2920    0.5696  -63.6657 O   0  0  0  0  0  0
   33.8755    0.5779  -63.4538 C   0  0  0  0  0  0
   33.8449   -0.8189  -63.9039 N   0  0  0  0  0  0
   32.6334   -1.5816  -64.0004 C   0  0  0  0  0  0
   32.6975   -3.0385  -64.3244 C   0  0  0  0  0  0
   31.5146   -1.0412  -63.7867 O   0  0  0  0  0  0
   34.0908    5.6569  -61.3821 H   0  0  0  0  0  0
   36.3227    4.3111  -63.4993 H   0  0  0  0  0  0
   36.2116   -0.3200  -64.0990 H   0  0  0  0  0  0
   34.7505   -1.3289  -64.0157 H   0  0  0  0  0  0
  1  2  3  0  0  0
  2  3  1  0  0  0
  3  4  1  0  0  0
  4  5  1  0  0  0
  5  6  1  0  0  0
  6  7  1  0  0  0
  7  8  1  0  0  0
  7 10  1  0  0  0
  8  9  1  0  0  0
  9 19  1  0  0  0
 10 11  1  0  0  0
 10 12  1  0  0  0
 11 20  1  0  0  0
 12 13  1  0  0  0
 12 14  1  0  0  0
 13 21  1  0  0  0
 14 15  1  0  0  0
 14  5  1  0  0  0
 15 16  1  0  0  0
 15 22  1  0  0  0
 16 17  1  0  0  0
 16 18  2  0  0  0
M  END
>  <CHROM.0>
-173.47482736,-60.33608862,-178.71877369

>  <CHROM.1>
-149.80131537,-171.34932304,-64.38948560,-47.79102370,-154.49315640,-67.94430896
-178.64592846,81.40189803,33.75507902,0.82483673,-62.40517056,2.55961344
-0.81611359,-2.40464170

>  <Energy>
30.435826132098807

>  <Genealogy>
C#CCO[C@@H]1O[C@H](CO)[C@@H](O)[C@@H](O)[C@H]1NC(C)=O (3D coordinates assigned)
C#CCO[C@@H]1O[C@H](CO)[C@@H](O)[C@@H](O)[C@H]1NC(C)=O (nonaromatic ring conformer: 30.435826132098807 kcal/mol)

>  <Name>
ZINC000616582904

>  <RI>
1.63646e+07

>  <Rbt.Current_Directory>
/home/edward/Documentos/Virtual_Screening/rDock/N-terminal/3

>  <Rbt.Executable>
rbdock ($Id: //depot/dev/client3/rdock/2013.1/src/exe/rbdock.cxx#4 $)

>  <Rbt.Library>
libRbt.so (2013.1, Build901 2013/11/27)

>  <Rbt.Parameter_File>
/home/edward/anaconda3/envs/MD/share/rdock-2013.1-1/data/scripts/dock.prm

>  <Rbt.Receptor>
parameters.prm

>  <SCORE>
-22.6241

>  <SCORE.INTER>
-20.3689

>  <SCORE.INTER.CONST>
1

>  <SCORE.INTER.POLAR>
-4.7899

>  <SCORE.INTER.REPUL>
0

>  <SCORE.INTER.ROT>
5

>  <SCORE.INTER.VDW>
-14.4832

>  <SCORE.INTER.norm>
-1.1316

>  <SCORE.INTRA>
-1.24615

>  <SCORE.INTRA.DIHEDRAL>
-6.44373

>  <SCORE.INTRA.DIHEDRAL.0>
11.4392

>  <SCORE.INTRA.POLAR>
0

>  <SCORE.INTRA.POLAR.0>
0

>  <SCORE.INTRA.REPUL>
0

>  <SCORE.INTRA.REPUL.0>
0

>  <SCORE.INTRA.VDW>
1.97572

>  <SCORE.INTRA.VDW.0>
-2.57916

>  <SCORE.INTRA.norm>
-0.0692306

>  <SCORE.RESTR>
0

>  <SCORE.RESTR.CAVITY>
0

>  <SCORE.RESTR.norm>
0

>  <SCORE.SYSTEM>
-1.00906

>  <SCORE.SYSTEM.CONST>
0

>  <SCORE.SYSTEM.DIHEDRAL>
0.216733

>  <SCORE.SYSTEM.REPUL>
0.0218592

>  <SCORE.SYSTEM.VDW>
-1.22672

>  <SCORE.SYSTEM.norm>
-0.0560587

>  <SCORE.heavy>
18

>  <SCORE.norm>
-1.25689

>  <SMILES>
C#CCO[C@@H]1O[C@H](CO)[C@@H](O)[C@@H](O)[C@H]1NC(C)=O

>  <UniqueID>
464

$$$$
ZINC000616583702
  rDOCK(R)          3D
libRbt.so/2013.1/901 2013/11/27
 24 24  0  0  0  0  0  0  0  0999 V2000
   31.5733    1.0158  -63.6801 H   0  0  0  0  0  0
   31.4731    0.0409  -63.9356 O   0  0  0  0  0  0
   32.5679   -0.8212  -63.9378 C   0  0  0  0  0  0
   33.7339   -0.4109  -63.5373 N   0  0  0  0  0  0
   34.0179    0.9518  -63.0800 C   0  0  0  0  0  0
   35.2132    1.5499  -63.8485 C   0  0  0  0  0  0
   36.2986    0.6539  -63.8157 O   0  0  0  0  0  0
   35.9853   -0.1899  -64.2345 H   0  0  0  0  0  0
   35.6139    2.9045  -63.2263 C   0  0  0  0  0  0
   36.8116    3.3655  -63.7980 O   0  0  0  0  0  0
   36.8530    4.3439  -63.6254 H   0  0  0  0  0  0
   35.7742    2.7633  -61.6921 C   0  0  0  0  0  0
   36.0705    4.1208  -61.0362 C   0  0  0  0  0  0
   36.1700    3.9803  -59.6456 O   0  0  0  0  0  0
   36.9341    3.3654  -59.4855 H   0  0  0  0  0  0
   34.5784    2.2563  -61.1220 O   0  0  0  0  0  0
   34.3209    0.9361  -61.5710 C   0  0  0  0  0  0
   33.1809    0.4393  -60.8937 O   0  0  0  0  0  0
   33.1371   -0.9709  -60.9778 C   0  0  0  0  0  0
   31.8472   -1.4676  -60.3197 C   0  0  0  0  0  0
   31.4968   -2.9209  -60.6978 C   0  0  0  0  0  0
   30.2009   -3.4573  -60.0618 C   0  0  0  0  0  0
   30.2949   -3.6039  -58.5431 C   0  0  0  0  0  0
   32.3951   -2.2420  -64.3677 C   0  0  0  0  0  0
  1  2  1  0  0  0
  2  3  1  0  0  0
  3  4  2  0  0  0
  3 24  1  0  0  0
  4  5  1  0  0  0
  5  6  1  0  0  0
  6  7  1  0  0  0
  6  9  1  0  0  0
  7  8  1  0  0  0
  9 10  1  0  0  0
  9 12  1  0  0  0
 10 11  1  0  0  0
 12 13  1  0  0  0
 12 16  1  0  0  0
 13 14  1  0  0  0
 14 15  1  0  0  0
 16 17  1  0  0  0
 17 18  1  0  0  0
 17  5  1  0  0  0
 18 19  1  0  0  0
 19 20  1  0  0  0
 20 21  1  0  0  0
 21 22  1  0  0  0
 22 23  1  0  0  0
M  END
>  <CHROM.0>
-74.21350383,65.70870017,-175.57603290

>  <CHROM.1>
3.94776284,-126.95720791,59.16183482,160.05284435,178.12971606,61.76583999
79.44674112,-176.20491548,163.60230109,-179.69999319,-66.66072278,33.79226856
0.44463529,-61.99473676,3.10396856,0.87380797,1.35986441

>  <Energy>
33.09147412749163

>  <Genealogy>
CCCCCO[C@@H]1O[C@H](CO)[C@@H](O)[C@@H](O)[C@H]1N=C(C)O (tautomer)
CCCCCO[C@@H]1O[C@H](CO)[C@@H](O)[C@@H](O)[C@H]1/N=C(\C)O (cis-trans isomerization)
CCCCCO[C@@H]1O[C@H](CO)[C@@H](O)[C@@H](O)[C@H]1/N=C(\C)O (3D coordinates assigned)
CCCCCO[C@@H]1O[C@H](CO)[C@@H](O)[C@@H](O)[C@H]1/N=C(\C)O (nonaromatic ring conformer: 33.09147412749163 kcal/mol)

>  <Name>
ZINC000616583702

>  <RI>
1.63646e+07

>  <Rbt.Current_Directory>
/home/edward/Documentos/Virtual_Screening/rDock/N-terminal/3

>  <Rbt.Executable>
rbdock ($Id: //depot/dev/client3/rdock/2013.1/src/exe/rbdock.cxx#4 $)

>  <Rbt.Library>
libRbt.so (2013.1, Build901 2013/11/27)

>  <Rbt.Parameter_File>
/home/edward/anaconda3/envs/MD/share/rdock-2013.1-1/data/scripts/dock.prm

>  <Rbt.Receptor>
parameters.prm

>  <SCORE>
-19.4938

>  <SCORE.INTER>
-18.871

>  <SCORE.INTER.CONST>
1

>  <SCORE.INTER.POLAR>
-4.19735

>  <SCORE.INTER.REPUL>
0.224919

>  <SCORE.INTER.ROT>
7

>  <SCORE.INTER.VDW>
-18.1246

>  <SCORE.INTER.norm>
-0.943551

>  <SCORE.INTRA>
-1.44381

>  <SCORE.INTRA.DIHEDRAL>
-3.94461

>  <SCORE.INTRA.DIHEDRAL.0>
8.85751

>  <SCORE.INTRA.POLAR>
-0.0500735

>  <SCORE.INTRA.POLAR.0>
0

>  <SCORE.INTRA.REPUL>
0

>  <SCORE.INTRA.REPUL.0>
0

>  <SCORE.INTRA.VDW>
0.698748

>  <SCORE.INTRA.VDW.0>
-1.08214

>  <SCORE.INTRA.norm>
-0.0721903

>  <SCORE.RESTR>
0

>  <SCORE.RESTR.CAVITY>
0

>  <SCORE.RESTR.norm>
0

>  <SCORE.SYSTEM>
0.82099

>  <SCORE.SYSTEM.CONST>
0

>  <SCORE.SYSTEM.DIHEDRAL>
1.20755

>  <SCORE.SYSTEM.REPUL>
0.140108

>  <SCORE.SYSTEM.VDW>
-0.483328

>  <SCORE.SYSTEM.norm>
0.0410495

>  <SCORE.heavy>
20

>  <SCORE.norm>
-0.974692

>  <SMILES>
CCCCCO[C@@H]1O[C@H](CO)[C@@H](O)[C@@H](O)[C@H]1/N=C(\C)O

>  <UniqueID>
467

$$$$
ZINC000616583781
  rDOCK(R)          3D
libRbt.so/2013.1/901 2013/11/27
 23 23  0  0  0  0  0  0  0  0999 V2000
   30.7201   -3.4814  -58.6008 C   0  0  0  0  0  0
   31.5998   -2.2402  -58.7461 C   0  0  0  0  0  0
   31.5820   -1.6494  -60.1662 C   0  0  0  0  0  0
   32.6318   -0.5540  -60.3812 C   0  0  0  0  0  0
   32.6247   -0.1453  -61.7340 O   0  0  0  0  0  0
   33.8363    0.5097  -62.0559 C   0  0  0  0  0  0
   33.7854    1.8381  -61.5601 O   0  0  0  0  0  0
   35.0188    2.5038  -61.7754 C   0  0  0  0  0  0
   34.9619    3.8657  -61.0678 C   0  0  0  0  0  0
   33.8886    4.6259  -61.5543 O   0  0  0  0  0  0
   35.2717    2.6777  -63.2932 C   0  0  0  0  0  0
   36.5155    3.2935  -63.5194 O   0  0  0  0  0  0
   35.2542    1.3068  -63.9894 C   0  0  0  0  0  0
   36.4029    0.5788  -63.6269 O   0  0  0  0  0  0
   33.9788    0.5332  -63.5923 C   0  0  0  0  0  0
   34.0109   -0.8308  -64.1335 N   0  0  0  0  0  0
   32.8192   -1.6003  -64.3438 C   0  0  0  0  0  0
   32.9129   -2.9751  -64.9203 C   0  0  0  0  0  0
   31.6929   -1.1377  -64.0166 O   0  0  0  0  0  0
   34.0706    4.7922  -62.5160 H   0  0  0  0  0  0
   36.3995    4.2635  -63.3427 H   0  0  0  0  0  0
   36.3720   -0.2798  -64.1243 H   0  0  0  0  0  0
   34.9310   -1.2754  -64.3557 H   0  0  0  0  0  0
  1  2  1  0  0  0
  2  3  1  0  0  0
  3  4  1  0  0  0
  4  5  1  0  0  0
  5  6  1  0  0  0
  6  7  1  0  0  0
  7  8  1  0  0  0
  8  9  1  0  0  0
  8 11  1  0  0  0
  9 10  1  0  0  0
 10 20  1  0  0  0
 11 12  1  0  0  0
 11 13  1  0  0  0
 12 21  1  0  0  0
 13 14  1  0  0  0
 13 15  1  0  0  0
 14 22  1  0  0  0
 15 16  1  0  0  0
 15  6  1  0  0  0
 16 17  1  0  0  0
 16 23  1  0  0  0
 17 18  1  0  0  0
 17 19  2  0  0  0
M  END
>  <CHROM.0>
-74.07077589,-63.89271031,179.39031375

>  <CHROM.1>
-170.43070193,175.12958946,-160.59246901,-78.56709603,-58.23645274,-63.21463721
-77.87877118,-177.70544096,80.62808598,33.67960805,0.41259204,-62.27234117
2.87532168,-0.96782079,-2.26362345

>  <Energy>
31.047069334487293

>  <Genealogy>
CCCCO[C@@H]1O[C@H](CO)[C@@H](O)[C@@H](O)[C@H]1NC(C)=O (3D coordinates assigned)
CCCCO[C@@H]1O[C@H](CO)[C@@H](O)[C@@H](O)[C@H]1NC(C)=O (nonaromatic ring conformer: 31.047069334487293 kcal/mol)

>  <Name>
ZINC000616583781

>  <RI>
1.63646e+07

>  <Rbt.Current_Directory>
/home/edward/Documentos/Virtual_Screening/rDock/N-terminal/3

>  <Rbt.Executable>
rbdock ($Id: //depot/dev/client3/rdock/2013.1/src/exe/rbdock.cxx#4 $)

>  <Rbt.Library>
libRbt.so (2013.1, Build901 2013/11/27)

>  <Rbt.Parameter_File>
/home/edward/anaconda3/envs/MD/share/rdock-2013.1-1/data/scripts/dock.prm

>  <Rbt.Receptor>
parameters.prm

>  <SCORE>
-23.0168

>  <SCORE.INTER>
-20.7594

>  <SCORE.INTER.CONST>
1

>  <SCORE.INTER.POLAR>
-4.56857

>  <SCORE.INTER.REPUL>
0

>  <SCORE.INTER.ROT>
6

>  <SCORE.INTER.VDW>
-16.6262

>  <SCORE.INTER.norm>
-1.0926

>  <SCORE.INTRA>
-2.20665

>  <SCORE.INTRA.DIHEDRAL>
-6.16942

>  <SCORE.INTRA.DIHEDRAL.0>
12.6315

>  <SCORE.INTRA.POLAR>
0

>  <SCORE.INTRA.POLAR.0>
0

>  <SCORE.INTRA.REPUL>
0

>  <SCORE.INTRA.REPUL.0>
0

>  <SCORE.INTRA.VDW>
0.878064

>  <SCORE.INTRA.VDW.0>
-1.79036

>  <SCORE.INTRA.norm>
-0.116139

>  <SCORE.RESTR>
0

>  <SCORE.RESTR.CAVITY>
0

>  <SCORE.RESTR.norm>
0

>  <SCORE.SYSTEM>
-0.0507669

>  <SCORE.SYSTEM.CONST>
0

>  <SCORE.SYSTEM.DIHEDRAL>
1.00998

>  <SCORE.SYSTEM.VDW>
-0.555756

>  <SCORE.SYSTEM.norm>
-0.00267194

>  <SCORE.heavy>
19

>  <SCORE.norm>
-1.21141

>  <SMILES>
CCCCO[C@@H]1O[C@H](CO)[C@@H](O)[C@@H](O)[C@H]1NC(C)=O

>  <UniqueID>
469

$$$$
ZINC000616589990
  rDOCK(R)          3D
libRbt.so/2013.1/901 2013/11/27
 20 20  0  0  0  0  0  0  0  0999 V2000
   31.6180   -1.9612  -60.7178 C   0  0  0  0  0  0
   32.9009   -1.3245  -61.2290 C   0  0  0  0  0  0
   32.6640    0.0421  -61.4975 O   0  0  0  0  0  0
   33.8526    0.6670  -61.9445 C   0  0  0  0  0  0
   33.8259    2.0325  -61.5567 O   0  0  0  0  0  0
   35.0374    2.6798  -61.9065 C   0  0  0  0  0  0
   35.0177    4.0701  -61.3425 C   0  0  0  0  0  0
   33.9261    4.6795  -61.1880 O   0  0  0  0  0  0
   36.2101    4.7082  -61.0246 O   0  5  0  0  0  0
   35.1986    2.7319  -63.4411 C   0  0  0  0  0  0
   36.4139    3.3545  -63.7729 O   0  0  0  0  0  0
   35.1577    1.3065  -64.0213 C   0  0  0  0  0  0
   36.3356    0.6225  -63.6664 O   0  0  0  0  0  0
   33.9123    0.5613  -63.4870 C   0  0  0  0  0  0
   33.9024   -0.8416  -63.9256 N   0  3  0  0  0  0
   36.3250    4.3092  -63.5154 H   0  0  0  0  0  0
   36.2735   -0.2883  -64.0564 H   0  0  0  0  0  0
   34.3724   -0.9256  -64.8560 H   0  0  0  0  0  0
   34.4310   -1.4320  -63.2428 H   0  0  0  0  0  0
   32.9235   -1.2006  -64.0078 H   0  0  0  0  0  0
  1  2  1  0  0  0
  2  3  1  0  0  0
  3  4  1  0  0  0
  4  5  1  0  0  0
  5  6  1  0  0  0
  6  7  1  0  0  0
  6 10  1  0  0  0
  7  8  2  0  0  0
  7  9  1  0  0  0
 10 11  1  0  0  0
 10 12  1  0  0  0
 11 16  1  0  0  0
 12 13  1  0  0  0
 12 14  1  0  0  0
 13 17  1  0  0  0
 14 15  1  0  0  0
 14  4  1  0  0  0
 15 18  1  0  0  0
 15 19  1  0  0  0
 15 20  1  0  0  0
M  END
>  <CHROM.0>
70.72198354,-178.79074689,179.46123108

>  <CHROM.1>
178.57616870,-150.11561334,-29.52325026,-68.34429858,-179.98968721,-153.82732204
34.41190857,1.53689798,-62.32788524,2.33466677,-0.80018933,-2.58728434

>  <Energy>
26.983182674807253

>  <Genealogy>
CCO[C@@H]1O[C@H](C(=O)[O-])[C@@H](O)[C@@H](O)[C@H]1[NH3+] (protonated)
CCO[C@@H]1O[C@H](C(=O)[O-])[C@@H](O)[C@@H](O)[C@H]1[NH3+] (3D coordinates assigned)
CCO[C@@H]1O[C@H](C(=O)[O-])[C@@H](O)[C@@H](O)[C@H]1[NH3+] (nonaromatic ring conformer: 26.983182674807253 kcal/mol)

>  <Name>
ZINC000616589990

>  <RI>
1.63646e+07

>  <Rbt.Current_Directory>
/home/edward/Documentos/Virtual_Screening/rDock/N-terminal/3

>  <Rbt.Executable>
rbdock ($Id: //depot/dev/client3/rdock/2013.1/src/exe/rbdock.cxx#4 $)

>  <Rbt.Library>
libRbt.so (2013.1, Build901 2013/11/27)

>  <Rbt.Parameter_File>
/home/edward/anaconda3/envs/MD/share/rdock-2013.1-1/data/scripts/dock.prm

>  <Rbt.Receptor>
parameters.prm

>  <SCORE>
-17.2776

>  <SCORE.INTER>
-18.475

>  <SCORE.INTER.CONST>
1

>  <SCORE.INTER.POLAR>
-3.86888

>  <SCORE.INTER.REPUL>
0

>  <SCORE.INTER.ROT>
3

>  <SCORE.INTER.VDW>
-13.7208

>  <SCORE.INTER.norm>
-1.23167

>  <SCORE.INTRA>
0.613628

>  <SCORE.INTRA.DIHEDRAL>
-1.09071

>  <SCORE.INTRA.DIHEDRAL.0>
7.42868

>  <SCORE.INTRA.POLAR>
0

>  <SCORE.INTRA.POLAR.0>
0

>  <SCORE.INTRA.REPUL>
0

>  <SCORE.INTRA.REPUL.0>
0

>  <SCORE.INTRA.VDW>
1.15898

>  <SCORE.INTRA.VDW.0>
-1.73824

>  <SCORE.INTRA.norm>
0.0409085

>  <SCORE.RESTR>
0

>  <SCORE.RESTR.CAVITY>
0

>  <SCORE.RESTR.norm>
0

>  <SCORE.SYSTEM>
0.583784

>  <SCORE.SYSTEM.CONST>
0

>  <SCORE.SYSTEM.DIHEDRAL>
0.561211

>  <SCORE.SYSTEM.POLAR>
-0.0240017

>  <SCORE.SYSTEM.REPUL>
0.058423

>  <SCORE.SYSTEM.VDW>
0.0926698

>  <SCORE.SYSTEM.norm>
0.038919

>  <SCORE.heavy>
15

>  <SCORE.norm>
-1.15184

>  <SMILES>
CCO[C@@H]1O[C@H](C(=O)[O-])[C@@H](O)[C@@H](O)[C@H]1[NH3+]

>  <UniqueID>
475

$$$$
ZINC000616591357
  rDOCK(R)          3D
libRbt.so/2013.1/901 2013/11/27
 25 27  0  0  0  0  0  0  0  0999 V2000
   35.3247   -0.5374  -64.2965 H   0  0  0  0  0  0
   35.1624    0.0136  -63.4622 O   0  0  0  0  0  0
   35.9664   -0.1337  -62.3323 C   0  0  0  0  0  0
   35.8194    0.6513  -61.3073 N   0  0  0  0  0  0
   34.8350    1.7330  -61.2288 C   0  0  0  0  0  0
   35.5109    3.0544  -60.7943 C   0  0  0  0  0  0
   36.2811    2.8401  -59.6365 O   0  0  0  0  0  0
   36.9204    2.1099  -59.8456 H   0  0  0  0  0  0
   34.4246    4.1084  -60.5328 C   0  0  0  0  0  0
   34.9859    5.2966  -60.0116 O   0  0  0  0  0  0
   33.9571    6.2554  -59.8047 C   0  0  0  0  0  0
   34.5897    7.5280  -59.3067 C   0  0  0  0  0  0
   35.0399    7.6378  -57.9787 C   0  0  0  0  0  0
   35.6268    8.8249  -57.5291 C   0  0  0  0  0  0
   35.7700    9.9095  -58.3983 C   0  0  0  0  0  0
   35.3269    9.8094  -59.7196 C   0  0  0  0  0  0
   34.7395    8.6248  -60.1740 C   0  0  0  0  0  0
   33.0273    5.8068  -58.8280 O   0  0  0  0  0  0
   32.3738    4.6361  -59.2796 C   0  0  0  0  0  0
   33.3977    3.5369  -59.5473 C   0  0  0  0  0  0
   32.7717    2.3959  -60.1026 O   0  0  0  0  0  0
   33.7167    1.3400  -60.2339 C   0  0  0  0  0  0
   33.0595    0.1927  -60.7388 O   0  0  0  0  0  0
   32.1734   -0.3253  -59.7704 C   0  0  0  0  0  0
   37.0263   -1.1873  -62.3068 C   0  0  0  0  0  0
  1  2  1  0  0  0
  2  3  1  0  0  0
  3  4  2  0  0  0
  3 25  1  0  0  0
  4  5  1  0  0  0
  5  6  1  0  0  0
  6  7  1  0  0  0
  6  9  1  0  0  0
  7  8  1  0  0  0
  9 10  1  0  0  0
 10 11  1  0  0  0
 11 12  1  0  0  0
 11 18  1  0  0  0
 12 13  2  0  0  0
 13 14  1  0  0  0
 14 15  2  0  0  0
 15 16  1  0  0  0
 16 17  2  0  0  0
 17 12  1  0  0  0
 18 19  1  0  0  0
 19 20  1  0  0  0
 20 21  1  0  0  0
 20  9  1  0  0  0
 21 22  1  0  0  0
 22 23  1  0  0  0
 22  5  1  0  0  0
 23 24  1  0  0  0
M  END
>  <CHROM.0>
-176.97608169,-60.32270389,-61.09456111

>  <CHROM.1>
174.41633957,-129.31186623,55.83210152,-75.60754501,170.89050165,34.57195486
3.86767770,-60.16988523,-1.58240321,0.42445658,0.31721781

>  <Energy>
50.22793989617

>  <Genealogy>
CO[C@@H]1O[C@@H]2CO[C@@H](c3ccccc3)O[C@H]2[C@@H](O)[C@H]1N=C(C)O (tautomer)
CO[C@@H]1O[C@@H]2CO[C@@H](c3ccccc3)O[C@H]2[C@@H](O)[C@H]1/N=C(/C)O (cis-trans isomerization)
CO[C@@H]1O[C@@H]2CO[C@@H](c3ccccc3)O[C@H]2[C@@H](O)[C@H]1/N=C(/C)O (3D coordinates assigned)
CO[C@@H]1O[C@@H]2CO[C@@H](c3ccccc3)O[C@H]2[C@@H](O)[C@H]1/N=C(/C)O (nonaromatic ring conformer: 50.22793989617 kcal/mol)

>  <Name>
ZINC000616591357

>  <RI>
1.63646e+07

>  <Rbt.Current_Directory>
/home/edward/Documentos/Virtual_Screening/rDock/N-terminal/3

>  <Rbt.Executable>
rbdock ($Id: //depot/dev/client3/rdock/2013.1/src/exe/rbdock.cxx#4 $)

>  <Rbt.Library>
libRbt.so (2013.1, Build901 2013/11/27)

>  <Rbt.Parameter_File>
/home/edward/anaconda3/envs/MD/share/rdock-2013.1-1/data/scripts/dock.prm

>  <Rbt.Receptor>
parameters.prm

>  <SCORE>
-15.9945

>  <SCORE.INTER>
-12.8816

>  <SCORE.INTER.CONST>
1

>  <SCORE.INTER.POLAR>
-1.08717

>  <SCORE.INTER.REPUL>
0.0892718

>  <SCORE.INTER.ROT>
3

>  <SCORE.INTER.VDW>
-18.0316

>  <SCORE.INTER.norm>
-0.56007

>  <SCORE.INTRA>
-2.11762

>  <SCORE.INTRA.DIHEDRAL>
-4.44532

>  <SCORE.INTRA.DIHEDRAL.0>
5.97826

>  <SCORE.INTRA.POLAR>
-0.080077

>  <SCORE.INTRA.POLAR.0>
0

>  <SCORE.INTRA.REPUL>
0

>  <SCORE.INTRA.REPUL.0>
0

>  <SCORE.INTRA.VDW>
0.377302

>  <SCORE.INTRA.VDW.0>
-1.46255

>  <SCORE.INTRA.norm>
-0.0920703

>  <SCORE.RESTR>
0

>  <SCORE.RESTR.CAVITY>
0

>  <SCORE.RESTR.norm>
0

>  <SCORE.SYSTEM>
-0.995218

>  <SCORE.SYSTEM.CONST>
0

>  <SCORE.SYSTEM.DIHEDRAL>
0.0514545

>  <SCORE.SYSTEM.REPUL>
0.0316864

>  <SCORE.SYSTEM.VDW>
-1.17938

>  <SCORE.SYSTEM.norm>
-0.0432703

>  <SCORE.heavy>
23

>  <SCORE.norm>
-0.695411

>  <SMILES>
CO[C@@H]1O[C@@H]2CO[C@@H](c3ccccc3)O[C@H]2[C@@H](O)[C@H]1/N=C(/C)O

>  <UniqueID>
478

$$$$
