REMARK  Name = 24139
REMARK  7 active torsions:
REMARK  status: ('A' for Active; 'I' for Inactive)
REMARK    1  A    between atoms: C_1  and  C_2
REMARK    2  A    between atoms: N_4  and  C_5
REMARK    3  A    between atoms: C_6  and  O_7
REMARK    4  A    between atoms: C_9  and  C_10
REMARK    5  A    between atoms: C_10  and  O_11
REMARK    6  A    between atoms: C_12  and  O_13
REMARK    7  A    between atoms: C_14  and  O_15
REMARK                            x       y       z     vdW  Elec       q    Type
REMARK                         _______ _______ _______ _____ _____    ______ ____
ROOT
ATOM      1  C   UNL     1      -1.120   1.237   1.232  0.00  0.00    +0.000 C 
ATOM      2  C   UNL     1      -0.395  -0.042   1.691  0.00  0.00    +0.000 C 
ATOM      3  O   UNL     1       0.846  -0.170   1.017  0.00  0.00    +0.000 OA
ATOM      4  C   UNL     1       0.640  -0.369  -0.372  0.00  0.00    +0.000 C 
ATOM      5  C   UNL     1      -0.015   0.883  -1.007  0.00  0.00    +0.000 C 
ATOM      6  C   UNL     1      -1.339   1.194  -0.289  0.00  0.00    +0.000 C 
ENDROOT
BRANCH   1  10
ATOM      7  C   UNL     1      -4.295   2.674   2.987  0.00  0.00    +0.000 C 
ATOM      8  C   UNL     1      -2.931   2.612   2.381  0.00  0.00    +0.000 C 
ATOM      9  O   UNL     1      -2.259   3.671   2.254  0.00  0.00    +0.000 OA
ATOM     10  N   UNL     1      -2.410   1.358   1.919  0.00  0.00    +0.000 N 
ATOM     11  H   UNL     1      -3.035   0.520   1.959  0.00  0.00    +0.000 HD
ENDBRANCH   1  10
BRANCH   2  12
ATOM     12  O   UNL     1      -0.154   0.043   3.070  0.00  0.00    +0.000 OA
ATOM     13  H   UNL     1       0.215  -0.837   3.344  0.00  0.00    +0.000 HD
ENDBRANCH   2  12
BRANCH   5  14
ATOM     14  O   UNL     1      -0.277   0.655  -2.369  0.00  0.00    +0.000 OA
ATOM     15  H   UNL     1       0.497   1.008  -2.880  0.00  0.00    +0.000 HD
ENDBRANCH   5  14
BRANCH   6  16
ATOM     16  O   UNL     1      -1.839   2.434  -0.720  0.00  0.00    +0.000 OA
ATOM     17  H   UNL     1      -2.276   2.280  -1.598  0.00  0.00    +0.000 HD
ENDBRANCH   6  16
BRANCH   4  18
ATOM     18  C   UNL     1       1.993  -0.693  -1.021  0.00  0.00    +0.000 C 
BRANCH  18  19
ATOM     19  O   UNL     1       2.889   0.369  -0.840  0.00  0.00    +0.000 OA
ATOM     20  H   UNL     1       3.733   0.095  -1.285  0.00  0.00    +0.000 HD
ENDBRANCH  18  19
ENDBRANCH   4  18
TORSDOF 6
