REMARK  Name = 102416
REMARK  9 active torsions:
REMARK  status: ('A' for Active; 'I' for Inactive)
REMARK    1  A    between atoms: C_1  and  C_2
REMARK    2  A    between atoms: N_4  and  C_5
REMARK    3  A    between atoms: C_6  and  O_7
REMARK    4  A    between atoms: O_7  and  C_8
REMARK    5  A    between atoms: C_11  and  N_12
REMARK    6  A    between atoms: C_18  and  C_19
REMARK    7  A    between atoms: C_19  and  O_20
REMARK    8  A    between atoms: C_21  and  O_22
REMARK    9  A    between atoms: C_23  and  O_24
REMARK                            x       y       z     vdW  Elec       q    Type
REMARK                         _______ _______ _______ _____ _____    ______ ____
ROOT
ATOM      1  C   UNL     1      -0.762  -0.500   2.028  0.00  0.00    +0.000 C 
ATOM      2  C   UNL     1      -0.441   0.040   0.612  0.00  0.00    +0.000 C 
ATOM      3  O   UNL     1      -0.005   1.384   0.693  0.00  0.00    +0.000 OA
ATOM      4  C   UNL     1      -1.100   2.242   0.978  0.00  0.00    +0.000 C 
ATOM      5  C   UNL     1      -1.921   1.770   2.222  0.00  0.00    +0.000 C 
ATOM      6  C   UNL     1      -1.171   0.652   2.984  0.00  0.00    +0.000 C 
ENDROOT
BRANCH   1  10
ATOM      7  C   UNL     1      -2.708  -3.813   1.347  0.00  0.00    +0.000 C 
ATOM      8  C   UNL     1      -1.577  -2.843   1.459  0.00  0.00    +0.000 C 
ATOM      9  O   UNL     1      -0.410  -3.211   1.155  0.00  0.00    +0.000 OA
ATOM     10  N   UNL     1      -1.819  -1.517   1.950  0.00  0.00    +0.000 N 
ATOM     11  H   UNL     1      -2.787  -1.285   2.271  0.00  0.00    +0.000 HD
ENDBRANCH   1  10
BRANCH   5  12
ATOM     12  O   UNL     1      -3.174   1.299   1.794  0.00  0.00    +0.000 OA
ATOM     13  H   UNL     1      -3.756   1.252   2.597  0.00  0.00    +0.000 HD
ENDBRANCH   5  12
BRANCH   6  14
ATOM     14  O   UNL     1      -0.014   1.186   3.579  0.00  0.00    +0.000 OA
ATOM     15  H   UNL     1      -0.310   1.716   4.364  0.00  0.00    +0.000 HD
ENDBRANCH   6  14
BRANCH   2  16
ATOM     16  O   UNL     1       0.596  -0.752   0.033  0.00  0.00    +0.000 OA
BRANCH  16  17
ATOM     17  C   UNL     1       1.056  -0.632  -1.287  0.00  0.00    +0.000 A 
ATOM     18  C   UNL     1       0.515   0.294  -2.198  0.00  0.00    +0.000 A 
ATOM     19  C   UNL     1       1.010   0.372  -3.504  0.00  0.00    +0.000 A 
ATOM     20  C   UNL     1       2.052  -0.472  -3.924  0.00  0.00    +0.000 A 
ATOM     21  C   UNL     1       2.587  -1.397  -3.010  0.00  0.00    +0.000 A 
ATOM     22  C   UNL     1       2.091  -1.474  -1.706  0.00  0.00    +0.000 A 
BRANCH  20  23
ATOM     23  N   UNL     1       2.559  -0.390  -5.269  0.00  0.00    +0.000 N 
ATOM     24  O   UNL     1       3.484  -1.138  -5.648  0.00  0.00    +0.000 OA
ATOM     25  O   UNL     1       2.032   0.517  -6.160  0.00  0.00    +0.000 OA
ENDBRANCH  20  23
ENDBRANCH  16  17
ENDBRANCH   2  16
BRANCH   4  26
ATOM     26  C   UNL     1      -0.547   3.662   1.177  0.00  0.00    +0.000 C 
BRANCH  26  27
ATOM     27  O   UNL     1      -1.589   4.593   1.306  0.00  0.00    +0.000 OA
ATOM     28  H   UNL     1      -1.957   4.735   0.395  0.00  0.00    +0.000 HD
ENDBRANCH  26  27
ENDBRANCH   4  26
TORSDOF 8
