REMARK  Name = 449462
REMARK  6 active torsions:
REMARK  status: ('A' for Active; 'I' for Inactive)
REMARK    1  A    between atoms: N_1  and  C_2
REMARK    2  A    between atoms: C_3  and  O_4
REMARK    3  A    between atoms: C_6  and  C_7
REMARK    4  A    between atoms: C_7  and  O_8
REMARK    5  A    between atoms: C_9  and  O_10
REMARK    6  A    between atoms: C_11  and  O_12
REMARK                            x       y       z     vdW  Elec       q    Type
REMARK                         _______ _______ _______ _____ _____    ______ ____
ROOT
ATOM      1  C   UNL     1      -1.609  -0.303  -0.303  0.00  0.00    +0.000 C 
ATOM      2  C   UNL     1      -1.121   1.133  -0.604  0.00  0.00    +0.000 C 
ATOM      3  O   UNL     1       0.243   1.127  -0.995  0.00  0.00    +0.000 OA
ATOM      4  C   UNL     1       1.069   0.701   0.076  0.00  0.00    +0.000 C 
ATOM      5  C   UNL     1       0.791  -0.785   0.399  0.00  0.00    +0.000 C 
ATOM      6  C   UNL     1      -0.697  -0.941   0.773  0.00  0.00    +0.000 C 
ENDROOT
BRANCH   1   7
ATOM      7  N   UNL     1      -2.996  -0.278   0.169  0.00  0.00    +0.000 NA
ATOM      8  H   UNL     1      -3.603   0.091  -0.599  0.00  0.00    +0.000 HD
ATOM      9  H   UNL     1      -3.312  -1.262   0.326  0.00  0.00    +0.000 HD
ENDBRANCH   1   7
BRANCH   2  10
ATOM     10  O   UNL     1      -1.884   1.667  -1.651  0.00  0.00    +0.000 OA
ATOM     11  H   UNL     1      -1.620   2.620  -1.734  0.00  0.00    +0.000 HD
ENDBRANCH   2  10
BRANCH   5  12
ATOM     12  O   UNL     1       1.100  -1.578  -0.721  0.00  0.00    +0.000 OA
ATOM     13  H   UNL     1       1.383  -2.466  -0.380  0.00  0.00    +0.000 HD
ENDBRANCH   5  12
BRANCH   6  14
ATOM     14  O   UNL     1      -1.020  -2.292   1.000  0.00  0.00    +0.000 OA
ATOM     15  H   UNL     1      -1.017  -2.760   0.125  0.00  0.00    +0.000 HD
ENDBRANCH   6  14
BRANCH   4  16
ATOM     16  C   UNL     1       2.534   0.931  -0.312  0.00  0.00    +0.000 C 
BRANCH  16  17
ATOM     17  O   UNL     1       3.377   0.597   0.757  0.00  0.00    +0.000 OA
ATOM     18  H   UNL     1       4.303   0.763   0.440  0.00  0.00    +0.000 HD
ENDBRANCH  16  17
ENDBRANCH   4  16
TORSDOF 6
