REMARK  Name = 441477
REMARK  6 active torsions:
REMARK  status: ('A' for Active; 'I' for Inactive)
REMARK    1  A    between atoms: N_1  and  C_2
REMARK    2  A    between atoms: C_3  and  O_4
REMARK    3  A    between atoms: C_6  and  C_7
REMARK    4  A    between atoms: C_7  and  O_8
REMARK    5  A    between atoms: C_9  and  O_10
REMARK    6  A    between atoms: C_11  and  O_12
REMARK                            x       y       z     vdW  Elec       q    Type
REMARK                         _______ _______ _______ _____ _____    ______ ____
ROOT
ATOM      1  C   UNL     1      -1.664  -0.146   0.024  0.00  0.00    +0.000 C 
ATOM      2  C   UNL     1      -0.828  -1.330  -0.516  0.00  0.00    +0.000 C 
ATOM      3  O   UNL     1       0.286  -0.905  -1.289  0.00  0.00    +0.000 OA
ATOM      4  C   UNL     1       1.179  -0.035  -0.601  0.00  0.00    +0.000 C 
ATOM      5  C   UNL     1       0.487   1.212   0.006  0.00  0.00    +0.000 C 
ATOM      6  C   UNL     1      -0.785   0.852   0.798  0.00  0.00    +0.000 C 
ENDROOT
BRANCH   1   7
ATOM      7  N   UNL     1      -2.383   0.535  -1.060  0.00  0.00    +0.000 NA
ATOM      8  H   UNL     1      -1.748   0.679  -1.878  0.00  0.00    +0.000 HD
ATOM      9  H   UNL     1      -3.156  -0.089  -1.387  0.00  0.00    +0.000 HD
ENDBRANCH   1   7
BRANCH   2  10
ATOM     10  O   UNL     1      -0.419  -2.187   0.519  0.00  0.00    +0.000 OA
ATOM     11  H   UNL     1      -1.230  -2.664   0.839  0.00  0.00    +0.000 HD
ENDBRANCH   2  10
BRANCH   5  12
ATOM     12  O   UNL     1       0.169   2.106  -1.032  0.00  0.00    +0.000 OA
ATOM     13  H   UNL     1       0.026   2.996  -0.617  0.00  0.00    +0.000 HD
ENDBRANCH   5  12
BRANCH   6  14
ATOM     14  O   UNL     1      -0.424   0.315   2.045  0.00  0.00    +0.000 OA
ATOM     15  H   UNL     1      -1.224   0.375   2.630  0.00  0.00    +0.000 HD
ENDBRANCH   6  14
BRANCH   4  16
ATOM     16  C   UNL     1       2.095  -0.787   0.386  0.00  0.00    +0.000 C 
BRANCH  16  17
ATOM     17  O   UNL     1       3.227  -0.010   0.672  0.00  0.00    +0.000 OA
ATOM     18  H   UNL     1       3.784  -0.550   1.290  0.00  0.00    +0.000 HD
ENDBRANCH  16  17
ENDBRANCH   4  16
TORSDOF 6
