REMARK  Name = 445621
REMARK  6 active torsions:
REMARK  status: ('A' for Active; 'I' for Inactive)
REMARK    1  A    between atoms: N_1  and  C_2
REMARK    2  A    between atoms: C_3  and  O_4
REMARK    3  A    between atoms: C_6  and  C_7
REMARK    4  A    between atoms: C_7  and  O_8
REMARK    5  A    between atoms: C_9  and  O_10
REMARK    6  A    between atoms: C_11  and  O_12
REMARK                            x       y       z     vdW  Elec       q    Type
REMARK                         _______ _______ _______ _____ _____    ______ ____
ROOT
ATOM      1  C   UNL     1      -2.305  -1.209   1.711  0.00  0.00    +0.000 C 
ATOM      2  C   UNL     1      -1.381  -2.421   1.458  0.00  0.00    +0.000 C 
ATOM      3  O   UNL     1      -0.015  -2.059   1.592  0.00  0.00    +0.000 OA
ATOM      4  C   UNL     1       0.368  -1.083   0.634  0.00  0.00    +0.000 C 
ATOM      5  C   UNL     1      -0.424   0.231   0.850  0.00  0.00    +0.000 C 
ATOM      6  C   UNL     1      -1.933  -0.050   0.766  0.00  0.00    +0.000 C 
ENDROOT
BRANCH   1   7
ATOM      7  N   UNL     1      -3.719  -1.582   1.560  0.00  0.00    +0.000 N 
ATOM      8  H   UNL     1      -3.943  -2.386   2.190  0.00  0.00    +0.000 HD
ATOM      9  H   UNL     1      -4.329  -0.778   1.832  0.00  0.00    +0.000 HD
ATOM     10  H   UNL     1      -3.930  -1.851   0.572  0.00  0.00    +0.000 HD
ENDBRANCH   1   7
BRANCH   2  11
ATOM     11  O   UNL     1      -1.633  -3.000   0.201  0.00  0.00    +0.000 OA
ATOM     12  H   UNL     1      -1.090  -3.829   0.161  0.00  0.00    +0.000 HD
ENDBRANCH   2  11
BRANCH   5  13
ATOM     13  O   UNL     1      -0.084   1.173  -0.138  0.00  0.00    +0.000 OA
ATOM     14  H   UNL     1       0.573   1.799   0.266  0.00  0.00    +0.000 HD
ENDBRANCH   5  13
BRANCH   6  15
ATOM     15  O   UNL     1      -2.652   1.100   1.134  0.00  0.00    +0.000 OA
ATOM     16  H   UNL     1      -2.666   1.698   0.341  0.00  0.00    +0.000 HD
ENDBRANCH   6  15
BRANCH   4  17
ATOM     17  C   UNL     1       1.880  -0.857   0.774  0.00  0.00    +0.000 C 
BRANCH  17  18
ATOM     18  O   UNL     1       2.371  -0.128  -0.317  0.00  0.00    +0.000 OA
ATOM     19  H   UNL     1       3.341  -0.003  -0.151  0.00  0.00    +0.000 HD
ENDBRANCH  17  18
ENDBRANCH   4  17
TORSDOF 6
