REMARK  Name = ZINC000003956714
REMARK  10 active torsions:
REMARK  status: ('A' for Active; 'I' for Inactive)
REMARK    1  A    between atoms: O_2  and  C_3
REMARK    2  A    between atoms: C_3  and  C_40
REMARK    3  A    between atoms: N_4  and  C_5
REMARK    4  A    between atoms: C_7  and  O_9
REMARK    5  A    between atoms: O_9  and  C_10
REMARK    6  A    between atoms: C_10  and  C_13
REMARK    7  A    between atoms: C_25  and  C_27
REMARK    8  A    between atoms: C_27  and  O_30
REMARK    9  A    between atoms: C_32  and  O_34
REMARK   10  A    between atoms: C_36  and  O_38
REMARK                            x       y       z     vdW  Elec       q    Type
REMARK                         _______ _______ _______ _____ _____    ______ ____
ROOT
ATOM      1  C   UNL     1      -0.677   0.116   0.833  0.00  0.00    +0.000 C 
ATOM      2  C   UNL     1       0.115   1.173   0.038  0.00  0.00    +0.000 C 
ATOM      3  O   UNL     1      -0.449   2.465   0.200  0.00  0.00    +0.000 OA
ATOM      4  C   UNL     1      -1.781   2.526  -0.289  0.00  0.00    +0.000 C 
ATOM      5  C   UNL     1      -2.701   1.578   0.514  0.00  0.00    +0.000 C 
ATOM      6  C   UNL     1      -2.166   0.135   0.441  0.00  0.00    +0.000 C 
ENDROOT
BRANCH   1   8
ATOM      7  C   UNL     1      -0.288  -2.245   1.353  0.00  0.00    +0.000 C 
ATOM      8  N   UNL     1      -0.090  -1.206   0.600  0.00  0.00    +0.000 NA
ATOM      9  C   UNL     1       0.381  -3.535   1.003  0.00  0.00    +0.000 C 
BRANCH   7  11
ATOM     10  H   UNL     1      -1.230  -2.951   3.102  0.00  0.00    +0.000 HD
ATOM     11  O   UNL     1      -1.083  -2.153   2.495  0.00  0.00    +0.000 OA
ENDBRANCH   7  11
ENDBRANCH   1   8
BRANCH   5  12
ATOM     12  O   UNL     1      -4.011   1.634   0.009  0.00  0.00    +0.000 OA
ATOM     13  H   UNL     1      -4.599   1.225   0.696  0.00  0.00    +0.000 HD
ENDBRANCH   5  12
BRANCH   6  14
ATOM     14  O   UNL     1      -2.327  -0.385  -0.857  0.00  0.00    +0.000 OA
ATOM     15  H   UNL     1      -3.259  -0.723  -0.921  0.00  0.00    +0.000 HD
ENDBRANCH   6  14
BRANCH   2  16
ATOM     16  O   UNL     1       0.173   0.819  -1.340  0.00  0.00    +0.000 OA
BRANCH  16  17
ATOM     17  C   UNL     1       1.482   0.949  -1.860  0.00  0.00    +0.000 C 
BRANCH  17  18
ATOM     18  C   UNL     1       2.284  -0.290  -1.561  0.00  0.00    +0.000 A 
ATOM     19  C   UNL     1       1.936  -1.512  -2.160  0.00  0.00    +0.000 A 
ATOM     20  C   UNL     1       2.643  -2.677  -1.848  0.00  0.00    +0.000 A 
ATOM     21  C   UNL     1       3.697  -2.631  -0.931  0.00  0.00    +0.000 A 
ATOM     22  C   UNL     1       4.047  -1.420  -0.328  0.00  0.00    +0.000 A 
ATOM     23  C   UNL     1       3.343  -0.252  -0.639  0.00  0.00    +0.000 A 
ENDBRANCH  17  18
ENDBRANCH  16  17
ENDBRANCH   2  16
BRANCH   4  24
ATOM     24  C   UNL     1      -2.271   3.978  -0.178  0.00  0.00    +0.000 C 
BRANCH  24  25
ATOM     25  O   UNL     1      -1.474   4.824  -0.963  0.00  0.00    +0.000 OA
ATOM     26  H   UNL     1      -0.662   5.030  -0.430  0.00  0.00    +0.000 HD
ENDBRANCH  24  25
ENDBRANCH   4  24
TORSDOF 9
