REMARK  Name = 2801971
REMARK  9 active torsions:
REMARK  status: ('A' for Active; 'I' for Inactive)
REMARK    1  A    between atoms: C_1  and  C_2
REMARK    2  A    between atoms: N_4  and  C_5
REMARK    3  A    between atoms: C_6  and  O_7
REMARK    4  A    between atoms: O_7  and  C_8
REMARK    5  A    between atoms: C_8  and  C_9
REMARK    6  A    between atoms: C_16  and  C_17
REMARK    7  A    between atoms: C_17  and  O_18
REMARK    8  A    between atoms: C_19  and  O_20
REMARK    9  A    between atoms: C_21  and  O_22
REMARK                            x       y       z     vdW  Elec       q    Type
REMARK                         _______ _______ _______ _____ _____    ______ ____
ROOT
ATOM      1  C   UNL     1       0.478   0.652  -1.203  0.00  0.00    +0.000 C 
ATOM      2  C   UNL     1      -0.070  -0.053   0.058  0.00  0.00    +0.000 C 
ATOM      3  O   UNL     1      -0.892  -1.152  -0.301  0.00  0.00    +0.000 OA
ATOM      4  C   UNL     1      -0.184  -2.168  -1.001  0.00  0.00    +0.000 C 
ATOM      5  C   UNL     1       0.495  -1.643  -2.293  0.00  0.00    +0.000 C 
ATOM      6  C   UNL     1       1.296  -0.344  -2.044  0.00  0.00    +0.000 C 
ENDROOT
BRANCH   1  10
ATOM      7  C   UNL     1      -1.544   2.754  -3.795  0.00  0.00    +0.000 C 
ATOM      8  C   UNL     1      -0.395   2.236  -2.992  0.00  0.00    +0.000 C 
ATOM      9  O   UNL     1       0.757   2.713  -3.174  0.00  0.00    +0.000 OA
ATOM     10  N   UNL     1      -0.616   1.226  -1.998  0.00  0.00    +0.000 N 
ATOM     11  H   UNL     1      -1.599   0.912  -1.828  0.00  0.00    +0.000 HD
ENDBRANCH   1  10
BRANCH   5  12
ATOM     12  O   UNL     1      -0.500  -1.405  -3.257  0.00  0.00    +0.000 OA
ATOM     13  H   UNL     1      -0.045  -1.359  -4.139  0.00  0.00    +0.000 HD
ENDBRANCH   5  12
BRANCH   6  14
ATOM     14  O   UNL     1       2.503  -0.628  -1.385  0.00  0.00    +0.000 OA
ATOM     15  H   UNL     1       3.105  -1.050  -2.052  0.00  0.00    +0.000 HD
ENDBRANCH   6  14
BRANCH   2  16
ATOM     16  O   UNL     1      -0.869   0.861   0.793  0.00  0.00    +0.000 OA
BRANCH  16  17
ATOM     17  C   UNL     1      -0.139   1.482   1.834  0.00  0.00    +0.000 C 
BRANCH  17  18
ATOM     18  C   UNL     1      -0.125   0.608   3.061  0.00  0.00    +0.000 A 
ATOM     19  C   UNL     1       1.067   0.003   3.494  0.00  0.00    +0.000 A 
ATOM     20  C   UNL     1       1.065  -0.830   4.617  0.00  0.00    +0.000 A 
ATOM     21  C   UNL     1      -0.125  -1.066   5.312  0.00  0.00    +0.000 A 
ATOM     22  C   UNL     1      -1.315  -0.470   4.885  0.00  0.00    +0.000 A 
ATOM     23  C   UNL     1      -1.317   0.363   3.761  0.00  0.00    +0.000 A 
ENDBRANCH  17  18
ENDBRANCH  16  17
ENDBRANCH   2  16
BRANCH   4  24
ATOM     24  C   UNL     1       0.753  -2.975  -0.077  0.00  0.00    +0.000 C 
BRANCH  24  25
ATOM     25  O   UNL     1       1.105  -4.183  -0.693  0.00  0.00    +0.000 OA
ATOM     26  H   UNL     1       1.687  -4.663  -0.048  0.00  0.00    +0.000 HD
ENDBRANCH  24  25
ENDBRANCH   4  24
TORSDOF 8
