REMARK  Name = 439174
REMARK  7 active torsions:
REMARK  status: ('A' for Active; 'I' for Inactive)
REMARK    1  A    between atoms: C_1  and  C_2
REMARK    2  A    between atoms: N_4  and  C_5
REMARK    3  A    between atoms: C_6  and  O_7
REMARK    4  A    between atoms: C_9  and  C_10
REMARK    5  A    between atoms: C_10  and  O_11
REMARK    6  A    between atoms: C_12  and  O_13
REMARK    7  A    between atoms: C_14  and  O_15
REMARK                            x       y       z     vdW  Elec       q    Type
REMARK                         _______ _______ _______ _____ _____    ______ ____
ROOT
ATOM      1  C   UNL     1       1.153   0.590  -0.221  0.00  0.00    +0.000 C 
ATOM      2  C   UNL     1       0.680   1.676  -1.210  0.00  0.00    +0.000 C 
ATOM      3  O   UNL     1      -0.524   2.293  -0.775  0.00  0.00    +0.000 OA
ATOM      4  C   UNL     1      -0.372   2.969   0.468  0.00  0.00    +0.000 C 
ATOM      5  C   UNL     1       0.147   2.044   1.601  0.00  0.00    +0.000 C 
ATOM      6  C   UNL     1       1.379   1.220   1.167  0.00  0.00    +0.000 C 
ENDROOT
BRANCH   1  10
ATOM      7  C   UNL     1      -0.515  -2.862   0.496  0.00  0.00    +0.000 C 
ATOM      8  C   UNL     1       0.533  -1.805   0.365  0.00  0.00    +0.000 C 
ATOM      9  O   UNL     1       1.725  -2.066   0.683  0.00  0.00    +0.000 OA
ATOM     10  N   UNL     1       0.179  -0.506  -0.130  0.00  0.00    +0.000 N 
ATOM     11  H   UNL     1      -0.818  -0.338  -0.395  0.00  0.00    +0.000 HD
ENDBRANCH   1  10
BRANCH   2  12
ATOM     12  O   UNL     1       0.497   1.120  -2.487  0.00  0.00    +0.000 OA
ATOM     13  H   UNL     1      -0.386   0.666  -2.497  0.00  0.00    +0.000 HD
ENDBRANCH   2  12
BRANCH   5  14
ATOM     14  O   UNL     1      -0.892   1.177   1.985  0.00  0.00    +0.000 OA
ATOM     15  H   UNL     1      -0.655   0.819   2.881  0.00  0.00    +0.000 HD
ENDBRANCH   5  14
BRANCH   6  16
ATOM     16  O   UNL     1       2.515   2.046   1.148  0.00  0.00    +0.000 OA
ATOM     17  H   UNL     1       3.307   1.448   1.135  0.00  0.00    +0.000 HD
ENDBRANCH   6  16
BRANCH   4  18
ATOM     18  C   UNL     1       0.417   4.290   0.339  0.00  0.00    +0.000 C 
BRANCH  18  19
ATOM     19  O   UNL     1      -0.143   5.099  -0.660  0.00  0.00    +0.000 OA
ATOM     20  H   UNL     1       0.216   4.772  -1.526  0.00  0.00    +0.000 HD
ENDBRANCH  18  19
ENDBRANCH   4  18
TORSDOF 6
