REMARK  Name = 54758653
REMARK  8 active torsions:
REMARK  status: ('A' for Active; 'I' for Inactive)
REMARK    1  A    between atoms: C_1  and  C_2
REMARK    2  A    between atoms: N_4  and  C_5
REMARK    3  A    between atoms: C_6  and  O_7
REMARK    4  A    between atoms: C_9  and  C_10
REMARK    5  A    between atoms: C_10  and  O_11
REMARK    6  A    between atoms: O_11  and  P_12
REMARK    7  A    between atoms: C_16  and  O_17
REMARK    8  A    between atoms: C_18  and  O_19
REMARK                            x       y       z     vdW  Elec       q    Type
REMARK                         _______ _______ _______ _____ _____    ______ ____
ROOT
ATOM      1  C   UNL     1      -0.076  -0.165  -1.197  0.00  0.00    +0.000 C 
ATOM      2  C   UNL     1       1.156  -0.959  -0.720  0.00  0.00    +0.000 C 
ATOM      3  O   UNL     1       2.164  -0.086  -0.233  0.00  0.00    +0.000 OA
ATOM      4  C   UNL     1       1.743   0.664   0.899  0.00  0.00    +0.000 C 
ATOM      5  C   UNL     1       0.474   1.509   0.614  0.00  0.00    +0.000 C 
ATOM      6  C   UNL     1      -0.646   0.670  -0.039  0.00  0.00    +0.000 C 
ENDROOT
BRANCH   1  10
ATOM      7  C   UNL     1      -3.212  -1.567  -3.044  0.00  0.00    +0.000 C 
ATOM      8  C   UNL     1      -2.179  -0.605  -2.558  0.00  0.00    +0.000 C 
ATOM      9  O   UNL     1      -2.240   0.605  -2.909  0.00  0.00    +0.000 OA
ATOM     10  N   UNL     1      -1.104  -1.068  -1.728  0.00  0.00    +0.000 N 
ATOM     11  H   UNL     1      -1.052  -2.091  -1.514  0.00  0.00    +0.000 HD
ENDBRANCH   1  10
BRANCH   2  12
ATOM     12  O   UNL     1       1.675  -1.675  -1.808  0.00  0.00    +0.000 OA
ATOM     13  H   UNL     1       2.394  -2.255  -1.445  0.00  0.00    +0.000 HD
ENDBRANCH   2  12
BRANCH   5  14
ATOM     14  O   UNL     1       0.825   2.566  -0.244  0.00  0.00    +0.000 OA
ATOM     15  H   UNL     1       0.111   3.252  -0.166  0.00  0.00    +0.000 HD
ENDBRANCH   5  14
BRANCH   6  16
ATOM     16  O   UNL     1      -1.253  -0.171   0.908  0.00  0.00    +0.000 OA
ATOM     17  H   UNL     1      -1.819   0.405   1.485  0.00  0.00    +0.000 HD
ENDBRANCH   6  16
BRANCH   4  18
ATOM     18  C   UNL     1       1.660  -0.196   2.178  0.00  0.00    +0.000 C 
BRANCH  18  19
ATOM     19  O   UNL     1       1.587   0.647   3.304  0.00  0.00    +0.000 OA
BRANCH  19  20
ATOM     20  P   UNL     1       1.466  -0.326   4.698  0.00  0.00    +0.000 P 
ATOM     21  O   UNL     1       1.433   0.564   5.919  0.00  0.00    +0.000 OA
ATOM     22  O   UNL     1       2.802  -1.360   4.806  0.00  0.00    +0.000 OA
ATOM     23  O   UNL     1       0.045  -1.243   4.645  0.00  0.00    +0.000 OA
ENDBRANCH  19  20
ENDBRANCH  18  19
ENDBRANCH   4  18
TORSDOF 7
