REMARK  Name = 312829
REMARK  15 active torsions:
REMARK  status: ('A' for Active; 'I' for Inactive)
REMARK    1  A    between atoms: C_1  and  C_2
REMARK    2  A    between atoms: N_4  and  C_5
REMARK    3  A    between atoms: C_6  and  O_7
REMARK    4  A    between atoms: O_7  and  C_8
REMARK    5  A    between atoms: C_8  and  C_9
REMARK    6  A    between atoms: C_12  and  C_13
REMARK    7  A    between atoms: C_13  and  O_14
REMARK    8  A    between atoms: O_14  and  C_15
REMARK    9  A    between atoms: C_15  and  C_16
REMARK   10  A    between atoms: C_18  and  O_19
REMARK   11  A    between atoms: O_19  and  C_20
REMARK   12  A    between atoms: C_20  and  C_21
REMARK   13  A    between atoms: C_23  and  O_24
REMARK   14  A    between atoms: O_24  and  C_25
REMARK   15  A    between atoms: C_25  and  C_26
REMARK                            x       y       z     vdW  Elec       q    Type
REMARK                         _______ _______ _______ _____ _____    ______ ____
ROOT
ATOM      1  C   UNL     1       0.389   1.742   0.446  0.00  0.00    +0.000 C 
ATOM      2  C   UNL     1      -0.390   1.661  -0.882  0.00  0.00    +0.000 C 
ATOM      3  O   UNL     1       0.327   0.912  -1.853  0.00  0.00    +0.000 OA
ATOM      4  C   UNL     1       0.588  -0.428  -1.450  0.00  0.00    +0.000 C 
ATOM      5  C   UNL     1       1.356  -0.493  -0.103  0.00  0.00    +0.000 C 
ATOM      6  C   UNL     1       0.640   0.327   0.978  0.00  0.00    +0.000 C 
ENDROOT
BRANCH   1  10
ATOM      7  C   UNL     1      -0.921   4.620   2.730  0.00  0.00    +0.000 C 
ATOM      8  C   UNL     1      -0.029   3.856   1.808  0.00  0.00    +0.000 C 
ATOM      9  O   UNL     1       0.995   4.415   1.330  0.00  0.00    +0.000 OA
ATOM     10  N   UNL     1      -0.369   2.512   1.437  0.00  0.00    +0.000 N 
ATOM     11  H   UNL     1      -1.256   2.105   1.812  0.00  0.00    +0.000 HD
ENDBRANCH   1  10
BRANCH   2  12
ATOM     12  O   UNL     1      -0.578   2.978  -1.405  0.00  0.00    +0.000 OA
BRANCH  12  13
ATOM     13  C   UNL     1      -1.684   3.786  -1.116  0.00  0.00    +0.000 C 
ATOM     14  C   UNL     1      -1.710   5.194  -1.603  0.00  0.00    +0.000 C 
ATOM     15  O   UNL     1      -2.642   3.352  -0.420  0.00  0.00    +0.000 OA
ENDBRANCH  12  13
ENDBRANCH   2  12
BRANCH   4  16
ATOM     16  C   UNL     1      -0.669  -1.328  -1.515  0.00  0.00    +0.000 C 
BRANCH  16  17
ATOM     17  O   UNL     1      -1.153  -1.410  -2.856  0.00  0.00    +0.000 OA
BRANCH  17  18
ATOM     18  C   UNL     1      -2.099  -0.538  -3.406  0.00  0.00    +0.000 C 
ATOM     19  C   UNL     1      -2.423  -0.629  -4.858  0.00  0.00    +0.000 C 
ATOM     20  O   UNL     1      -2.682   0.323  -2.695  0.00  0.00    +0.000 OA
ENDBRANCH  17  18
ENDBRANCH  16  17
ENDBRANCH   4  16
BRANCH   5  21
ATOM     21  O   UNL     1       1.512  -1.843   0.340  0.00  0.00    +0.000 OA
BRANCH  21  22
ATOM     22  C   UNL     1       2.429  -2.740  -0.218  0.00  0.00    +0.000 C 
ATOM     23  C   UNL     1       2.497  -4.133   0.306  0.00  0.00    +0.000 C 
ATOM     24  O   UNL     1       3.230  -2.369  -1.119  0.00  0.00    +0.000 OA
ENDBRANCH  21  22
ENDBRANCH   5  21
BRANCH   6  25
ATOM     25  O   UNL     1       1.451   0.410   2.152  0.00  0.00    +0.000 OA
BRANCH  25  26
ATOM     26  C   UNL     1       1.485  -0.575   3.145  0.00  0.00    +0.000 C 
ATOM     27  C   UNL     1       2.411  -0.414   4.302  0.00  0.00    +0.000 C 
ATOM     28  O   UNL     1       0.705  -1.566   3.102  0.00  0.00    +0.000 OA
ENDBRANCH  25  26
ENDBRANCH   6  25
TORSDOF 10
