REMARK  Name = 441038
REMARK  9 active torsions:
REMARK  status: ('A' for Active; 'I' for Inactive)
REMARK    1  A    between atoms: C_1  and  C_2
REMARK    2  A    between atoms: C_2  and  O_3
REMARK    3  A    between atoms: C_2  and  C_15
REMARK    4  A    between atoms: O_3  and  C_4
REMARK    5  A    between atoms: C_5  and  O_6
REMARK    6  A    between atoms: C_7  and  C_8
REMARK    7  A    between atoms: C_8  and  O_9
REMARK    8  A    between atoms: C_11  and  O_12
REMARK    9  A    between atoms: C_13  and  N_14
REMARK                            x       y       z     vdW  Elec       q    Type
REMARK                         _______ _______ _______ _____ _____    ______ ____
ROOT
ATOM      1  C   UNL     1      -0.430  -0.132  -0.544  0.00  0.00    +0.000 C 
ATOM      2  C   UNL     1       0.667  -0.771   0.344  0.00  0.00    +0.000 C 
ATOM      3  C   UNL     1       0.293  -0.691   1.852  0.00  0.00    +0.000 C 
ATOM      4  O   UNL     1      -0.629   0.359   2.081  0.00  0.00    +0.000 OA
ATOM      5  C   UNL     1      -1.904   0.017   1.560  0.00  0.00    +0.000 C 
ATOM      6  C   UNL     1      -1.845  -0.355   0.047  0.00  0.00    +0.000 C 
ENDROOT
BRANCH   6   7
ATOM      7  N   UNL     1      -2.311  -1.731  -0.159  0.00  0.00    +0.000 NA
ATOM      8  H   UNL     1      -1.658  -2.404   0.302  0.00  0.00    +0.000 HD
ATOM      9  H   UNL     1      -2.316  -1.943  -1.183  0.00  0.00    +0.000 HD
ENDBRANCH   6   7
BRANCH   2  10
ATOM     10  O   UNL     1       0.854  -2.111  -0.035  0.00  0.00    +0.000 OA
ATOM     11  H   UNL     1       1.720  -2.402   0.352  0.00  0.00    +0.000 HD
ENDBRANCH   2  10
BRANCH   5  12
ATOM     12  O   UNL     1      -2.764   1.112   1.727  0.00  0.00    +0.000 OA
ATOM     13  H   UNL     1      -2.863   1.248   2.706  0.00  0.00    +0.000 HD
ENDBRANCH   5  12
BRANCH   1  14
ATOM     14  O   UNL     1      -0.209   1.271  -0.623  0.00  0.00    +0.000 OA
BRANCH  14  16
ATOM     15  C   UNL     1       1.294   2.926  -1.475  0.00  0.00    +0.000 C 
ATOM     16  C   UNL     1       0.555   1.622  -1.765  0.00  0.00    +0.000 C 
BRANCH  16  17
ATOM     17  C   UNL     1      -0.345   1.804  -2.954  0.00  0.00    +0.000 C 
ATOM     18  O   UNL     1      -1.450   2.397  -2.834  0.00  0.00    +0.000 OA
ATOM     19  O   UNL     1       0.058   1.351  -4.204  0.00  0.00    +0.000 OA
ENDBRANCH  16  17
ENDBRANCH  14  16
ENDBRANCH   1  14
BRANCH   3  20
ATOM     20  C   UNL     1       1.531  -0.462   2.728  0.00  0.00    +0.000 C 
BRANCH  20  21
ATOM     21  O   UNL     1       2.085   0.800   2.472  0.00  0.00    +0.000 OA
ATOM     22  H   UNL     1       2.880   0.877   3.062  0.00  0.00    +0.000 HD
ENDBRANCH  20  21
ENDBRANCH   3  20
TORSDOF 8
