REMARK  Name = 193108
REMARK  8 active torsions:
REMARK  status: ('A' for Active; 'I' for Inactive)
REMARK    1  A    between atoms: O_2  and  C_3
REMARK    2  A    between atoms: C_3  and  N_7
REMARK    3  A    between atoms: N_7  and  C_9
REMARK    4  A    between atoms: C_11  and  O_13
REMARK    5  A    between atoms: C_16  and  C_18
REMARK    6  A    between atoms: C_18  and  O_21
REMARK    7  A    between atoms: C_23  and  O_25
REMARK    8  A    between atoms: C_27  and  O_29
REMARK                            x       y       z     vdW  Elec       q    Type
REMARK                         _______ _______ _______ _____ _____    ______ ____
ROOT
ATOM      1  C   UNL     1       0.765  -0.335  -0.450  0.00  0.00    +0.000 C 
ATOM      2  C   UNL     1      -0.059  -1.641  -0.555  0.00  0.00    +0.000 C 
ATOM      3  O   UNL     1      -1.450  -1.362  -0.475  0.00  0.00    +0.000 OA
ATOM      4  C   UNL     1      -1.777  -0.811   0.792  0.00  0.00    +0.000 C 
ATOM      5  C   UNL     1      -1.118   0.580   0.974  0.00  0.00    +0.000 C 
ATOM      6  C   UNL     1       0.411   0.424   0.849  0.00  0.00    +0.000 C 
ENDROOT
BRANCH   1   7
ATOM      7  N   UNL     1       2.210  -0.583  -0.563  0.00  0.00    +0.000 N 
ATOM      8  H   UNL     1       2.684  -0.131  -1.376  0.00  0.00    +0.000 HD
BRANCH   7   9
ATOM      9  C   UNL     1       2.983  -1.388   0.351  0.00  0.00    +0.000 C 
ATOM     10  C   UNL     1       4.303  -1.558   0.184  0.00  0.00    +0.000 C 
ATOM     11 BR   UNL     1       5.318  -0.779  -1.242  0.00  0.00    +0.000 Br
BRANCH   9  13
ATOM     12  H   UNL     1       2.862  -2.581   2.097  0.00  0.00    +0.000 HD
ATOM     13  O   UNL     1       2.355  -2.008   1.433  0.00  0.00    +0.000 OA
ENDBRANCH   9  13
ENDBRANCH   7   9
ENDBRANCH   1   7
BRANCH   2  14
ATOM     14  O   UNL     1       0.216  -2.284  -1.772  0.00  0.00    +0.000 OA
ATOM     15  H   UNL     1      -0.169  -1.722  -2.495  0.00  0.00    +0.000 HD
ENDBRANCH   2  14
BRANCH   5  16
ATOM     16  O   UNL     1      -1.585   1.475  -0.006  0.00  0.00    +0.000 OA
ATOM     17  H   UNL     1      -2.293   2.029   0.415  0.00  0.00    +0.000 HD
ENDBRANCH   5  16
BRANCH   6  18
ATOM     18  O   UNL     1       1.058   1.671   0.914  0.00  0.00    +0.000 OA
ATOM     19  H   UNL     1       0.834   2.178   0.090  0.00  0.00    +0.000 HD
ENDBRANCH   6  18
BRANCH   4  20
ATOM     20  C   UNL     1      -3.306  -0.751   0.946  0.00  0.00    +0.000 C 
BRANCH  20  21
ATOM     21  O   UNL     1      -3.905  -0.062  -0.120  0.00  0.00    +0.000 OA
ATOM     22  H   UNL     1      -3.968  -0.702  -0.876  0.00  0.00    +0.000 HD
ENDBRANCH  20  21
ENDBRANCH   4  20
TORSDOF 8
