REMARK  Name = 439213
REMARK  6 active torsions:
REMARK  status: ('A' for Active; 'I' for Inactive)
REMARK    1  A    between atoms: N_1  and  C_2
REMARK    2  A    between atoms: C_3  and  O_4
REMARK    3  A    between atoms: C_6  and  C_7
REMARK    4  A    between atoms: C_7  and  O_8
REMARK    5  A    between atoms: C_9  and  O_10
REMARK    6  A    between atoms: C_11  and  O_12
REMARK                            x       y       z     vdW  Elec       q    Type
REMARK                         _______ _______ _______ _____ _____    ______ ____
ROOT
ATOM      1  C   UNL     1      -0.556  -0.741   1.853  0.00  0.00    +0.000 C 
ATOM      2  C   UNL     1       0.837  -1.410   1.907  0.00  0.00    +0.000 C 
ATOM      3  O   UNL     1       1.778  -0.642   1.178  0.00  0.00    +0.000 OA
ATOM      4  C   UNL     1       1.459  -0.640  -0.203  0.00  0.00    +0.000 C 
ATOM      5  C   UNL     1       0.121   0.100  -0.438  0.00  0.00    +0.000 C 
ATOM      6  C   UNL     1      -0.994  -0.573   0.382  0.00  0.00    +0.000 C 
ENDROOT
BRANCH   1   7
ATOM      7  N   UNL     1      -1.545  -1.532   2.599  0.00  0.00    +0.000 N 
ATOM      8  H   UNL     1      -1.621  -2.497   2.202  0.00  0.00    +0.000 HD
ATOM      9  H   UNL     1      -2.482  -1.069   2.555  0.00  0.00    +0.000 HD
ATOM     10  H   UNL     1      -1.268  -1.596   3.605  0.00  0.00    +0.000 HD
ENDBRANCH   1   7
BRANCH   2  11
ATOM     11  O   UNL     1       1.259  -1.485   3.242  0.00  0.00    +0.000 OA
ATOM     12  H   UNL     1       2.097  -2.016   3.241  0.00  0.00    +0.000 HD
ENDBRANCH   2  11
BRANCH   5  13
ATOM     13  O   UNL     1      -0.225   0.056  -1.800  0.00  0.00    +0.000 OA
ATOM     14  H   UNL     1       0.095   0.901  -2.211  0.00  0.00    +0.000 HD
ENDBRANCH   5  13
BRANCH   6  15
ATOM     15  O   UNL     1      -2.160   0.209   0.328  0.00  0.00    +0.000 OA
ATOM     16  H   UNL     1      -2.598   0.017  -0.542  0.00  0.00    +0.000 HD
ENDBRANCH   6  15
BRANCH   4  17
ATOM     17  C   UNL     1       2.604   0.042  -0.962  0.00  0.00    +0.000 C 
BRANCH  17  18
ATOM     18  O   UNL     1       3.804  -0.635  -0.712  0.00  0.00    +0.000 OA
ATOM     19  H   UNL     1       4.506  -0.146  -1.215  0.00  0.00    +0.000 HD
ENDBRANCH  17  18
ENDBRANCH   4  17
TORSDOF 6
