REMARK  Name = 18897
REMARK  6 active torsions:
REMARK  status: ('A' for Active; 'I' for Inactive)
REMARK    1  A    between atoms: N_1  and  C_2
REMARK    2  A    between atoms: C_3  and  O_4
REMARK    3  A    between atoms: C_5  and  O_6
REMARK    4  A    between atoms: C_7  and  C_8
REMARK    5  A    between atoms: C_8  and  O_9
REMARK    6  A    between atoms: C_11  and  O_12
REMARK                            x       y       z     vdW  Elec       q    Type
REMARK                         _______ _______ _______ _____ _____    ______ ____
ROOT
ATOM      1  C   UNL     1       0.207  -1.008   0.942  0.00  0.00    +0.000 C 
ATOM      2  C   UNL     1       0.636  -1.055  -0.540  0.00  0.00    +0.000 C 
ATOM      3  C   UNL     1      -0.494  -0.495  -1.427  0.00  0.00    +0.000 C 
ATOM      4  C   UNL     1      -0.933   0.890  -0.896  0.00  0.00    +0.000 C 
ATOM      5  O   UNL     1      -1.379   0.796   0.449  0.00  0.00    +0.000 OA
ATOM      6  C   UNL     1      -0.331   0.394   1.321  0.00  0.00    +0.000 C 
ENDROOT
BRANCH   1   7
ATOM      7  N   UNL     1       1.300  -1.423   1.833  0.00  0.00    +0.000 N 
ATOM      8  H   UNL     1       1.616  -2.386   1.576  0.00  0.00    +0.000 HD
ATOM      9  H   UNL     1       0.959  -1.443   2.821  0.00  0.00    +0.000 HD
ATOM     10  H   UNL     1       2.112  -0.768   1.766  0.00  0.00    +0.000 HD
ENDBRANCH   1   7
BRANCH   2  11
ATOM     11  O   UNL     1       1.812  -0.308  -0.731  0.00  0.00    +0.000 OA
ATOM     12  H   UNL     1       2.195  -0.591  -1.602  0.00  0.00    +0.000 HD
ENDBRANCH   2  11
BRANCH   3  13
ATOM     13  O   UNL     1      -1.589  -1.377  -1.421  0.00  0.00    +0.000 OA
ATOM     14  H   UNL     1      -1.349  -2.136  -2.015  0.00  0.00    +0.000 HD
ENDBRANCH   3  13
BRANCH   6  15
ATOM     15  O   UNL     1       0.702   1.348   1.347  0.00  0.00    +0.000 OA
ATOM     16  H   UNL     1       0.301   2.183   1.704  0.00  0.00    +0.000 HD
ENDBRANCH   6  15
BRANCH   4  17
ATOM     17  C   UNL     1      -2.068   1.486  -1.745  0.00  0.00    +0.000 C 
BRANCH  17  18
ATOM     18  O   UNL     1      -1.667   1.651  -3.079  0.00  0.00    +0.000 OA
ATOM     19  H   UNL     1      -1.063   2.438  -3.099  0.00  0.00    +0.000 HD
ENDBRANCH  17  18
ENDBRANCH   4  17
TORSDOF 6
