REMARK  Name = 76325328
REMARK  10 active torsions:
REMARK  status: ('A' for Active; 'I' for Inactive)
REMARK    1  A    between atoms: C_1  and  N_2
REMARK    2  A    between atoms: C_3  and  C_4
REMARK    3  A    between atoms: N_6  and  C_7
REMARK    4  A    between atoms: C_8  and  O_9
REMARK    5  A    between atoms: C_11  and  C_12
REMARK    6  A    between atoms: C_12  and  O_13
REMARK    7  A    between atoms: C_14  and  O_15
REMARK    8  A    between atoms: C_16  and  O_17
REMARK    9  A    between atoms: C_21  and  C_22
REMARK   10  A    between atoms: C_29  and  C_30
REMARK                            x       y       z     vdW  Elec       q    Type
REMARK                         _______ _______ _______ _____ _____    ______ ____
ROOT
ATOM      1  C   UNL     1      -0.990   0.547  -0.818  0.00  0.00    +0.000 A 
ATOM      2  C   UNL     1      -0.102  -0.457  -1.141  0.00  0.00    +0.000 A 
ATOM      3  N   UNL     1      -0.280  -0.706  -2.452  0.00  0.00    +0.000 N 
ATOM      4  N   UNL     1      -1.223   0.103  -2.907  0.00  0.00    +0.000 NA
ATOM      5  N   UNL     1      -1.674   0.879  -1.932  0.00  0.00    +0.000 NA
ENDROOT
BRANCH   1   8
ATOM      6  C   UNL     1      -2.938   2.846  -0.118  0.00  0.00    +0.000 C 
ATOM      7  N   UNL     1      -1.990   2.200   0.793  0.00  0.00    +0.000 N 
ATOM      8  C   UNL     1      -1.162   1.165   0.511  0.00  0.00    +0.000 A 
ATOM      9  N   UNL     1      -0.491   0.724   1.596  0.00  0.00    +0.000 NA
ATOM     10  C   UNL     1      -0.905   1.518   2.602  0.00  0.00    +0.000 A 
ATOM     11  C   UNL     1      -1.827   2.433   2.115  0.00  0.00    +0.000 A 
BRANCH  10  12
ATOM     12  C   UNL     1      -0.411   1.382   3.989  0.00  0.00    +0.000 A 
ATOM     13  C   UNL     1      -0.157   2.514   4.785  0.00  0.00    +0.000 A 
ATOM     14  C   UNL     1       0.316   2.365   6.093  0.00  0.00    +0.000 A 
ATOM     15  C   UNL     1       0.541   1.088   6.615  0.00  0.00    +0.000 A 
ATOM     16  F   UNL     1       0.999   0.945   7.884  0.00  0.00    +0.000 F 
ATOM     17  C   UNL     1       0.307  -0.042   5.826  0.00  0.00    +0.000 A 
ATOM     18  C   UNL     1      -0.159   0.104   4.515  0.00  0.00    +0.000 A 
ENDBRANCH  10  12
BRANCH  11  19
ATOM     19  C   UNL     1      -2.585   3.425   2.905  0.00  0.00    +0.000 A 
ATOM     20  C   UNL     1      -2.529   4.786   2.575  0.00  0.00    +0.000 A 
ATOM     21  C   UNL     1      -3.238   5.708   3.347  0.00  0.00    +0.000 A 
ATOM     22  N   UNL     1      -3.974   5.285   4.410  0.00  0.00    +0.000 NA
ATOM     23  C   UNL     1      -4.043   3.971   4.753  0.00  0.00    +0.000 A 
ATOM     24  C   UNL     1      -3.346   3.016   4.010  0.00  0.00    +0.000 A 
ENDBRANCH  11  19
ENDBRANCH   1   8
BRANCH   3  25
ATOM     25  C   UNL     1       0.442  -1.675  -3.285  0.00  0.00    +0.000 C 
ATOM     26  C   UNL     1       1.962  -1.366  -3.334  0.00  0.00    +0.000 C 
ATOM     27  O   UNL     1       2.636  -2.030  -2.279  0.00  0.00    +0.000 OA
ATOM     28  C   UNL     1       2.665  -3.444  -2.463  0.00  0.00    +0.000 C 
ATOM     29  C   UNL     1       1.370  -4.024  -3.118  0.00  0.00    +0.000 C 
ATOM     30  C   UNL     1       0.168  -3.119  -2.793  0.00  0.00    +0.000 C 
BRANCH  26  31
ATOM     31  O   UNL     1       2.182   0.016  -3.230  0.00  0.00    +0.000 OA
ATOM     32  H   UNL     1       3.156   0.155  -3.353  0.00  0.00    +0.000 HD
ENDBRANCH  26  31
BRANCH  29  33
ATOM     33  O   UNL     1       1.139  -5.348  -2.698  0.00  0.00    +0.000 OA
ATOM     34  H   UNL     1       0.980  -5.334  -1.719  0.00  0.00    +0.000 HD
ENDBRANCH  29  33
BRANCH  30  35
ATOM     35  O   UNL     1      -0.993  -3.609  -3.414  0.00  0.00    +0.000 OA
ATOM     36  H   UNL     1      -1.341  -4.343  -2.841  0.00  0.00    +0.000 HD
ENDBRANCH  30  35
BRANCH  28  37
ATOM     37  C   UNL     1       3.937  -3.854  -3.228  0.00  0.00    +0.000 C 
BRANCH  37  38
ATOM     38  O   UNL     1       4.088  -5.249  -3.234  0.00  0.00    +0.000 OA
ATOM     39  H   UNL     1       4.375  -5.505  -2.318  0.00  0.00    +0.000 HD
ENDBRANCH  37  38
ENDBRANCH  28  37
ENDBRANCH   3  25
TORSDOF 9
