REMARK  Name = 254124
REMARK  8 active torsions:
REMARK  status: ('A' for Active; 'I' for Inactive)
REMARK    1  A    between atoms: C_1  and  O_2
REMARK    2  A    between atoms: O_2  and  C_3
REMARK    3  A    between atoms: C_5  and  C_6
REMARK    4  A    between atoms: C_6  and  O_7
REMARK    5  A    between atoms: C_8  and  O_9
REMARK    6  A    between atoms: C_10  and  O_11
REMARK    7  A    between atoms: C_12  and  N_13
REMARK    8  A    between atoms: C_14  and  C_15
REMARK                            x       y       z     vdW  Elec       q    Type
REMARK                         _______ _______ _______ _____ _____    ______ ____
ROOT
ATOM      1  C   UNL     1      -0.675   1.189   0.342  0.00  0.00    +0.000 C 
ATOM      2  O   UNL     1      -1.008  -0.001   1.041  0.00  0.00    +0.000 OA
ATOM      3  C   UNL     1      -1.543  -0.970   0.155  0.00  0.00    +0.000 C 
ATOM      4  C   UNL     1      -0.468  -1.417  -0.864  0.00  0.00    +0.000 C 
ATOM      5  C   UNL     1       0.076  -0.192  -1.632  0.00  0.00    +0.000 C 
ATOM      6  C   UNL     1       0.483   0.918  -0.644  0.00  0.00    +0.000 C 
ENDROOT
BRANCH   6   7
ATOM      7  N   UNL     1       1.705   0.537   0.079  0.00  0.00    +0.000 N 
ATOM      8  C   UNL     1       3.005   0.600  -0.525  0.00  0.00    +0.000 C 
ATOM      9  C   UNL     1       4.207   0.171   0.250  0.00  0.00    +0.000 C 
ATOM     10  O   UNL     1       3.145   1.044  -1.697  0.00  0.00    +0.000 OA
ATOM     11  H   UNL     1       1.641   0.224   1.074  0.00  0.00    +0.000 HD
ENDBRANCH   6   7
BRANCH   1  13
ATOM     12  C   UNL     1      -1.371   2.685   1.970  0.00  0.00    +0.000 C 
ATOM     13  O   UNL     1      -0.258   2.178   1.266  0.00  0.00    +0.000 OA
ENDBRANCH   1  13
BRANCH   4  14
ATOM     14  O   UNL     1      -1.015  -2.349  -1.761  0.00  0.00    +0.000 OA
ATOM     15  H   UNL     1      -0.251  -2.785  -2.220  0.00  0.00    +0.000 HD
ENDBRANCH   4  14
BRANCH   5  16
ATOM     16  O   UNL     1      -0.901   0.309  -2.511  0.00  0.00    +0.000 OA
ATOM     17  H   UNL     1      -0.865  -0.245  -3.334  0.00  0.00    +0.000 HD
ENDBRANCH   5  16
BRANCH   3  18
ATOM     18  C   UNL     1      -2.035  -2.165   0.984  0.00  0.00    +0.000 C 
BRANCH  18  19
ATOM     19  O   UNL     1      -2.992  -1.750   1.921  0.00  0.00    +0.000 OA
ATOM     20  H   UNL     1      -3.833  -1.593   1.418  0.00  0.00    +0.000 HD
ENDBRANCH  18  19
ENDBRANCH   3  18
TORSDOF 6
