REMARK  Name = 57339292
REMARK  10 active torsions:
REMARK  status: ('A' for Active; 'I' for Inactive)
REMARK    1  A    between atoms: N_1  and  C_2
REMARK    2  A    between atoms: C_3  and  O_4
REMARK    3  A    between atoms: O_4  and  C_5
REMARK    4  A    between atoms: C_5  and  C_6
REMARK    5  A    between atoms: C_5  and  C_10
REMARK    6  A    between atoms: C_6  and  C_7
REMARK    7  A    between atoms: C_14  and  C_15
REMARK    8  A    between atoms: C_15  and  O_16
REMARK    9  A    between atoms: C_17  and  O_18
REMARK   10  A    between atoms: C_19  and  O_20
REMARK                            x       y       z     vdW  Elec       q    Type
REMARK                         _______ _______ _______ _____ _____    ______ ____
ROOT
ATOM      1  C   UNL     1       1.965   1.711  -0.354  0.00  0.00    +0.000 C 
ATOM      2  C   UNL     1       0.506   1.213  -0.348  0.00  0.00    +0.000 C 
ATOM      3  O   UNL     1      -0.298   2.036   0.487  0.00  0.00    +0.000 OA
ATOM      4  C   UNL     1       0.122   1.979   1.843  0.00  0.00    +0.000 C 
ATOM      5  C   UNL     1       1.548   2.551   1.998  0.00  0.00    +0.000 C 
ATOM      6  C   UNL     1       2.517   1.770   1.089  0.00  0.00    +0.000 C 
ENDROOT
BRANCH   1   7
ATOM      7  N   UNL     1       2.790   0.860  -1.215  0.00  0.00    +0.000 NA
ATOM      8  H   UNL     1       3.725   1.313  -1.337  0.00  0.00    +0.000 HD
ATOM      9  H   UNL     1       2.953  -0.062  -0.747  0.00  0.00    +0.000 HD
ENDBRANCH   1   7
BRANCH   5  10
ATOM     10  O   UNL     1       1.961   2.438   3.336  0.00  0.00    +0.000 OA
ATOM     11  H   UNL     1       2.697   3.091   3.466  0.00  0.00    +0.000 HD
ENDBRANCH   5  10
BRANCH   6  12
ATOM     12  O   UNL     1       3.801   2.345   1.114  0.00  0.00    +0.000 OA
ATOM     13  H   UNL     1       3.724   3.271   0.763  0.00  0.00    +0.000 HD
ENDBRANCH   6  12
BRANCH   2  14
ATOM     14  O   UNL     1       0.445  -0.149   0.051  0.00  0.00    +0.000 OA
BRANCH  14  15
ATOM     15  C   UNL     1      -0.825  -0.718  -0.235  0.00  0.00    +0.000 C 
BRANCH  15  16
ATOM     16  C   UNL     1      -1.246  -1.594   0.911  0.00  0.00    +0.000 C 
ATOM     17  O   UNL     1      -0.385  -2.184   1.616  0.00  0.00    +0.000 OA
ATOM     18  O   UNL     1      -2.596  -1.794   1.170  0.00  0.00    +0.000 OA
ENDBRANCH  15  16
BRANCH  15  19
ATOM     19  C   UNL     1      -0.767  -1.524  -1.546  0.00  0.00    +0.000 C 
BRANCH  19  20
ATOM     20  C   UNL     1       0.307  -2.572  -1.530  0.00  0.00    +0.000 C 
ATOM     21  O   UNL     1       0.046  -3.741  -1.142  0.00  0.00    +0.000 OA
ATOM     22  O   UNL     1       1.602  -2.247  -1.913  0.00  0.00    +0.000 OA
ENDBRANCH  19  20
ENDBRANCH  15  19
ENDBRANCH  14  15
ENDBRANCH   2  14
BRANCH   4  23
ATOM     23  C   UNL     1      -0.880   2.776   2.692  0.00  0.00    +0.000 C 
BRANCH  23  24
ATOM     24  O   UNL     1      -2.175   2.260   2.533  0.00  0.00    +0.000 OA
ATOM     25  H   UNL     1      -2.207   1.409   3.044  0.00  0.00    +0.000 HD
ENDBRANCH  23  24
ENDBRANCH   4  23
TORSDOF 10
