REMARK  Name = 24154
REMARK  6 active torsions:
REMARK  status: ('A' for Active; 'I' for Inactive)
REMARK    1  A    between atoms: N_1  and  C_2
REMARK    2  A    between atoms: C_3  and  O_4
REMARK    3  A    between atoms: C_6  and  C_7
REMARK    4  A    between atoms: C_7  and  O_8
REMARK    5  A    between atoms: C_9  and  O_10
REMARK    6  A    between atoms: C_11  and  O_12
REMARK                            x       y       z     vdW  Elec       q    Type
REMARK                         _______ _______ _______ _____ _____    ______ ____
ROOT
ATOM      1  C   UNL     1       1.589  -0.060  -1.802  0.00  0.00    +0.000 C 
ATOM      2  C   UNL     1       2.248  -0.667  -0.544  0.00  0.00    +0.000 C 
ATOM      3  O   UNL     1       1.867   0.001   0.653  0.00  0.00    +0.000 OA
ATOM      4  C   UNL     1       0.463   0.021   0.888  0.00  0.00    +0.000 C 
ATOM      5  C   UNL     1      -0.342   0.610  -0.302  0.00  0.00    +0.000 C 
ATOM      6  C   UNL     1       0.053  -0.018  -1.650  0.00  0.00    +0.000 C 
ENDROOT
BRANCH   1   7
ATOM      7  N   UNL     1       2.136   1.278  -2.079  0.00  0.00    +0.000 N 
ATOM      8  H   UNL     1       1.658   1.697  -2.910  0.00  0.00    +0.000 HD
ATOM      9  H   UNL     1       2.021   1.913  -1.257  0.00  0.00    +0.000 HD
ATOM     10  H   UNL     1       3.155   1.200  -2.302  0.00  0.00    +0.000 HD
ENDBRANCH   1   7
BRANCH   2  11
ATOM     11  O   UNL     1       1.994  -2.046  -0.468  0.00  0.00    +0.000 OA
ATOM     12  H   UNL     1       2.561  -2.396   0.268  0.00  0.00    +0.000 HD
ENDBRANCH   2  11
BRANCH   5  13
ATOM     13  O   UNL     1      -1.722   0.469  -0.079  0.00  0.00    +0.000 OA
ATOM     14  H   UNL     1      -2.181   1.083  -0.711  0.00  0.00    +0.000 HD
ENDBRANCH   5  13
BRANCH   6  15
ATOM     15  O   UNL     1      -0.484  -1.312  -1.754  0.00  0.00    +0.000 OA
ATOM     16  H   UNL     1      -0.458  -1.559  -2.716  0.00  0.00    +0.000 HD
ENDBRANCH   6  15
BRANCH   4  17
ATOM     17  C   UNL     1      -0.058  -1.329   1.428  0.00  0.00    +0.000 C 
BRANCH  17  18
ATOM     18  O   UNL     1      -1.246  -1.136   2.147  0.00  0.00    +0.000 OA
ATOM     19  H   UNL     1      -1.521  -2.032   2.474  0.00  0.00    +0.000 HD
ENDBRANCH  17  18
ENDBRANCH   4  17
TORSDOF 6
