REMARK  Name = ZINC000056871016
REMARK  9 active torsions:
REMARK  status: ('A' for Active; 'I' for Inactive)
REMARK    1  A    between atoms: O_2  and  C_3
REMARK    2  A    between atoms: C_3  and  C_30
REMARK    3  A    between atoms: N_4  and  C_5
REMARK    4  A    between atoms: C_7  and  O_9
REMARK    5  A    between atoms: C_11  and  O_13
REMARK    6  A    between atoms: C_15  and  C_17
REMARK    7  A    between atoms: C_17  and  O_20
REMARK    8  A    between atoms: C_23  and  O_25
REMARK    9  A    between atoms: O_25  and  C_26
REMARK                            x       y       z     vdW  Elec       q    Type
REMARK                         _______ _______ _______ _____ _____    ______ ____
ROOT
ATOM      1  C   UNL     1      -0.562   0.513   0.130  0.00  0.00    +0.000 C 
ATOM      2  C   UNL     1      -0.772  -0.994  -0.135  0.00  0.00    +0.000 C 
ATOM      3  C   UNL     1      -2.157  -1.226  -0.763  0.00  0.00    +0.000 C 
ATOM      4  C   UNL     1      -2.351  -0.284  -1.977  0.00  0.00    +0.000 C 
ATOM      5  O   UNL     1      -2.190   1.066  -1.574  0.00  0.00    +0.000 OA
ATOM      6  C   UNL     1      -0.857   1.312  -1.154  0.00  0.00    +0.000 C 
ENDROOT
BRANCH   1   8
ATOM      7  C   UNL     1       1.280   0.706   1.776  0.00  0.00    +0.000 C 
ATOM      8  N   UNL     1       0.816   0.776   0.560  0.00  0.00    +0.000 NA
ATOM      9  C   UNL     1       0.412   0.371   2.954  0.00  0.00    +0.000 C 
BRANCH   7  11
ATOM     10  H   UNL     1       3.250   1.206   1.237  0.00  0.00    +0.000 HD
ATOM     11  O   UNL     1       2.628   0.970   2.001  0.00  0.00    +0.000 OA
ENDBRANCH   7  11
ENDBRANCH   1   8
BRANCH   2  12
ATOM     12  O   UNL     1       0.225  -1.486  -0.998  0.00  0.00    +0.000 OA
ATOM     13  H   UNL     1       1.011  -1.711  -0.435  0.00  0.00    +0.000 HD
ENDBRANCH   2  12
BRANCH   3  14
ATOM     14  O   UNL     1      -2.264  -2.571  -1.159  0.00  0.00    +0.000 OA
ATOM     15  H   UNL     1      -3.202  -2.851  -0.999  0.00  0.00    +0.000 HD
ENDBRANCH   3  14
BRANCH   6  16
ATOM     16  O   UNL     1      -0.711   2.689  -0.863  0.00  0.00    +0.000 OA
ATOM     17  C   UNL     1      -0.636   3.433  -2.060  0.00  0.00    +0.000 C 
ENDBRANCH   6  16
BRANCH   4  18
ATOM     18  C   UNL     1      -3.754  -0.447  -2.579  0.00  0.00    +0.000 C 
BRANCH  18  19
ATOM     19  O   UNL     1      -3.908   0.393  -3.692  0.00  0.00    +0.000 OA
ATOM     20  H   UNL     1      -4.141   1.293  -3.343  0.00  0.00    +0.000 HD
ENDBRANCH  18  19
ENDBRANCH   4  18
TORSDOF 7
