REMARK  Name = ZINC000015205946
REMARK  10 active torsions:
REMARK  status: ('A' for Active; 'I' for Inactive)
REMARK    1  A    between atoms: O_2  and  C_3
REMARK    2  A    between atoms: C_3  and  C_39
REMARK    3  A    between atoms: N_4  and  C_5
REMARK    4  A    between atoms: C_7  and  O_9
REMARK    5  A    between atoms: C_11  and  O_13
REMARK    6  A    between atoms: C_15  and  C_17
REMARK    7  A    between atoms: C_17  and  O_20
REMARK    8  A    between atoms: C_23  and  O_25
REMARK    9  A    between atoms: O_25  and  C_26
REMARK   10  A    between atoms: C_35  and  N_36
REMARK                            x       y       z     vdW  Elec       q    Type
REMARK                         _______ _______ _______ _____ _____    ______ ____
ROOT
ATOM      1  C   UNL     1       0.991  -0.669   0.955  0.00  0.00    +0.000 C 
ATOM      2  C   UNL     1       2.427  -1.210   0.830  0.00  0.00    +0.000 C 
ATOM      3  C   UNL     1       3.221  -0.476  -0.272  0.00  0.00    +0.000 C 
ATOM      4  C   UNL     1       2.389  -0.320  -1.576  0.00  0.00    +0.000 C 
ATOM      5  O   UNL     1       1.087   0.199  -1.327  0.00  0.00    +0.000 OA
ATOM      6  C   UNL     1       0.337  -0.612  -0.434  0.00  0.00    +0.000 C 
ENDROOT
BRANCH   1   8
ATOM      7  C   UNL     1       0.761   0.965   2.809  0.00  0.00    +0.000 C 
ATOM      8  N   UNL     1       0.979   0.670   1.558  0.00  0.00    +0.000 NA
ATOM      9  C   UNL     1       0.436  -0.075   3.840  0.00  0.00    +0.000 C 
BRANCH   7  11
ATOM     10  H   UNL     1       1.010   3.036   2.541  0.00  0.00    +0.000 HD
ATOM     11  O   UNL     1       0.804   2.299   3.205  0.00  0.00    +0.000 OA
ENDBRANCH   7  11
ENDBRANCH   1   8
BRANCH   2  12
ATOM     12  O   UNL     1       3.092  -1.113   2.063  0.00  0.00    +0.000 OA
ATOM     13  H   UNL     1       3.894  -1.695   2.003  0.00  0.00    +0.000 HD
ENDBRANCH   2  12
BRANCH   3  14
ATOM     14  O   UNL     1       3.691   0.770   0.189  0.00  0.00    +0.000 OA
ATOM     15  H   UNL     1       2.947   1.424   0.140  0.00  0.00    +0.000 HD
ENDBRANCH   3  14
BRANCH   4  16
ATOM     16  C   UNL     1       2.359  -1.599  -2.438  0.00  0.00    +0.000 C 
BRANCH  16  17
ATOM     17  O   UNL     1       3.627  -1.834  -2.986  0.00  0.00    +0.000 OA
ATOM     18  H   UNL     1       3.542  -2.656  -3.536  0.00  0.00    +0.000 HD
ENDBRANCH  16  17
ENDBRANCH   4  16
BRANCH   6  19
ATOM     19  O   UNL     1      -0.971  -0.057  -0.291  0.00  0.00    +0.000 OA
BRANCH  19  20
ATOM     20  C   UNL     1      -1.931   0.055  -1.310  0.00  0.00    +0.000 A 
ATOM     21  C   UNL     1      -1.696  -0.465  -2.600  0.00  0.00    +0.000 A 
ATOM     22  C   UNL     1      -2.663  -0.354  -3.598  0.00  0.00    +0.000 A 
ATOM     23  C   UNL     1      -3.877   0.272  -3.328  0.00  0.00    +0.000 A 
ATOM     24  C   UNL     1      -4.129   0.792  -2.058  0.00  0.00    +0.000 A 
ATOM     25  C   UNL     1      -3.167   0.695  -1.035  0.00  0.00    +0.000 A 
BRANCH  25  26
ATOM     26  N   UNL     1      -3.462   1.249   0.266  0.00  0.00    +0.000 N 
ATOM     27  O   UNL     1      -2.594   1.301   1.162  0.00  0.00    +0.000 OA
ATOM     28  O   UNL     1      -4.712   1.758   0.536  0.00  0.00    +0.000 OA
ENDBRANCH  25  26
ENDBRANCH  19  20
ENDBRANCH   6  19
TORSDOF 9
