REMARK  Name = ZINC000106382965
REMARK  9 active torsions:
REMARK  status: ('A' for Active; 'I' for Inactive)
REMARK    1  A    between atoms: C_1  and  C_2
REMARK    2  A    between atoms: N_4  and  C_5
REMARK    3  A    between atoms: C_6  and  O_7
REMARK    4  A    between atoms: O_7  and  C_8
REMARK    5  A    between atoms: C_11  and  C_12
REMARK    6  A    between atoms: C_17  and  C_18
REMARK    7  A    between atoms: C_18  and  O_19
REMARK    8  A    between atoms: C_20  and  O_21
REMARK    9  A    between atoms: C_22  and  O_23
REMARK                            x       y       z     vdW  Elec       q    Type
REMARK                         _______ _______ _______ _____ _____    ______ ____
ROOT
ATOM      1  C   UNL     1      -0.398   0.583   1.213  0.00  0.00    +0.000 C 
ATOM      2  C   UNL     1       0.482   1.093   0.054  0.00  0.00    +0.000 C 
ATOM      3  O   UNL     1       1.600   1.799   0.565  0.00  0.00    +0.000 OA
ATOM      4  C   UNL     1       1.184   2.983   1.224  0.00  0.00    +0.000 C 
ATOM      5  C   UNL     1       0.342   2.635   2.479  0.00  0.00    +0.000 C 
ATOM      6  C   UNL     1      -0.867   1.774   2.076  0.00  0.00    +0.000 C 
ENDROOT
BRANCH   1  10
ATOM      7  C   UNL     1      -3.520  -1.745   0.979  0.00  0.00    +0.000 C 
ATOM      8  C   UNL     1      -2.319  -1.050   1.534  0.00  0.00    +0.000 C 
ATOM      9  O   UNL     1      -2.009  -1.221   2.744  0.00  0.00    +0.000 OA
ATOM     10  N   UNL     1      -1.548  -0.171   0.702  0.00  0.00    +0.000 N 
ATOM     11  H   UNL     1      -1.814  -0.084  -0.306  0.00  0.00    +0.000 HD
ENDBRANCH   1  10
BRANCH   5  12
ATOM     12  O   UNL     1      -0.114   3.807   3.108  0.00  0.00    +0.000 OA
ATOM     13  H   UNL     1       0.555   4.046   3.801  0.00  0.00    +0.000 HD
ENDBRANCH   5  12
BRANCH   6  14
ATOM     14  O   UNL     1      -1.791   2.563   1.365  0.00  0.00    +0.000 OA
ATOM     15  H   UNL     1      -2.680   2.135   1.469  0.00  0.00    +0.000 HD
ENDBRANCH   6  14
BRANCH   2  16
ATOM     16  O   UNL     1       0.949  -0.028  -0.696  0.00  0.00    +0.000 OA
BRANCH  16  17
ATOM     17  C   UNL     1       1.691   0.056  -1.885  0.00  0.00    +0.000 A 
ATOM     18  C   UNL     1       2.117  -1.134  -2.486  0.00  0.00    +0.000 A 
ATOM     19  C   UNL     1       2.859  -1.108  -3.670  0.00  0.00    +0.000 A 
ATOM     20  C   UNL     1       3.183   0.117  -4.276  0.00  0.00    +0.000 A 
ATOM     21  C   UNL     1       2.756   1.312  -3.677  0.00  0.00    +0.000 A 
ATOM     22  C   UNL     1       2.016   1.285  -2.491  0.00  0.00    +0.000 A 
BRANCH  20  23
ATOM     23  C   UNL     1       3.961   0.167  -5.527  0.00  0.00    +0.000 C 
ATOM     24  O   UNL     1       4.351  -0.888  -6.093  0.00  0.00    +0.000 OA
ENDBRANCH  20  23
ENDBRANCH  16  17
ENDBRANCH   2  16
BRANCH   4  25
ATOM     25  C   UNL     1       2.433   3.805   1.585  0.00  0.00    +0.000 C 
BRANCH  25  26
ATOM     26  O   UNL     1       3.250   3.119   2.497  0.00  0.00    +0.000 OA
ATOM     27  H   UNL     1       3.738   2.428   1.979  0.00  0.00    +0.000 HD
ENDBRANCH  25  26
ENDBRANCH   4  25
TORSDOF 8
