REMARK  Name = ZINC000082114392
REMARK  7 active torsions:
REMARK  status: ('A' for Active; 'I' for Inactive)
REMARK    1  A    between atoms: C_1  and  O_2
REMARK    2  A    between atoms: O_2  and  C_3
REMARK    3  A    between atoms: C_5  and  C_6
REMARK    4  A    between atoms: C_6  and  O_7
REMARK    5  A    between atoms: C_8  and  O_9
REMARK    6  A    between atoms: C_10  and  O_11
REMARK    7  A    between atoms: C_12  and  N_13
REMARK                            x       y       z     vdW  Elec       q    Type
REMARK                         _______ _______ _______ _____ _____    ______ ____
ROOT
ATOM      1  C   UNL     1      -0.078  -1.863  -0.507  0.00  0.00    +0.000 C 
ATOM      2  O   UNL     1       0.594  -0.611  -0.458  0.00  0.00    +0.000 OA
ATOM      3  C   UNL     1      -0.209   0.400   0.136  0.00  0.00    +0.000 C 
ATOM      4  C   UNL     1      -0.512   0.053   1.615  0.00  0.00    +0.000 C 
ATOM      5  C   UNL     1      -1.215  -1.316   1.702  0.00  0.00    +0.000 C 
ATOM      6  C   UNL     1      -0.399  -2.365   0.921  0.00  0.00    +0.000 C 
ENDROOT
BRANCH   6   7
ATOM      7  N   UNL     1      -1.080  -3.666   0.892  0.00  0.00    +0.000 N 
ATOM      8  H   UNL     1      -0.473  -4.371   0.415  0.00  0.00    +0.000 HD
ATOM      9  H   UNL     1      -1.255  -3.994   1.870  0.00  0.00    +0.000 HD
ATOM     10  H   UNL     1      -1.993  -3.604   0.385  0.00  0.00    +0.000 HD
ENDBRANCH   6   7
BRANCH   1  12
ATOM     11  C   UNL     1      -0.927  -1.688  -2.659  0.00  0.00    +0.000 C 
ATOM     12  O   UNL     1      -1.259  -1.788  -1.292  0.00  0.00    +0.000 OA
ENDBRANCH   1  12
BRANCH   4  13
ATOM     13  O   UNL     1      -1.321   1.046   2.192  0.00  0.00    +0.000 OA
ATOM     14  H   UNL     1      -1.269   0.921   3.176  0.00  0.00    +0.000 HD
ENDBRANCH   4  13
BRANCH   5  15
ATOM     15  O   UNL     1      -2.520  -1.229   1.181  0.00  0.00    +0.000 OA
ATOM     16  H   UNL     1      -3.101  -0.883   1.908  0.00  0.00    +0.000 HD
ENDBRANCH   5  15
BRANCH   3  17
ATOM     17  C   UNL     1       0.550   1.729   0.017  0.00  0.00    +0.000 C 
BRANCH  17  18
ATOM     18  O   UNL     1      -0.282   2.802   0.362  0.00  0.00    +0.000 OA
ATOM     19  H   UNL     1       0.274   3.620   0.277  0.00  0.00    +0.000 HD
ENDBRANCH  17  18
ENDBRANCH   3  17
TORSDOF 6
