REMARK  Name = ZINC000257346145
REMARK  6 active torsions:
REMARK  status: ('A' for Active; 'I' for Inactive)
REMARK    1  A    between atoms: O_2  and  C_3
REMARK    2  A    between atoms: N_5  and  C_6
REMARK    3  A    between atoms: C_8  and  O_10
REMARK    4  A    between atoms: C_15  and  C_17
REMARK    5  A    between atoms: C_35  and  O_37
REMARK    6  A    between atoms: O_37  and  C_38
REMARK                            x       y       z     vdW  Elec       q    Type
REMARK                         _______ _______ _______ _____ _____    ______ ____
ROOT
ATOM      1  C   UNL     1       0.461   0.912   2.243  0.00  0.00    +0.000 C 
ATOM      2  C   UNL     1       0.633  -0.180   1.163  0.00  0.00    +0.000 C 
ATOM      3  C   UNL     1       0.300   0.412  -0.215  0.00  0.00    +0.000 C 
ATOM      4  O   UNL     1       0.563  -0.533  -1.237  0.00  0.00    +0.000 OA
ATOM      5  C   UNL     1       0.571   0.053  -2.538  0.00  0.00    +0.000 C 
ATOM      6  O   UNL     1      -0.016   1.348  -2.578  0.00  0.00    +0.000 OA
ATOM      7  C   UNL     1       0.763   2.259  -1.823  0.00  0.00    +0.000 C 
ATOM      8  C   UNL     1       1.110   1.703  -0.430  0.00  0.00    +0.000 C 
ATOM      9  O   UNL     1       0.796   2.653   0.574  0.00  0.00    +0.000 OA
ATOM     10  C   UNL     1       1.232   2.190   1.845  0.00  0.00    +0.000 C 
ENDROOT
BRANCH   5  11
ATOM     11  C   UNL     1      -0.196  -0.845  -3.472  0.00  0.00    +0.000 A 
ATOM     12  C   UNL     1      -1.544  -1.144  -3.209  0.00  0.00    +0.000 A 
ATOM     13  C   UNL     1      -2.266  -1.971  -4.075  0.00  0.00    +0.000 A 
ATOM     14  C   UNL     1      -1.649  -2.504  -5.210  0.00  0.00    +0.000 A 
ATOM     15  C   UNL     1      -0.311  -2.210  -5.482  0.00  0.00    +0.000 A 
ATOM     16  C   UNL     1       0.415  -1.383  -4.619  0.00  0.00    +0.000 A 
ENDBRANCH   5  11
BRANCH   1  18
ATOM     17  C   UNL     1       0.311  -0.460   4.239  0.00  0.00    +0.000 C 
ATOM     18  N   UNL     1       0.939   0.435   3.541  0.00  0.00    +0.000 NA
BRANCH  17  20
ATOM     19  H   UNL     1       1.683  -0.485   5.830  0.00  0.00    +0.000 HD
ATOM     20  O   UNL     1       0.820  -0.873   5.466  0.00  0.00    +0.000 OA
ENDBRANCH  17  20
ENDBRANCH   1  18
BRANCH   2  21
ATOM     21  O   UNL     1       1.952  -0.668   1.183  0.00  0.00    +0.000 OA
ATOM     22  H   UNL     1       1.933  -1.571   0.771  0.00  0.00    +0.000 HD
ENDBRANCH   2  21
BRANCH  10  23
ATOM     23  O   UNL     1       0.967   3.186   2.815  0.00  0.00    +0.000 OA
ATOM     24  C   UNL     1       1.907   4.234   2.704  0.00  0.00    +0.000 C 
ENDBRANCH  10  23
TORSDOF 5
