REMARK  Name = ZINC000101361998
REMARK  12 active torsions:
REMARK  status: ('A' for Active; 'I' for Inactive)
REMARK    1  A    between atoms: O_2  and  C_3
REMARK    2  A    between atoms: C_3  and  O_40
REMARK    3  A    between atoms: N_4  and  C_5
REMARK    4  A    between atoms: C_7  and  O_9
REMARK    5  A    between atoms: C_11  and  O_13
REMARK    6  A    between atoms: C_15  and  C_17
REMARK    7  A    between atoms: C_17  and  O_20
REMARK    8  A    between atoms: C_23  and  O_25
REMARK    9  A    between atoms: O_25  and  C_26
REMARK   10  A    between atoms: C_26  and  C_29
REMARK   11  A    between atoms: O_40  and  C_41
REMARK   12  A    between atoms: C_41  and  C_44
REMARK                            x       y       z     vdW  Elec       q    Type
REMARK                         _______ _______ _______ _____ _____    ______ ____
ROOT
ATOM      1  C   UNL     1      -1.390   0.400   1.194  0.00  0.00    +0.000 C 
ATOM      2  C   UNL     1      -0.771   1.547   2.045  0.00  0.00    +0.000 C 
ATOM      3  C   UNL     1       0.660   1.208   2.493  0.00  0.00    +0.000 C 
ATOM      4  C   UNL     1       0.690  -0.180   3.219  0.00  0.00    +0.000 C 
ATOM      5  O   UNL     1      -0.494  -0.938   3.001  0.00  0.00    +0.000 OA
ATOM      6  C   UNL     1      -0.814  -0.967   1.622  0.00  0.00    +0.000 C 
ENDROOT
BRANCH   1   8
ATOM      7  C   UNL     1      -1.831   1.323  -1.043  0.00  0.00    +0.000 C 
ATOM      8  N   UNL     1      -1.133   0.577  -0.238  0.00  0.00    +0.000 NA
BRANCH   7  10
ATOM      9  H   UNL     1      -3.470   2.622  -1.198  0.00  0.00    +0.000 HD
ATOM     10  O   UNL     1      -2.926   2.041  -0.571  0.00  0.00    +0.000 OA
ENDBRANCH   7  10
BRANCH   7  11
ATOM     11  O   UNL     1      -1.493   1.410  -2.399  0.00  0.00    +0.000 OA
BRANCH  11  12
ATOM     12  C   UNL     1      -0.511   0.583  -3.026  0.00  0.00    +0.000 C 
BRANCH  12  13
ATOM     13  C   UNL     1       0.866   0.878  -2.495  0.00  0.00    +0.000 A 
ATOM     14  C   UNL     1       1.596  -0.113  -1.817  0.00  0.00    +0.000 A 
ATOM     15  C   UNL     1       2.873   0.168  -1.322  0.00  0.00    +0.000 A 
ATOM     16  C   UNL     1       3.426   1.440  -1.494  0.00  0.00    +0.000 A 
ATOM     17  C   UNL     1       2.705   2.431  -2.165  0.00  0.00    +0.000 A 
ATOM     18  C   UNL     1       1.429   2.153  -2.666  0.00  0.00    +0.000 A 
ENDBRANCH  12  13
ENDBRANCH  11  12
ENDBRANCH   7  11
ENDBRANCH   1   8
BRANCH   2  19
ATOM     19  O   UNL     1      -0.771   2.769   1.352  0.00  0.00    +0.000 OA
ATOM     20  H   UNL     1      -1.670   3.171   1.477  0.00  0.00    +0.000 HD
ENDBRANCH   2  19
BRANCH   3  21
ATOM     21  O   UNL     1       1.502   1.183   1.369  0.00  0.00    +0.000 OA
ATOM     22  H   UNL     1       2.434   1.229   1.709  0.00  0.00    +0.000 HD
ENDBRANCH   3  21
BRANCH   4  23
ATOM     23  C   UNL     1       0.868  -0.008   4.732  0.00  0.00    +0.000 C 
BRANCH  23  24
ATOM     24  O   UNL     1       2.121   0.554   5.009  0.00  0.00    +0.000 OA
ATOM     25  H   UNL     1       2.168   0.647   5.996  0.00  0.00    +0.000 HD
ENDBRANCH  23  24
ENDBRANCH   4  23
BRANCH   6  26
ATOM     26  O   UNL     1      -1.794  -1.963   1.388  0.00  0.00    +0.000 OA
BRANCH  26  27
ATOM     27  C   UNL     1      -1.197  -3.241   1.272  0.00  0.00    +0.000 C 
BRANCH  27  28
ATOM     28  C   UNL     1      -0.659  -3.456  -0.120  0.00  0.00    +0.000 A 
ATOM     29  C   UNL     1      -1.496  -3.281  -1.235  0.00  0.00    +0.000 A 
ATOM     30  C   UNL     1      -0.996  -3.466  -2.527  0.00  0.00    +0.000 A 
ATOM     31  C   UNL     1       0.340  -3.832  -2.716  0.00  0.00    +0.000 A 
ATOM     32  C   UNL     1       1.177  -4.014  -1.612  0.00  0.00    +0.000 A 
ATOM     33  C   UNL     1       0.682  -3.826  -0.318  0.00  0.00    +0.000 A 
ENDBRANCH  27  28
ENDBRANCH  26  27
ENDBRANCH   6  26
TORSDOF 12
