REMARK  Name = 52944903
REMARK  14 active torsions:
REMARK  status: ('A' for Active; 'I' for Inactive)
REMARK    1  A    between atoms: C_1  and  O_2
REMARK    2  A    between atoms: O_2  and  C_3
REMARK    3  A    between atoms: C_3  and  C_4
REMARK    4  A    between atoms: C_6  and  O_7
REMARK    5  A    between atoms: O_7  and  C_8
REMARK    6  A    between atoms: C_8  and  C_9
REMARK    7  A    between atoms: C_19  and  N_20
REMARK    8  A    between atoms: N_20  and  C_21
REMARK    9  A    between atoms: C_21  and  C_22
REMARK   10  A    between atoms: C_22  and  N_23
REMARK   11  A    between atoms: C_24  and  O_25
REMARK   12  A    between atoms: O_25  and  C_26
REMARK   13  A    between atoms: C_26  and  C_27
REMARK   14  A    between atoms: C_33  and  O_34
REMARK                            x       y       z     vdW  Elec       q    Type
REMARK                         _______ _______ _______ _____ _____    ______ ____
ROOT
ATOM      1  C   UNL     1      -0.893  -2.121   1.665  0.00  0.00    +0.000 C 
ATOM      2  O   UNL     1       0.294  -1.716   2.335  0.00  0.00    +0.000 OA
ATOM      3  C   UNL     1       0.752  -0.471   1.845  0.00  0.00    +0.000 C 
ATOM      4  C   UNL     1       1.393  -0.666   0.445  0.00  0.00    +0.000 C 
ATOM      5  C   UNL     1       0.670  -1.804  -0.341  0.00  0.00    +0.000 C 
ATOM      6  C   UNL     1      -0.801  -1.953   0.114  0.00  0.00    +0.000 C 
ENDROOT
BRANCH   4   7
ATOM      7  N   UNL     1       1.394   0.615  -0.305  0.00  0.00    +0.000 N 
ATOM      8  H   UNL     1       1.571   1.403   0.359  0.00  0.00    +0.000 HD
ATOM      9  H   UNL     1       0.460   0.775  -0.750  0.00  0.00    +0.000 HD
BRANCH   7  10
ATOM     10  C   UNL     1       2.454   0.659  -1.329  0.00  0.00    +0.000 C 
BRANCH  10  11
ATOM     11  C   UNL     1       2.384   1.956  -2.147  0.00  0.00    +0.000 C 
BRANCH  11  12
ATOM     12  N   UNL     1       2.635   3.119  -1.300  0.00  0.00    +0.000 NA
ATOM     13  H   UNL     1       2.499   3.975  -1.885  0.00  0.00    +0.000 HD
ATOM     14  H   UNL     1       3.641   3.108  -1.015  0.00  0.00    +0.000 HD
ENDBRANCH  11  12
ENDBRANCH  10  11
ENDBRANCH   7  10
ENDBRANCH   4   7
BRANCH   6  15
ATOM     15  O   UNL     1      -1.540  -0.820  -0.271  0.00  0.00    +0.000 OA
ATOM     16  H   UNL     1      -1.684  -0.886  -1.251  0.00  0.00    +0.000 HD
ENDBRANCH   6  15
BRANCH   1  17
ATOM     17  C   UNL     1      -1.180  -3.578   2.052  0.00  0.00    +0.000 C 
BRANCH  17  19
ATOM     18  C   UNL     1      -2.663  -5.328   1.843  0.00  0.00    +0.000 C 
ATOM     19  O   UNL     1      -2.437  -3.971   1.538  0.00  0.00    +0.000 OA
ENDBRANCH  17  19
ENDBRANCH   1  17
BRANCH   3  20
ATOM     20  O   UNL     1       1.745   0.022   2.731  0.00  0.00    +0.000 OA
BRANCH  20  21
ATOM     21  C   UNL     1       1.223   1.001   3.610  0.00  0.00    +0.000 C 
BRANCH  21  22
ATOM     22  C   UNL     1       1.283   2.357   2.958  0.00  0.00    +0.000 A 
ATOM     23  C   UNL     1       2.527   2.962   2.725  0.00  0.00    +0.000 A 
ATOM     24  C   UNL     1       2.608   4.171   2.030  0.00  0.00    +0.000 A 
ATOM     25  C   UNL     1       1.445   4.787   1.549  0.00  0.00    +0.000 A 
ATOM     26  C   UNL     1       1.517   5.991   0.831  0.00  0.00    +0.000 A 
ATOM     27  C   UNL     1       0.351   6.591   0.348  0.00  0.00    +0.000 A 
ATOM     28  C   UNL     1      -0.893   5.997   0.579  0.00  0.00    +0.000 A 
ATOM     29  C   UNL     1      -0.979   4.798   1.292  0.00  0.00    +0.000 A 
ATOM     30  C   UNL     1       0.185   4.184   1.782  0.00  0.00    +0.000 A 
ATOM     31  C   UNL     1       0.113   2.974   2.488  0.00  0.00    +0.000 A 
ENDBRANCH  21  22
ENDBRANCH  20  21
ENDBRANCH   3  20
BRANCH   5  32
ATOM     32  O   UNL     1       1.350  -3.029  -0.086  0.00  0.00    +0.000 OA
BRANCH  32  33
ATOM     33  C   UNL     1       1.708  -3.702  -1.278  0.00  0.00    +0.000 C 
BRANCH  33  34
ATOM     34  C   UNL     1       0.519  -4.414  -1.866  0.00  0.00    +0.000 A 
ATOM     35  C   UNL     1      -0.083  -3.945  -3.045  0.00  0.00    +0.000 A 
ATOM     36  C   UNL     1      -1.222  -4.579  -3.553  0.00  0.00    +0.000 A 
ATOM     37  C   UNL     1      -1.768  -5.679  -2.886  0.00  0.00    +0.000 A 
ATOM     38  C   UNL     1      -1.176  -6.148  -1.710  0.00  0.00    +0.000 A 
ATOM     39  C   UNL     1      -0.037  -5.518  -1.200  0.00  0.00    +0.000 A 
ENDBRANCH  33  34
ENDBRANCH  32  33
ENDBRANCH   5  32
TORSDOF 13
