REMARK  Name = ZINC000257347639
REMARK  9 active torsions:
REMARK  status: ('A' for Active; 'I' for Inactive)
REMARK    1  A    between atoms: O_2  and  C_3
REMARK    2  A    between atoms: C_3  and  C_47
REMARK    3  A    between atoms: N_4  and  C_5
REMARK    4  A    between atoms: C_7  and  O_9
REMARK    5  A    between atoms: O_9  and  S_10
REMARK    6  A    between atoms: S_10  and  C_13
REMARK    7  A    between atoms: C_20  and  C_22
REMARK    8  A    between atoms: C_40  and  O_42
REMARK    9  A    between atoms: O_42  and  C_43
REMARK                            x       y       z     vdW  Elec       q    Type
REMARK                         _______ _______ _______ _____ _____    ______ ____
ROOT
ATOM      1  C   UNL     1       0.804  -1.300  -1.721  0.00  0.00    +0.000 C 
ATOM      2  C   UNL     1       0.393  -0.506  -0.459  0.00  0.00    +0.000 C 
ATOM      3  C   UNL     1      -0.778   0.409  -0.840  0.00  0.00    +0.000 C 
ATOM      4  O   UNL     1      -1.270   1.092   0.294  0.00  0.00    +0.000 OA
ATOM      5  C   UNL     1      -2.339   1.945  -0.087  0.00  0.00    +0.000 C 
ATOM      6  O   UNL     1      -3.437   1.196  -0.589  0.00  0.00    +0.000 OA
ATOM      7  C   UNL     1      -3.056   0.506  -1.765  0.00  0.00    +0.000 C 
ATOM      8  C   UNL     1      -1.897  -0.439  -1.463  0.00  0.00    +0.000 C 
ATOM      9  O   UNL     1      -1.441  -1.067  -2.648  0.00  0.00    +0.000 OA
ATOM     10  C   UNL     1      -0.421  -2.010  -2.340  0.00  0.00    +0.000 C 
ENDROOT
BRANCH   5  11
ATOM     11  C   UNL     1      -2.792   2.699   1.135  0.00  0.00    +0.000 A 
ATOM     12  C   UNL     1      -3.295   2.000   2.246  0.00  0.00    +0.000 A 
ATOM     13  C   UNL     1      -3.698   2.692   3.391  0.00  0.00    +0.000 A 
ATOM     14  C   UNL     1      -3.600   4.084   3.438  0.00  0.00    +0.000 A 
ATOM     15  C   UNL     1      -3.097   4.788   2.340  0.00  0.00    +0.000 A 
ATOM     16  C   UNL     1      -2.692   4.100   1.194  0.00  0.00    +0.000 A 
ENDBRANCH   5  11
BRANCH   1  18
ATOM     17  C   UNL     1       3.112  -2.070  -1.256  0.00  0.00    +0.000 C 
ATOM     18  N   UNL     1       1.835  -2.290  -1.389  0.00  0.00    +0.000 NA
BRANCH  17  19
ATOM     19  C   UNL     1       3.729  -0.753  -1.525  0.00  0.00    +0.000 A 
ATOM     20  C   UNL     1       3.746  -0.231  -2.830  0.00  0.00    +0.000 A 
ATOM     21  C   UNL     1       4.390   0.982  -3.093  0.00  0.00    +0.000 A 
ATOM     22  C   UNL     1       5.035   1.671  -2.061  0.00  0.00    +0.000 A 
ATOM     23  C   UNL     1       5.042   1.144  -0.767  0.00  0.00    +0.000 A 
ATOM     24  C   UNL     1       4.396  -0.067  -0.499  0.00  0.00    +0.000 A 
ENDBRANCH  17  19
BRANCH  17  26
ATOM     25  H   UNL     1       4.926  -2.995  -0.725  0.00  0.00    +0.000 HD
ATOM     26  O   UNL     1       3.926  -3.121  -0.841  0.00  0.00    +0.000 OA
ENDBRANCH  17  26
ENDBRANCH   1  18
BRANCH  10  27
ATOM     27  O   UNL     1      -0.007  -2.635  -3.540  0.00  0.00    +0.000 OA
ATOM     28  C   UNL     1      -0.879  -3.698  -3.861  0.00  0.00    +0.000 C 
ENDBRANCH  10  27
BRANCH   2  29
ATOM     29  O   UNL     1      -0.025  -1.404   0.555  0.00  0.00    +0.000 OA
BRANCH  29  30
ATOM     30  S   UNL     1       0.854  -1.171   1.987  0.00  0.00    +0.000 S 
ATOM     31  O   UNL     1       2.313  -1.440   1.750  0.00  0.00    +0.000 OA
ATOM     32  O   UNL     1       0.350  -2.147   3.010  0.00  0.00    +0.000 OA
ATOM     33  C   UNL     1       0.640   0.473   2.641  0.00  0.00    +0.000 C 
ENDBRANCH  29  30
ENDBRANCH   2  29
TORSDOF 7
