REMARK  Name = ZINC000575124622
REMARK  7 active torsions:
REMARK  status: ('A' for Active; 'I' for Inactive)
REMARK    1  A    between atoms: O_2  and  C_3
REMARK    2  A    between atoms: C_3  and  C_41
REMARK    3  A    between atoms: N_4  and  C_5
REMARK    4  A    between atoms: C_7  and  O_9
REMARK    5  A    between atoms: C_14  and  C_16
REMARK    6  A    between atoms: C_34  and  O_36
REMARK    7  A    between atoms: O_36  and  C_37
REMARK                            x       y       z     vdW  Elec       q    Type
REMARK                         _______ _______ _______ _____ _____    ______ ____
ROOT
ATOM      1  C   UNL     1       2.150   1.571  -0.703  0.00  0.00    +0.000 C 
ATOM      2  C   UNL     1       1.295   0.339  -1.075  0.00  0.00    +0.000 C 
ATOM      3  C   UNL     1       0.178   0.169  -0.034  0.00  0.00    +0.000 C 
ATOM      4  O   UNL     1      -0.685  -0.892  -0.405  0.00  0.00    +0.000 OA
ATOM      5  C   UNL     1      -1.918  -0.876   0.317  0.00  0.00    +0.000 C 
ATOM      6  O   UNL     1      -1.861  -0.084   1.496  0.00  0.00    +0.000 OA
ATOM      7  C   UNL     1      -1.708   1.283   1.156  0.00  0.00    +0.000 C 
ATOM      8  C   UNL     1      -0.593   1.494   0.116  0.00  0.00    +0.000 C 
ATOM      9  O   UNL     1       0.280   2.528   0.532  0.00  0.00    +0.000 OA
ATOM     10  C   UNL     1       1.237   2.803  -0.482  0.00  0.00    +0.000 C 
ENDROOT
BRANCH   5  11
ATOM     11  C   UNL     1      -2.327  -2.277   0.712  0.00  0.00    +0.000 A 
ATOM     12  C   UNL     1      -3.606  -2.481   1.264  0.00  0.00    +0.000 A 
ATOM     13  C   UNL     1      -3.990  -3.745   1.717  0.00  0.00    +0.000 A 
ATOM     14  C   UNL     1      -3.104  -4.821   1.617  0.00  0.00    +0.000 A 
ATOM     15  C   UNL     1      -1.834  -4.637   1.056  0.00  0.00    +0.000 A 
ATOM     16  C   UNL     1      -1.443  -3.373   0.606  0.00  0.00    +0.000 A 
ENDBRANCH   5  11
BRANCH   1  18
ATOM     17  C   UNL     1       4.357   2.217  -1.639  0.00  0.00    +0.000 C 
ATOM     18  N   UNL     1       3.115   1.841  -1.774  0.00  0.00    +0.000 NA
ATOM     19  C   UNL     1       5.012   2.382  -0.298  0.00  0.00    +0.000 C 
BRANCH  17  21
ATOM     20  H   UNL     1       4.716   2.387  -3.705  0.00  0.00    +0.000 HD
ATOM     21  O   UNL     1       5.120   2.459  -2.779  0.00  0.00    +0.000 OA
ENDBRANCH  17  21
ENDBRANCH   1  18
BRANCH   2  22
ATOM     22  O   UNL     1       0.726   0.492  -2.352  0.00  0.00    +0.000 OA
ATOM     23  H   UNL     1       1.410   0.203  -3.013  0.00  0.00    +0.000 HD
ENDBRANCH   2  22
BRANCH  10  24
ATOM     24  O   UNL     1       2.038   3.894  -0.072  0.00  0.00    +0.000 OA
ATOM     25  C   UNL     1       1.325   5.103  -0.223  0.00  0.00    +0.000 C 
ENDBRANCH  10  24
TORSDOF 5
