REMARK  Name = ZINC000383920275
REMARK  5 active torsions:
REMARK  status: ('A' for Active; 'I' for Inactive)
REMARK    1  A    between atoms: C_1  and  O_2
REMARK    2  A    between atoms: O_2  and  C_3
REMARK    3  A    between atoms: C_5  and  C_6
REMARK    4  A    between atoms: C_6  and  O_7
REMARK    5  A    between atoms: C_8  and  O_9
REMARK                            x       y       z     vdW  Elec       q    Type
REMARK                         _______ _______ _______ _____ _____    ______ ____
ROOT
ATOM      1  C   UNL     1      -0.350   0.174   0.101  0.00  0.00    +0.000 C 
ATOM      2  O   UNL     1       0.852  -0.525   0.373  0.00  0.00    +0.000 OA
ATOM      3  C   UNL     1       2.018   0.225   0.035  0.00  0.00    +0.000 C 
ATOM      4  C   UNL     1       1.829   1.263  -1.111  0.00  0.00    +0.000 C 
ATOM      5  C   UNL     1       0.767   0.790  -2.120  0.00  0.00    +0.000 C 
ATOM      6  O   UNL     1       1.248  -0.311  -2.887  0.00  0.00    +0.000 OA
ATOM      7  C   UNL     1       0.338  -1.340  -2.828  0.00  0.00    +0.000 C 
ATOM      8  O   UNL     1       0.477  -2.431  -3.439  0.00  0.00    +0.000 OA
ATOM      9  N   UNL     1      -0.761  -1.046  -1.998  0.00  0.00    +0.000 N 
ATOM     10  C   UNL     1      -0.533   0.276  -1.424  0.00  0.00    +0.000 C 
ATOM     11  H   UNL     1      -1.566  -1.681  -1.799  0.00  0.00    +0.000 HD
ENDROOT
BRANCH   1  13
ATOM     12  C   UNL     1      -1.463  -0.387   2.053  0.00  0.00    +0.000 C 
ATOM     13  O   UNL     1      -1.446  -0.532   0.649  0.00  0.00    +0.000 OA
ENDBRANCH   1  13
BRANCH   4  14
ATOM     14  O   UNL     1       3.055   1.480  -1.762  0.00  0.00    +0.000 OA
ATOM     15  H   UNL     1       2.953   2.309  -2.299  0.00  0.00    +0.000 HD
ENDBRANCH   4  14
BRANCH   3  16
ATOM     16  C   UNL     1       2.592   0.891   1.296  0.00  0.00    +0.000 C 
BRANCH  16  17
ATOM     17  O   UNL     1       2.928  -0.078   2.252  0.00  0.00    +0.000 OA
ATOM     18  H   UNL     1       2.090  -0.313   2.728  0.00  0.00    +0.000 HD
ENDBRANCH  16  17
ENDBRANCH   3  16
TORSDOF 4
