REMARK  Name = ZINC000013545464
REMARK  9 active torsions:
REMARK  status: ('A' for Active; 'I' for Inactive)
REMARK    1  A    between atoms: O_2  and  C_3
REMARK    2  A    between atoms: C_3  and  C_37
REMARK    3  A    between atoms: N_4  and  C_5
REMARK    4  A    between atoms: C_7  and  O_9
REMARK    5  A    between atoms: O_9  and  C_10
REMARK    6  A    between atoms: C_22  and  C_24
REMARK    7  A    between atoms: C_24  and  O_27
REMARK    8  A    between atoms: C_29  and  O_31
REMARK    9  A    between atoms: C_33  and  O_35
REMARK                            x       y       z     vdW  Elec       q    Type
REMARK                         _______ _______ _______ _____ _____    ______ ____
ROOT
ATOM      1  C   UNL     1      -0.565  -0.038  -0.035  0.00  0.00    +0.000 C 
ATOM      2  C   UNL     1       0.453  -1.095   0.455  0.00  0.00    +0.000 C 
ATOM      3  O   UNL     1       0.177  -2.342  -0.159  0.00  0.00    +0.000 OA
ATOM      4  C   UNL     1      -1.072  -2.856   0.273  0.00  0.00    +0.000 C 
ATOM      5  C   UNL     1      -2.219  -1.930  -0.207  0.00  0.00    +0.000 C 
ATOM      6  C   UNL     1      -1.998  -0.492   0.303  0.00  0.00    +0.000 C 
ENDROOT
BRANCH   1   8
ATOM      7  C   UNL     1      -0.722   2.398   0.139  0.00  0.00    +0.000 C 
ATOM      8  N   UNL     1      -0.283   1.259   0.582  0.00  0.00    +0.000 NA
ATOM      9  C   UNL     1      -0.375   3.653   0.872  0.00  0.00    +0.000 C 
BRANCH   7  11
ATOM     10  H   UNL     1      -1.890   3.338  -1.339  0.00  0.00    +0.000 HD
ATOM     11  O   UNL     1      -1.531   2.456  -0.996  0.00  0.00    +0.000 OA
ENDBRANCH   7  11
ENDBRANCH   1   8
BRANCH   5  12
ATOM     12  O   UNL     1      -3.485  -2.410   0.178  0.00  0.00    +0.000 OA
ATOM     13  H   UNL     1      -3.459  -2.593   1.153  0.00  0.00    +0.000 HD
ENDBRANCH   5  12
BRANCH   6  14
ATOM     14  O   UNL     1      -2.196  -0.426   1.695  0.00  0.00    +0.000 OA
ATOM     15  H   UNL     1      -3.159  -0.237   1.845  0.00  0.00    +0.000 HD
ENDBRANCH   6  14
BRANCH   2  16
ATOM     16  O   UNL     1       1.776  -0.710   0.068  0.00  0.00    +0.000 OA
BRANCH  16  17
ATOM     17  C   UNL     1       2.617   0.196   0.739  0.00  0.00    +0.000 A 
ATOM     18  C   UNL     1       2.327   0.721   2.017  0.00  0.00    +0.000 A 
ATOM     19  C   UNL     1       3.207   1.623   2.623  0.00  0.00    +0.000 A 
ATOM     20  C   UNL     1       4.381   2.005   1.971  0.00  0.00    +0.000 A 
ATOM     21  C   UNL     1       4.681   1.483   0.711  0.00  0.00    +0.000 A 
ATOM     22  C   UNL     1       3.804   0.582   0.100  0.00  0.00    +0.000 A 
ENDBRANCH  16  17
ENDBRANCH   2  16
BRANCH   4  23
ATOM     23  C   UNL     1      -1.243  -4.271  -0.298  0.00  0.00    +0.000 C 
BRANCH  23  24
ATOM     24  O   UNL     1      -0.237  -5.119   0.188  0.00  0.00    +0.000 OA
ATOM     25  H   UNL     1       0.568  -4.961  -0.372  0.00  0.00    +0.000 HD
ENDBRANCH  23  24
ENDBRANCH   4  23
TORSDOF 8
