REMARK  Name = 52944904
REMARK  15 active torsions:
REMARK  status: ('A' for Active; 'I' for Inactive)
REMARK    1  A    between atoms: C_1  and  O_2
REMARK    2  A    between atoms: O_2  and  C_3
REMARK    3  A    between atoms: C_3  and  C_4
REMARK    4  A    between atoms: C_6  and  O_7
REMARK    5  A    between atoms: O_7  and  C_8
REMARK    6  A    between atoms: C_8  and  C_9
REMARK    7  A    between atoms: C_9  and  C_10
REMARK    8  A    between atoms: C_16  and  N_17
REMARK    9  A    between atoms: N_17  and  C_18
REMARK   10  A    between atoms: C_18  and  C_19
REMARK   11  A    between atoms: C_19  and  N_20
REMARK   12  A    between atoms: C_21  and  O_22
REMARK   13  A    between atoms: O_22  and  C_23
REMARK   14  A    between atoms: C_23  and  C_24
REMARK   15  A    between atoms: C_34  and  O_35
REMARK                            x       y       z     vdW  Elec       q    Type
REMARK                         _______ _______ _______ _____ _____    ______ ____
ROOT
ATOM      1  C   UNL     1      -0.132  -1.566  -0.838  0.00  0.00    +0.000 C 
ATOM      2  O   UNL     1      -1.330  -1.663  -0.086  0.00  0.00    +0.000 OA
ATOM      3  C   UNL     1      -1.530  -0.498   0.698  0.00  0.00    +0.000 C 
ATOM      4  C   UNL     1      -0.425  -0.400   1.781  0.00  0.00    +0.000 C 
ATOM      5  C   UNL     1       0.965  -0.360   1.112  0.00  0.00    +0.000 C 
ATOM      6  C   UNL     1       1.089  -1.533   0.117  0.00  0.00    +0.000 C 
ENDROOT
BRANCH   4   7
ATOM      7  N   UNL     1      -0.592   0.798   2.631  0.00  0.00    +0.000 NA
ATOM      8  H   UNL     1      -1.063   1.565   2.096  0.00  0.00    +0.000 HD
BRANCH   7   9
ATOM      9  C   UNL     1      -1.334   0.538   3.874  0.00  0.00    +0.000 C 
BRANCH   9  10
ATOM     10  C   UNL     1      -0.363   0.397   5.047  0.00  0.00    +0.000 C 
BRANCH  10  11
ATOM     11  N   UNL     1       0.478  -0.786   4.889  0.00  0.00    +0.000 NA
ATOM     12  H   UNL     1      -0.126  -1.631   5.021  0.00  0.00    +0.000 HD
ATOM     13  H   UNL     1       1.170  -0.792   5.672  0.00  0.00    +0.000 HD
ENDBRANCH  10  11
ENDBRANCH   9  10
ENDBRANCH   7   9
ENDBRANCH   4   7
BRANCH   6  14
ATOM     14  O   UNL     1       2.307  -1.466  -0.586  0.00  0.00    +0.000 OA
ATOM     15  H   UNL     1       2.256  -0.699  -1.213  0.00  0.00    +0.000 HD
ENDBRANCH   6  14
BRANCH   1  16
ATOM     16  C   UNL     1      -0.056  -2.769  -1.785  0.00  0.00    +0.000 C 
BRANCH  16  18
ATOM     17  C   UNL     1      -1.118  -3.858  -3.515  0.00  0.00    +0.000 C 
ATOM     18  O   UNL     1      -1.192  -2.768  -2.625  0.00  0.00    +0.000 OA
ENDBRANCH  16  18
ENDBRANCH   1  16
BRANCH   3  19
ATOM     19  O   UNL     1      -2.788  -0.617   1.345  0.00  0.00    +0.000 OA
BRANCH  19  20
ATOM     20  C   UNL     1      -3.783   0.174   0.722  0.00  0.00    +0.000 C 
BRANCH  20  21
ATOM     21  C   UNL     1      -4.283  -0.471  -0.577  0.00  0.00    +0.000 C 
BRANCH  21  22
ATOM     22  C   UNL     1      -5.355   0.376  -1.207  0.00  0.00    +0.000 A 
ATOM     23  C   UNL     1      -6.706   0.174  -0.881  0.00  0.00    +0.000 A 
ATOM     24  C   UNL     1      -7.694   0.993  -1.437  0.00  0.00    +0.000 A 
ATOM     25  C   UNL     1      -7.340   2.024  -2.312  0.00  0.00    +0.000 A 
ATOM     26  C   UNL     1      -5.996   2.239  -2.632  0.00  0.00    +0.000 A 
ATOM     27  C   UNL     1      -5.005   1.421  -2.079  0.00  0.00    +0.000 A 
ENDBRANCH  21  22
ENDBRANCH  20  21
ENDBRANCH  19  20
ENDBRANCH   3  19
BRANCH   5  28
ATOM     28  O   UNL     1       1.131   0.871   0.417  0.00  0.00    +0.000 OA
BRANCH  28  29
ATOM     29  C   UNL     1       2.033   1.736   1.083  0.00  0.00    +0.000 C 
BRANCH  29  30
ATOM     30  C   UNL     1       3.451   1.419   0.688  0.00  0.00    +0.000 A 
ATOM     31  C   UNL     1       4.303   0.747   1.578  0.00  0.00    +0.000 A 
ATOM     32  C   UNL     1       5.605   0.414   1.196  0.00  0.00    +0.000 A 
ATOM     33  C   UNL     1       6.073   0.750  -0.082  0.00  0.00    +0.000 A 
ATOM     34  C   UNL     1       7.379   0.418  -0.476  0.00  0.00    +0.000 A 
ATOM     35  C   UNL     1       7.834   0.761  -1.752  0.00  0.00    +0.000 A 
ATOM     36  C   UNL     1       6.993   1.433  -2.643  0.00  0.00    +0.000 A 
ATOM     37  C   UNL     1       5.689   1.765  -2.264  0.00  0.00    +0.000 A 
ATOM     38  C   UNL     1       5.219   1.428  -0.985  0.00  0.00    +0.000 A 
ATOM     39  C   UNL     1       3.911   1.753  -0.595  0.00  0.00    +0.000 A 
ENDBRANCH  29  30
ENDBRANCH  28  29
ENDBRANCH   5  28
TORSDOF 14
