REMARK  Name = ZINC000106382931
REMARK  8 active torsions:
REMARK  status: ('A' for Active; 'I' for Inactive)
REMARK    1  A    between atoms: C_1  and  C_2
REMARK    2  A    between atoms: N_4  and  C_5
REMARK    3  A    between atoms: C_6  and  O_7
REMARK    4  A    between atoms: O_7  and  C_8
REMARK    5  A    between atoms: C_16  and  C_17
REMARK    6  A    between atoms: C_17  and  O_18
REMARK    7  A    between atoms: C_19  and  O_20
REMARK    8  A    between atoms: C_21  and  O_22
REMARK                            x       y       z     vdW  Elec       q    Type
REMARK                         _______ _______ _______ _____ _____    ______ ____
ROOT
ATOM      1  C   UNL     1       1.111   0.781   1.720  0.00  0.00    +0.000 C 
ATOM      2  C   UNL     1       0.541   0.288   0.353  0.00  0.00    +0.000 C 
ATOM      3  O   UNL     1       1.562  -0.120  -0.547  0.00  0.00    +0.000 OA
ATOM      4  C   UNL     1       2.532   0.901  -0.682  0.00  0.00    +0.000 C 
ATOM      5  C   UNL     1       3.414   0.960   0.589  0.00  0.00    +0.000 C 
ATOM      6  C   UNL     1       2.624   0.468   1.829  0.00  0.00    +0.000 C 
ENDROOT
BRANCH   1  10
ATOM      7  C   UNL     1      -0.676   4.191   2.338  0.00  0.00    +0.000 C 
ATOM      8  C   UNL     1      -0.467   2.724   2.154  0.00  0.00    +0.000 C 
ATOM      9  O   UNL     1      -1.448   1.938   2.245  0.00  0.00    +0.000 OA
ATOM     10  N   UNL     1       0.850   2.216   1.899  0.00  0.00    +0.000 N 
ATOM     11  H   UNL     1       1.642   2.898   1.892  0.00  0.00    +0.000 HD
ENDBRANCH   1  10
BRANCH   5  12
ATOM     12  O   UNL     1       3.870   2.278   0.770  0.00  0.00    +0.000 OA
ATOM     13  H   UNL     1       4.718   2.226   1.284  0.00  0.00    +0.000 HD
ENDBRANCH   5  12
BRANCH   6  14
ATOM     14  O   UNL     1       3.165   1.008   3.008  0.00  0.00    +0.000 OA
ATOM     15  H   UNL     1       2.804   0.472   3.763  0.00  0.00    +0.000 HD
ENDBRANCH   6  14
BRANCH   2  16
ATOM     16  O   UNL     1      -0.328  -0.819   0.591  0.00  0.00    +0.000 OA
BRANCH  16  17
ATOM     17  C   UNL     1      -1.129  -1.438  -0.382  0.00  0.00    +0.000 A 
ATOM     18  C   UNL     1      -1.179  -0.996  -1.720  0.00  0.00    +0.000 A 
ATOM     19  C   UNL     1      -1.995  -1.651  -2.647  0.00  0.00    +0.000 A 
ATOM     20  C   UNL     1      -2.767  -2.747  -2.252  0.00  0.00    +0.000 A 
ATOM     21  F   UNL     1      -3.558  -3.380  -3.153  0.00  0.00    +0.000 F 
ATOM     22  C   UNL     1      -2.723  -3.189  -0.927  0.00  0.00    +0.000 A 
ATOM     23  C   UNL     1      -1.908  -2.537   0.002  0.00  0.00    +0.000 A 
ENDBRANCH  16  17
ENDBRANCH   2  16
BRANCH   4  24
ATOM     24  C   UNL     1       3.377   0.626  -1.929  0.00  0.00    +0.000 C 
BRANCH  24  25
ATOM     25  O   UNL     1       2.561   0.657  -3.067  0.00  0.00    +0.000 OA
ATOM     26  H   UNL     1       3.157   0.470  -3.838  0.00  0.00    +0.000 HD
ENDBRANCH  24  25
ENDBRANCH   4  24
TORSDOF 7
