REMARK  Name = ZINC000616582453
REMARK  14 active torsions:
REMARK  status: ('A' for Active; 'I' for Inactive)
REMARK    1  A    between atoms: O_2  and  C_3
REMARK    2  A    between atoms: C_3  and  C_45
REMARK    3  A    between atoms: N_4  and  C_5
REMARK    4  A    between atoms: C_7  and  O_9
REMARK    5  A    between atoms: C_11  and  O_13
REMARK    6  A    between atoms: C_15  and  C_17
REMARK    7  A    between atoms: C_17  and  O_20
REMARK    8  A    between atoms: C_23  and  O_25
REMARK    9  A    between atoms: O_25  and  C_26
REMARK   10  A    between atoms: C_26  and  C_29
REMARK   11  A    between atoms: C_29  and  C_32
REMARK   12  A    between atoms: C_32  and  C_35
REMARK   13  A    between atoms: C_35  and  C_38
REMARK   14  A    between atoms: C_38  and  C_41
REMARK                            x       y       z     vdW  Elec       q    Type
REMARK                         _______ _______ _______ _____ _____    ______ ____
ROOT
ATOM      1  C   UNL     1      -0.474   0.365  -0.518  0.00  0.00    +0.000 C 
ATOM      2  C   UNL     1      -0.692  -0.148  -1.954  0.00  0.00    +0.000 C 
ATOM      3  C   UNL     1       0.645  -0.127  -2.724  0.00  0.00    +0.000 C 
ATOM      4  C   UNL     1       1.746  -0.838  -1.897  0.00  0.00    +0.000 C 
ATOM      5  O   UNL     1       1.874  -0.223  -0.625  0.00  0.00    +0.000 OA
ATOM      6  C   UNL     1       0.693  -0.391   0.140  0.00  0.00    +0.000 C 
ENDROOT
BRANCH   1   8
ATOM      7  C   UNL     1      -2.741   0.928   0.212  0.00  0.00    +0.000 C 
ATOM      8  N   UNL     1      -1.683   0.180   0.289  0.00  0.00    +0.000 NA
ATOM      9  C   UNL     1      -3.904   0.646   1.108  0.00  0.00    +0.000 C 
BRANCH   7  11
ATOM     10  H   UNL     1      -3.596   2.614  -0.716  0.00  0.00    +0.000 HD
ATOM     11  O   UNL     1      -2.783   2.012  -0.664  0.00  0.00    +0.000 OA
ENDBRANCH   7  11
ENDBRANCH   1   8
BRANCH   2  12
ATOM     12  O   UNL     1      -1.216  -1.454  -1.918  0.00  0.00    +0.000 OA
ATOM     13  H   UNL     1      -1.707  -1.593  -2.769  0.00  0.00    +0.000 HD
ENDBRANCH   2  12
BRANCH   3  14
ATOM     14  O   UNL     1       0.491  -0.754  -3.971  0.00  0.00    +0.000 OA
ATOM     15  H   UNL     1      -0.018  -0.126  -4.547  0.00  0.00    +0.000 HD
ENDBRANCH   3  14
BRANCH   4  16
ATOM     16  C   UNL     1       3.113  -0.760  -2.597  0.00  0.00    +0.000 C 
BRANCH  16  17
ATOM     17  O   UNL     1       3.123  -1.512  -3.781  0.00  0.00    +0.000 OA
ATOM     18  H   UNL     1       3.173  -2.466  -3.512  0.00  0.00    +0.000 HD
ENDBRANCH  16  17
ENDBRANCH   4  16
BRANCH   6  19
ATOM     19  O   UNL     1       0.900   0.170   1.422  0.00  0.00    +0.000 OA
BRANCH  19  20
ATOM     20  C   UNL     1       1.474  -0.777   2.299  0.00  0.00    +0.000 C 
BRANCH  20  21
ATOM     21  C   UNL     1       1.604  -0.171   3.701  0.00  0.00    +0.000 C 
BRANCH  21  22
ATOM     22  C   UNL     1       0.312   0.497   4.208  0.00  0.00    +0.000 C 
BRANCH  22  23
ATOM     23  C   UNL     1      -0.873  -0.476   4.296  0.00  0.00    +0.000 C 
BRANCH  23  24
ATOM     24  C   UNL     1      -2.100   0.209   4.909  0.00  0.00    +0.000 C 
ATOM     25  C   UNL     1      -3.292  -0.742   4.964  0.00  0.00    +0.000 C 
ENDBRANCH  23  24
ENDBRANCH  22  23
ENDBRANCH  21  22
ENDBRANCH  20  21
ENDBRANCH  19  20
ENDBRANCH   6  19
TORSDOF 12
