REMARK  Name = ZINC000019898298
REMARK  9 active torsions:
REMARK  status: ('A' for Active; 'I' for Inactive)
REMARK    1  A    between atoms: O_2  and  C_3
REMARK    2  A    between atoms: C_3  and  C_30
REMARK    3  A    between atoms: N_4  and  C_5
REMARK    4  A    between atoms: C_7  and  O_9
REMARK    5  A    between atoms: C_11  and  O_13
REMARK    6  A    between atoms: C_15  and  C_17
REMARK    7  A    between atoms: C_17  and  O_20
REMARK    8  A    between atoms: C_23  and  O_25
REMARK    9  A    between atoms: O_25  and  C_26
REMARK                            x       y       z     vdW  Elec       q    Type
REMARK                         _______ _______ _______ _____ _____    ______ ____
ROOT
ATOM      1  C   UNL     1      -0.464  -0.543   0.239  0.00  0.00    +0.000 C 
ATOM      2  C   UNL     1      -0.994  -0.789  -1.190  0.00  0.00    +0.000 C 
ATOM      3  C   UNL     1      -2.504  -1.095  -1.131  0.00  0.00    +0.000 C 
ATOM      4  C   UNL     1      -3.241  -0.012  -0.301  0.00  0.00    +0.000 C 
ATOM      5  O   UNL     1      -2.686   0.067   1.002  0.00  0.00    +0.000 OA
ATOM      6  C   UNL     1      -1.338   0.511   0.949  0.00  0.00    +0.000 C 
ENDROOT
BRANCH   1   8
ATOM      7  C   UNL     1       1.988  -0.792  -0.019  0.00  0.00    +0.000 C 
ATOM      8  N   UNL     1       0.923  -0.073   0.200  0.00  0.00    +0.000 NA
BRANCH   7   9
ATOM      9  C   UNL     1       3.318  -0.137  -0.048  0.00  0.00    +0.000 A 
ATOM     10  C   UNL     1       4.478  -0.899  -0.285  0.00  0.00    +0.000 A 
ATOM     11  C   UNL     1       5.735  -0.287  -0.315  0.00  0.00    +0.000 A 
ATOM     12  C   UNL     1       5.851   1.089  -0.109  0.00  0.00    +0.000 A 
ATOM     13  C   UNL     1       4.709   1.857   0.127  0.00  0.00    +0.000 A 
ATOM     14  C   UNL     1       3.449   1.252   0.158  0.00  0.00    +0.000 A 
ENDBRANCH   7   9
BRANCH   7  16
ATOM     15  H   UNL     1       1.050  -2.702  -0.181  0.00  0.00    +0.000 HD
ATOM     16  O   UNL     1       1.911  -2.175  -0.222  0.00  0.00    +0.000 OA
ENDBRANCH   7  16
ENDBRANCH   1   8
BRANCH   2  17
ATOM     17  O   UNL     1      -0.750   0.348  -1.984  0.00  0.00    +0.000 OA
ATOM     18  H   UNL     1      -0.638   0.033  -2.919  0.00  0.00    +0.000 HD
ENDBRANCH   2  17
BRANCH   3  19
ATOM     19  O   UNL     1      -3.042  -1.227  -2.425  0.00  0.00    +0.000 OA
ATOM     20  H   UNL     1      -3.081  -0.323  -2.834  0.00  0.00    +0.000 HD
ENDBRANCH   3  19
BRANCH   6  21
ATOM     21  O   UNL     1      -0.854   0.671   2.269  0.00  0.00    +0.000 OA
ATOM     22  C   UNL     1      -1.370   1.857   2.835  0.00  0.00    +0.000 C 
ENDBRANCH   6  21
BRANCH   4  23
ATOM     23  C   UNL     1      -4.742  -0.314  -0.177  0.00  0.00    +0.000 C 
BRANCH  23  24
ATOM     24  O   UNL     1      -4.960  -1.497   0.547  0.00  0.00    +0.000 OA
ATOM     25  H   UNL     1      -5.014  -2.235  -0.115  0.00  0.00    +0.000 HD
ENDBRANCH  23  24
ENDBRANCH   4  23
TORSDOF 8
