REMARK  Name = ZINC000101178654
REMARK  11 active torsions:
REMARK  status: ('A' for Active; 'I' for Inactive)
REMARK    1  A    between atoms: O_2  and  C_3
REMARK    2  A    between atoms: C_3  and  C_36
REMARK    3  A    between atoms: N_4  and  C_5
REMARK    4  A    between atoms: C_7  and  O_9
REMARK    5  A    between atoms: C_11  and  O_13
REMARK    6  A    between atoms: C_15  and  C_17
REMARK    7  A    between atoms: C_17  and  O_20
REMARK    8  A    between atoms: C_23  and  O_25
REMARK    9  A    between atoms: O_25  and  C_26
REMARK   10  A    between atoms: C_26  and  C_28
REMARK   11  A    between atoms: C_26  and  C_32
REMARK                            x       y       z     vdW  Elec       q    Type
REMARK                         _______ _______ _______ _____ _____    ______ ____
ROOT
ATOM      1  C   UNL     1       0.967   0.495   0.361  0.00  0.00    +0.000 C 
ATOM      2  C   UNL     1       2.079  -0.526   0.018  0.00  0.00    +0.000 C 
ATOM      3  C   UNL     1       1.635  -1.963   0.376  0.00  0.00    +0.000 C 
ATOM      4  C   UNL     1       0.194  -2.248  -0.122  0.00  0.00    +0.000 C 
ATOM      5  O   UNL     1      -0.696  -1.272   0.391  0.00  0.00    +0.000 OA
ATOM      6  C   UNL     1      -0.403   0.006  -0.149  0.00  0.00    +0.000 C 
ENDROOT
BRANCH   1   8
ATOM      7  C   UNL     1       2.013   2.741   0.277  0.00  0.00    +0.000 C 
ATOM      8  N   UNL     1       1.264   1.803  -0.232  0.00  0.00    +0.000 NA
ATOM      9  C   UNL     1       2.669   2.611   1.620  0.00  0.00    +0.000 C 
BRANCH   7  11
ATOM     10  H   UNL     1       1.772   4.053  -1.349  0.00  0.00    +0.000 HD
ATOM     11  O   UNL     1       2.201   3.919  -0.440  0.00  0.00    +0.000 OA
ENDBRANCH   7  11
ENDBRANCH   1   8
BRANCH   2  12
ATOM     12  O   UNL     1       2.490  -0.418  -1.326  0.00  0.00    +0.000 OA
ATOM     13  H   UNL     1       1.722  -0.649  -1.907  0.00  0.00    +0.000 HD
ENDBRANCH   2  12
BRANCH   3  14
ATOM     14  O   UNL     1       2.557  -2.910  -0.107  0.00  0.00    +0.000 OA
ATOM     15  H   UNL     1       2.462  -2.953  -1.094  0.00  0.00    +0.000 HD
ENDBRANCH   3  14
BRANCH   4  16
ATOM     16  C   UNL     1      -0.278  -3.631   0.351  0.00  0.00    +0.000 C 
BRANCH  16  17
ATOM     17  O   UNL     1      -1.591  -3.873  -0.079  0.00  0.00    +0.000 OA
ATOM     18  H   UNL     1      -1.539  -4.085  -1.047  0.00  0.00    +0.000 HD
ENDBRANCH  16  17
ENDBRANCH   4  16
BRANCH   6  19
ATOM     19  O   UNL     1      -1.389   0.923   0.290  0.00  0.00    +0.000 OA
BRANCH  19  20
ATOM     20  C   UNL     1      -2.605   0.756  -0.421  0.00  0.00    +0.000 C 
ATOM     21  C   UNL     1      -2.687   1.796  -1.542  0.00  0.00    +0.000 C 
ATOM     22  C   UNL     1      -3.766   0.940   0.554  0.00  0.00    +0.000 C 
ENDBRANCH  19  20
ENDBRANCH   6  19
TORSDOF 8
