REMARK  Name = ZINC000102205030
REMARK  11 active torsions:
REMARK  status: ('A' for Active; 'I' for Inactive)
REMARK    1  A    between atoms: O_2  and  C_3
REMARK    2  A    between atoms: C_3  and  C_35
REMARK    3  A    between atoms: N_4  and  C_5
REMARK    4  A    between atoms: C_7  and  O_9
REMARK    5  A    between atoms: C_11  and  O_13
REMARK    6  A    between atoms: C_15  and  C_17
REMARK    7  A    between atoms: C_17  and  O_20
REMARK    8  A    between atoms: C_23  and  O_25
REMARK    9  A    between atoms: O_25  and  C_26
REMARK   10  A    between atoms: C_26  and  C_29
REMARK   11  A    between atoms: C_29  and  N_32
REMARK                            x       y       z     vdW  Elec       q    Type
REMARK                         _______ _______ _______ _____ _____    ______ ____
ROOT
ATOM      1  C   UNL     1      -0.792   1.533  -0.364  0.00  0.00    +0.000 C 
ATOM      2  C   UNL     1      -2.330   1.430  -0.364  0.00  0.00    +0.000 C 
ATOM      3  C   UNL     1      -2.768   0.205  -1.194  0.00  0.00    +0.000 C 
ATOM      4  C   UNL     1      -1.993  -1.051  -0.729  0.00  0.00    +0.000 C 
ATOM      5  O   UNL     1      -0.595  -0.836  -0.837  0.00  0.00    +0.000 OA
ATOM      6  C   UNL     1      -0.177   0.186   0.056  0.00  0.00    +0.000 C 
ENDROOT
BRANCH   1   8
ATOM      7  C   UNL     1      -0.423   3.858   0.304  0.00  0.00    +0.000 C 
ATOM      8  N   UNL     1      -0.341   2.585   0.552  0.00  0.00    +0.000 NA
ATOM      9  C   UNL     1       0.057   4.839   1.323  0.00  0.00    +0.000 C 
BRANCH   7  11
ATOM     10  H   UNL     1      -1.048   5.303  -1.092  0.00  0.00    +0.000 HD
ATOM     11  O   UNL     1      -0.970   4.314  -0.894  0.00  0.00    +0.000 OA
ENDBRANCH   7  11
ENDBRANCH   1   8
BRANCH   2  12
ATOM     12  O   UNL     1      -2.798   1.320   0.959  0.00  0.00    +0.000 OA
ATOM     13  H   UNL     1      -3.738   1.639   0.961  0.00  0.00    +0.000 HD
ENDBRANCH   2  12
BRANCH   3  14
ATOM     14  O   UNL     1      -4.150  -0.006  -1.061  0.00  0.00    +0.000 OA
ATOM     15  H   UNL     1      -4.600   0.712  -1.580  0.00  0.00    +0.000 HD
ENDBRANCH   3  14
BRANCH   4  16
ATOM     16  C   UNL     1      -2.365  -2.289  -1.560  0.00  0.00    +0.000 C 
BRANCH  16  17
ATOM     17  O   UNL     1      -1.971  -2.135  -2.897  0.00  0.00    +0.000 OA
ATOM     18  H   UNL     1      -2.746  -1.748  -3.382  0.00  0.00    +0.000 HD
ENDBRANCH  16  17
ENDBRANCH   4  16
BRANCH   6  19
ATOM     19  O   UNL     1       1.232   0.309   0.013  0.00  0.00    +0.000 OA
BRANCH  19  20
ATOM     20  C   UNL     1       1.863  -0.875   0.466  0.00  0.00    +0.000 C 
BRANCH  20  21
ATOM     21  C   UNL     1       3.125  -0.506   1.246  0.00  0.00    +0.000 C 
BRANCH  21  22
ATOM     22  N   UNL     1       2.799   0.311   2.410  0.00  0.00    +0.000 NA
ATOM     23  N   UNL     1       2.119  -0.141   3.331  0.00  0.00    +0.000 NA
ATOM     24  N   UNL     1       1.438  -0.592   4.250  0.00  0.00    +0.000 NA
ENDBRANCH  21  22
ENDBRANCH  20  21
ENDBRANCH  19  20
ENDBRANCH   6  19
TORSDOF 10
