REMARK  Name = ZINC000616582453
REMARK  14 active torsions:
REMARK  status: ('A' for Active; 'I' for Inactive)
REMARK    1  A    between atoms: O_2  and  C_3
REMARK    2  A    between atoms: C_3  and  C_45
REMARK    3  A    between atoms: N_4  and  C_5
REMARK    4  A    between atoms: C_7  and  O_9
REMARK    5  A    between atoms: C_11  and  O_13
REMARK    6  A    between atoms: C_15  and  C_17
REMARK    7  A    between atoms: C_17  and  O_20
REMARK    8  A    between atoms: C_23  and  O_25
REMARK    9  A    between atoms: O_25  and  C_26
REMARK   10  A    between atoms: C_26  and  C_29
REMARK   11  A    between atoms: C_29  and  C_32
REMARK   12  A    between atoms: C_32  and  C_35
REMARK   13  A    between atoms: C_35  and  C_38
REMARK   14  A    between atoms: C_38  and  C_41
REMARK                            x       y       z     vdW  Elec       q    Type
REMARK                         _______ _______ _______ _____ _____    ______ ____
ROOT
ATOM      1  C   UNL     1      -0.594  -0.153  -1.848  0.00  0.00    +0.000 C 
ATOM      2  C   UNL     1      -1.331   0.842  -2.765  0.00  0.00    +0.000 C 
ATOM      3  C   UNL     1      -2.788   1.008  -2.294  0.00  0.00    +0.000 C 
ATOM      4  C   UNL     1      -2.822   1.322  -0.777  0.00  0.00    +0.000 C 
ATOM      5  O   UNL     1      -2.158   0.300  -0.053  0.00  0.00    +0.000 OA
ATOM      6  C   UNL     1      -0.777   0.266  -0.375  0.00  0.00    +0.000 C 
ENDROOT
BRANCH   1   8
ATOM      7  C   UNL     1       1.617  -1.216  -2.231  0.00  0.00    +0.000 C 
ATOM      8  N   UNL     1       0.833  -0.177  -2.194  0.00  0.00    +0.000 NA
ATOM      9  C   UNL     1       1.122  -2.611  -1.955  0.00  0.00    +0.000 C 
BRANCH   7  11
ATOM     10  H   UNL     1       3.608  -1.793  -2.620  0.00  0.00    +0.000 HD
ATOM     11  O   UNL     1       2.954  -1.021  -2.566  0.00  0.00    +0.000 OA
ENDBRANCH   7  11
ENDBRANCH   1   8
BRANCH   2  12
ATOM     12  O   UNL     1      -0.688   2.094  -2.754  0.00  0.00    +0.000 OA
ATOM     13  H   UNL     1       0.033   2.058  -3.435  0.00  0.00    +0.000 HD
ENDBRANCH   2  12
BRANCH   3  14
ATOM     14  O   UNL     1      -3.406   2.041  -3.019  0.00  0.00    +0.000 OA
ATOM     15  H   UNL     1      -3.595   1.681  -3.925  0.00  0.00    +0.000 HD
ENDBRANCH   3  14
BRANCH   4  16
ATOM     16  C   UNL     1      -4.266   1.407  -0.254  0.00  0.00    +0.000 C 
BRANCH  16  17
ATOM     17  O   UNL     1      -4.938   2.517  -0.788  0.00  0.00    +0.000 OA
ATOM     18  H   UNL     1      -4.585   3.316  -0.317  0.00  0.00    +0.000 HD
ENDBRANCH  16  17
ENDBRANCH   4  16
BRANCH   6  19
ATOM     19  O   UNL     1      -0.143  -0.692   0.451  0.00  0.00    +0.000 OA
BRANCH  19  20
ATOM     20  C   UNL     1       0.123  -0.166   1.737  0.00  0.00    +0.000 C 
BRANCH  20  21
ATOM     21  C   UNL     1       1.576   0.321   1.809  0.00  0.00    +0.000 C 
BRANCH  21  22
ATOM     22  C   UNL     1       1.902   1.056   3.121  0.00  0.00    +0.000 C 
BRANCH  22  23
ATOM     23  C   UNL     1       1.750   0.206   4.395  0.00  0.00    +0.000 C 
BRANCH  23  24
ATOM     24  C   UNL     1       2.703  -0.997   4.428  0.00  0.00    +0.000 C 
ATOM     25  C   UNL     1       2.648  -1.704   5.779  0.00  0.00    +0.000 C 
ENDBRANCH  23  24
ENDBRANCH  22  23
ENDBRANCH  21  22
ENDBRANCH  20  21
ENDBRANCH  19  20
ENDBRANCH   6  19
TORSDOF 12
