REMARK  Name = 46174147
REMARK  8 active torsions:
REMARK  status: ('A' for Active; 'I' for Inactive)
REMARK    1  A    between atoms: C_1  and  C_2
REMARK    2  A    between atoms: N_4  and  C_5
REMARK    3  A    between atoms: C_6  and  O_7
REMARK    4  A    between atoms: O_7  and  C_8
REMARK    5  A    between atoms: C_12  and  C_13
REMARK    6  A    between atoms: C_13  and  O_14
REMARK    7  A    between atoms: C_15  and  O_16
REMARK    8  A    between atoms: C_17  and  O_18
REMARK                            x       y       z     vdW  Elec       q    Type
REMARK                         _______ _______ _______ _____ _____    ______ ____
ROOT
ATOM      1  C   UNL     1      -1.181  -0.698   0.352  0.00  0.00    +0.000 C 
ATOM      2  C   UNL     1      -0.221   0.252  -0.394  0.00  0.00    +0.000 C 
ATOM      3  O   UNL     1      -0.154   1.519   0.243  0.00  0.00    +0.000 OA
ATOM      4  C   UNL     1      -1.416   2.170   0.254  0.00  0.00    +0.000 C 
ATOM      5  C   UNL     1      -2.451   1.355   1.068  0.00  0.00    +0.000 C 
ATOM      6  C   UNL     1      -2.574  -0.056   0.471  0.00  0.00    +0.000 C 
ENDROOT
BRANCH   1  10
ATOM      7  C   UNL     1      -0.337  -4.244  -1.038  0.00  0.00    +0.000 C 
ATOM      8  C   UNL     1      -0.211  -2.962  -0.281  0.00  0.00    +0.000 C 
ATOM      9  O   UNL     1       0.807  -2.760   0.435  0.00  0.00    +0.000 OA
ATOM     10  N   UNL     1      -1.263  -1.989  -0.342  0.00  0.00    +0.000 N 
ATOM     11  H   UNL     1      -2.123  -2.228  -0.887  0.00  0.00    +0.000 HD
ENDBRANCH   1  10
BRANCH   5  12
ATOM     12  O   UNL     1      -3.708   1.982   1.020  0.00  0.00    +0.000 OA
ATOM     13  H   UNL     1      -3.775   2.564   1.821  0.00  0.00    +0.000 HD
ENDBRANCH   5  12
BRANCH   6  14
ATOM     14  O   UNL     1      -3.382  -0.857   1.296  0.00  0.00    +0.000 OA
ATOM     15  H   UNL     1      -4.325  -0.625   1.089  0.00  0.00    +0.000 HD
ENDBRANCH   6  14
BRANCH   2  16
ATOM     16  O   UNL     1      -0.598   0.379  -1.768  0.00  0.00    +0.000 OA
BRANCH  16  17
ATOM     17  C   UNL     1       0.183   1.051  -2.713  0.00  0.00    +0.000 C 
ATOM     18  N   UNL     1      -0.272   1.145  -4.059  0.00  0.00    +0.000 N 
ATOM     19  O   UNL     1       1.283   1.573  -2.386  0.00  0.00    +0.000 OA
ATOM     20  H   UNL     1       0.301   1.642  -4.778  0.00  0.00    +0.000 HD
ATOM     21  H   UNL     1      -1.182   0.718  -4.337  0.00  0.00    +0.000 HD
ENDBRANCH  16  17
ENDBRANCH   2  16
BRANCH   4  22
ATOM     22  C   UNL     1      -1.228   3.583   0.828  0.00  0.00    +0.000 C 
BRANCH  22  23
ATOM     23  O   UNL     1      -0.805   3.538   2.165  0.00  0.00    +0.000 OA
ATOM     24  H   UNL     1       0.169   3.348   2.151  0.00  0.00    +0.000 HD
ENDBRANCH  22  23
ENDBRANCH   4  22
TORSDOF 7
