REMARK  Name = 45933887
REMARK  6 active torsions:
REMARK  status: ('A' for Active; 'I' for Inactive)
REMARK    1  A    between atoms: N_1  and  C_2
REMARK    2  A    between atoms: C_3  and  O_4
REMARK    3  A    between atoms: C_6  and  C_7
REMARK    4  A    between atoms: C_7  and  O_8
REMARK    5  A    between atoms: C_9  and  O_10
REMARK    6  A    between atoms: C_11  and  O_12
REMARK                            x       y       z     vdW  Elec       q    Type
REMARK                         _______ _______ _______ _____ _____    ______ ____
ROOT
ATOM      1  C   UNL     1      -1.479  -0.136   0.394  0.00  0.00    +0.000 C 
ATOM      2  C   UNL     1      -0.756   1.218   0.583  0.00  0.00    +0.000 C 
ATOM      3  O   UNL     1       0.596   1.008   0.952  0.00  0.00    +0.000 OA
ATOM      4  C   UNL     1       1.311   0.387  -0.102  0.00  0.00    +0.000 C 
ATOM      5  C   UNL     1       0.770  -1.040  -0.343  0.00  0.00    +0.000 C 
ATOM      6  C   UNL     1      -0.733  -0.978  -0.666  0.00  0.00    +0.000 C 
ENDROOT
BRANCH   1   7
ATOM      7  N   UNL     1      -2.880   0.072   0.002  0.00  0.00    +0.000 N 
ATOM      8  H   UNL     1      -3.380   0.627   0.733  0.00  0.00    +0.000 HD
ATOM      9  H   UNL     1      -2.936   0.579  -0.911  0.00  0.00    +0.000 HD
ATOM     10  H   UNL     1      -3.369  -0.848  -0.084  0.00  0.00    +0.000 HD
ENDBRANCH   1   7
BRANCH   2  11
ATOM     11  O   UNL     1      -1.390   1.941   1.603  0.00  0.00    +0.000 OA
ATOM     12  H   UNL     1      -0.970   2.841   1.612  0.00  0.00    +0.000 HD
ENDBRANCH   2  11
BRANCH   5  13
ATOM     13  O   UNL     1       1.459  -1.632  -1.415  0.00  0.00    +0.000 OA
ATOM     14  H   UNL     1       1.346  -2.614  -1.323  0.00  0.00    +0.000 HD
ENDBRANCH   5  13
BRANCH   6  15
ATOM     15  O   UNL     1      -1.249  -2.286  -0.689  0.00  0.00    +0.000 OA
ATOM     16  H   UNL     1      -1.951  -2.312  -1.391  0.00  0.00    +0.000 HD
ENDBRANCH   6  15
BRANCH   4  17
ATOM     17  C   UNL     1       2.796   0.348   0.278  0.00  0.00    +0.000 C 
BRANCH  17  18
ATOM     18  O   UNL     1       3.264   1.653   0.480  0.00  0.00    +0.000 OA
ATOM     19  H   UNL     1       4.221   1.567   0.732  0.00  0.00    +0.000 HD
ENDBRANCH  17  18
ENDBRANCH   4  17
TORSDOF 6
