REMARK  Name = 49802606
REMARK  8 active torsions:
REMARK  status: ('A' for Active; 'I' for Inactive)
REMARK    1  A    between atoms: O_2  and  C_3
REMARK    2  A    between atoms: C_3  and  C_27
REMARK    3  A    between atoms: N_4  and  C_5
REMARK    4  A    between atoms: C_7  and  O_9
REMARK    5  A    between atoms: C_12  and  C_14
REMARK    6  A    between atoms: C_14  and  O_17
REMARK    7  A    between atoms: C_19  and  O_21
REMARK    8  A    between atoms: C_23  and  O_25
REMARK                            x       y       z     vdW  Elec       q    Type
REMARK                         _______ _______ _______ _____ _____    ______ ____
ROOT
ATOM      1  C   UNL     1       0.532   0.464   0.474  0.00  0.00    +0.000 C 
ATOM      2  C   UNL     1      -0.298   1.315   1.464  0.00  0.00    +0.000 C 
ATOM      3  O   UNL     1      -1.580   0.739   1.667  0.00  0.00    +0.000 OA
ATOM      4  C   UNL     1      -2.332   0.756   0.465  0.00  0.00    +0.000 C 
ATOM      5  C   UNL     1      -1.685  -0.170  -0.590  0.00  0.00    +0.000 C 
ATOM      6  C   UNL     1      -0.245   0.317  -0.851  0.00  0.00    +0.000 C 
ENDROOT
BRANCH   1   8
ATOM      7  C   UNL     1       2.887   0.969   0.931  0.00  0.00    +0.000 C 
ATOM      8  N   UNL     1       1.820   1.107   0.201  0.00  0.00    +0.000 NA
BRANCH   7   9
ATOM      9  C   UNL     1       4.148   1.686   0.552  0.00  0.00    +0.000 C 
ATOM     10  F   UNL     1       4.602   2.419   1.632  0.00  0.00    +0.000 F 
ATOM     11  F   UNL     1       5.110   0.760   0.195  0.00  0.00    +0.000 F 
ATOM     12  F   UNL     1       3.928   2.543  -0.512  0.00  0.00    +0.000 F 
ENDBRANCH   7   9
BRANCH   7  14
ATOM     13  H   UNL     1       3.705   0.017   2.623  0.00  0.00    +0.000 HD
ATOM     14  O   UNL     1       2.876   0.140   2.053  0.00  0.00    +0.000 OA
ENDBRANCH   7  14
ENDBRANCH   1   8
BRANCH   2  15
ATOM     15  O   UNL     1       0.367   1.374   2.696  0.00  0.00    +0.000 OA
ATOM     16  H   UNL     1      -0.137   2.019   3.257  0.00  0.00    +0.000 HD
ENDBRANCH   2  15
BRANCH   5  17
ATOM     17  O   UNL     1      -1.673  -1.496  -0.123  0.00  0.00    +0.000 OA
ATOM     18  H   UNL     1      -1.725  -2.086  -0.919  0.00  0.00    +0.000 HD
ENDBRANCH   5  17
BRANCH   6  19
ATOM     19  O   UNL     1       0.424  -0.531  -1.754  0.00  0.00    +0.000 OA
ATOM     20  H   UNL     1       0.612  -1.388  -1.290  0.00  0.00    +0.000 HD
ENDBRANCH   6  19
BRANCH   4  21
ATOM     21  C   UNL     1      -3.788   0.360   0.764  0.00  0.00    +0.000 C 
BRANCH  21  22
ATOM     22  O   UNL     1      -3.863  -0.886   1.404  0.00  0.00    +0.000 OA
ATOM     23  H   UNL     1      -3.661  -0.729   2.363  0.00  0.00    +0.000 HD
ENDBRANCH  21  22
ENDBRANCH   4  21
TORSDOF 8
