REMARK  Name = 129878031
REMARK  10 active torsions:
REMARK  status: ('A' for Active; 'I' for Inactive)
REMARK    1  A    between atoms: O_2  and  C_3
REMARK    2  A    between atoms: C_3  and  N_13
REMARK    3  A    between atoms: C_4  and  C_6
REMARK    4  A    between atoms: C_6  and  C_9
REMARK    5  A    between atoms: N_13  and  C_15
REMARK    6  A    between atoms: C_17  and  O_19
REMARK    7  A    between atoms: C_22  and  C_24
REMARK    8  A    between atoms: C_24  and  O_27
REMARK    9  A    between atoms: C_29  and  O_31
REMARK   10  A    between atoms: C_33  and  O_35
REMARK                            x       y       z     vdW  Elec       q    Type
REMARK                         _______ _______ _______ _____ _____    ______ ____
ROOT
ATOM      1  C   UNL     1       0.218  -0.106  -0.690  0.00  0.00    +0.000 C 
ATOM      2  C   UNL     1       1.320   0.566   0.173  0.00  0.00    +0.000 C 
ATOM      3  O   UNL     1       1.126   1.966   0.303  0.00  0.00    +0.000 OA
ATOM      4  C   UNL     1       1.147   2.629  -0.951  0.00  0.00    +0.000 C 
ATOM      5  C   UNL     1      -0.038   2.173  -1.829  0.00  0.00    +0.000 C 
ATOM      6  C   UNL     1       0.029   0.644  -2.031  0.00  0.00    +0.000 C 
ENDROOT
BRANCH   1   7
ATOM      7  N   UNL     1      -1.040  -0.151   0.074  0.00  0.00    +0.000 N 
ATOM      8  H   UNL     1      -1.661   0.688   0.056  0.00  0.00    +0.000 HD
BRANCH   7   9
ATOM      9  C   UNL     1      -1.450  -1.233   0.933  0.00  0.00    +0.000 C 
ATOM     10  C   UNL     1      -0.603  -2.203   1.318  0.00  0.00    +0.000 C 
BRANCH   9  12
ATOM     11  H   UNL     1      -3.432  -0.546   1.116  0.00  0.00    +0.000 HD
ATOM     12  O   UNL     1      -2.768  -1.261   1.388  0.00  0.00    +0.000 OA
ENDBRANCH   9  12
BRANCH  10  13
ATOM     13  C   UNL     1      -1.024  -3.334   2.215  0.00  0.00    +0.000 C 
BRANCH  13  14
ATOM     14  C   UNL     1      -1.142  -2.877   3.666  0.00  0.00    +0.000 C 
ATOM     15  H   UNL     1      -0.174  -2.462   4.018  0.00  0.00    +0.000 HD
ENDBRANCH  13  14
ENDBRANCH  10  13
ENDBRANCH   7   9
ENDBRANCH   1   7
BRANCH   2  16
ATOM     16  O   UNL     1       2.632   0.266  -0.248  0.00  0.00    +0.000 OA
ATOM     17  H   UNL     1       2.655   0.224  -1.236  0.00  0.00    +0.000 HD
ENDBRANCH   2  16
BRANCH   5  18
ATOM     18  O   UNL     1       0.027   2.813  -3.079  0.00  0.00    +0.000 OA
ATOM     19  H   UNL     1      -0.881   2.762  -3.476  0.00  0.00    +0.000 HD
ENDBRANCH   5  18
BRANCH   6  20
ATOM     20  O   UNL     1      -1.088   0.157  -2.735  0.00  0.00    +0.000 OA
ATOM     21  H   UNL     1      -1.908   0.504  -2.297  0.00  0.00    +0.000 HD
ENDBRANCH   6  20
BRANCH   4  22
ATOM     22  C   UNL     1       1.078   4.143  -0.696  0.00  0.00    +0.000 C 
BRANCH  22  23
ATOM     23  O   UNL     1       2.192   4.565   0.044  0.00  0.00    +0.000 OA
ATOM     24  H   UNL     1       1.993   4.373   0.998  0.00  0.00    +0.000 HD
ENDBRANCH  22  23
ENDBRANCH   4  22
TORSDOF 10
