REMARK  Name = 45266822
REMARK  15 active torsions:
REMARK  status: ('A' for Active; 'I' for Inactive)
REMARK    1  A    between atoms: C_1  and  C_2
REMARK    2  A    between atoms: N_4  and  C_5
REMARK    3  A    between atoms: C_6  and  O_7
REMARK    4  A    between atoms: C_9  and  C_10
REMARK    5  A    between atoms: C_10  and  O_11
REMARK    6  A    between atoms: O_11  and  P_12
REMARK    7  A    between atoms: P_12  and  O_15
REMARK    8  A    between atoms: O_15  and  C_16
REMARK    9  A    between atoms: C_16  and  C_17
REMARK   10  A    between atoms: C_17  and  N_18
REMARK   11  A    between atoms: N_18  and  C_19
REMARK   12  A    between atoms: N_18  and  C_20
REMARK   13  A    between atoms: N_18  and  C_21
REMARK   14  A    between atoms: C_22  and  O_23
REMARK   15  A    between atoms: C_24  and  O_25
REMARK                            x       y       z     vdW  Elec       q    Type
REMARK                         _______ _______ _______ _____ _____    ______ ____
ROOT
ATOM      1  C   UNL     1       4.173   0.428   0.496  0.00  0.00    +0.000 C 
ATOM      2  C   UNL     1       4.012  -0.893  -0.291  0.00  0.00    +0.000 C 
ATOM      3  O   UNL     1       2.693  -1.043  -0.800  0.00  0.00    +0.000 OA
ATOM      4  C   UNL     1       1.732  -1.073   0.244  0.00  0.00    +0.000 C 
ATOM      5  C   UNL     1       1.708   0.268   1.011  0.00  0.00    +0.000 C 
ATOM      6  C   UNL     1       3.102   0.529   1.604  0.00  0.00    +0.000 C 
ENDROOT
BRANCH   1  10
ATOM      7  C   UNL     1       8.022   0.901   0.906  0.00  0.00    +0.000 C 
ATOM      8  C   UNL     1       6.667   0.873   0.279  0.00  0.00    +0.000 C 
ATOM      9  O   UNL     1       6.538   1.165  -0.941  0.00  0.00    +0.000 OA
ATOM     10  N   UNL     1       5.522   0.515   1.066  0.00  0.00    +0.000 N 
ATOM     11  H   UNL     1       5.670   0.295   2.078  0.00  0.00    +0.000 HD
ENDBRANCH   1  10
BRANCH   2  12
ATOM     12  O   UNL     1       4.378  -1.995   0.502  0.00  0.00    +0.000 OA
ATOM     13  H   UNL     1       4.359  -2.788  -0.095  0.00  0.00    +0.000 HD
ENDBRANCH   2  12
BRANCH   5  14
ATOM     14  O   UNL     1       1.347   1.314   0.143  0.00  0.00    +0.000 OA
ATOM     15  H   UNL     1       0.949   2.032   0.702  0.00  0.00    +0.000 HD
ENDBRANCH   5  14
BRANCH   6  16
ATOM     16  O   UNL     1       3.130   1.804   2.193  0.00  0.00    +0.000 OA
ATOM     17  H   UNL     1       3.856   1.798   2.870  0.00  0.00    +0.000 HD
ENDBRANCH   6  16
BRANCH   4  18
ATOM     18  C   UNL     1       0.357  -1.419  -0.345  0.00  0.00    +0.000 C 
BRANCH  18  19
ATOM     19  O   UNL     1       0.044  -0.535  -1.396  0.00  0.00    +0.000 OA
BRANCH  19  20
ATOM     20  P   UNL     1      -1.513  -0.919  -1.972  0.00  0.00    +0.000 P 
ATOM     21  O   UNL     1      -1.858   0.031  -3.097  0.00  0.00    +0.000 OA
ATOM     22  O   UNL     1      -1.526  -2.506  -2.563  0.00  0.00    +0.000 OA
BRANCH  20  23
ATOM     23  O   UNL     1      -2.645  -0.746  -0.707  0.00  0.00    +0.000 OA
BRANCH  23  24
ATOM     24  C   UNL     1      -3.906  -1.167  -1.170  0.00  0.00    +0.000 C 
BRANCH  24  25
ATOM     25  C   UNL     1      -4.967  -0.964  -0.067  0.00  0.00    +0.000 C 
BRANCH  25  26
ATOM     26  N   UNL     1      -5.444   0.441   0.132  0.00  0.00    +0.000 N 
ATOM     27  C   UNL     1      -6.201   0.924  -1.049  0.00  0.00    +0.000 C 
ATOM     28  C   UNL     1      -4.322   1.368   0.414  0.00  0.00    +0.000 C 
ATOM     29  C   UNL     1      -6.359   0.450   1.300  0.00  0.00    +0.000 C 
ENDBRANCH  25  26
ENDBRANCH  24  25
ENDBRANCH  23  24
ENDBRANCH  20  23
ENDBRANCH  19  20
ENDBRANCH  18  19
ENDBRANCH   4  18
TORSDOF 11
