REMARK  Name = 45357367
REMARK  8 active torsions:
REMARK  status: ('A' for Active; 'I' for Inactive)
REMARK    1  A    between atoms: C_1  and  N_2
REMARK    2  A    between atoms: N_2  and  N_3
REMARK    3  A    between atoms: N_7  and  C_8
REMARK    4  A    between atoms: C_9  and  O_10
REMARK    5  A    between atoms: C_12  and  C_13
REMARK    6  A    between atoms: C_13  and  O_14
REMARK    7  A    between atoms: C_15  and  O_16
REMARK    8  A    between atoms: C_17  and  O_18
REMARK                            x       y       z     vdW  Elec       q    Type
REMARK                         _______ _______ _______ _____ _____    ______ ____
ROOT
ATOM      1  C   UNL     1       0.038   0.097  -1.290  0.00  0.00    +0.000 C 
ATOM      2  C   UNL     1       1.291  -0.356  -2.069  0.00  0.00    +0.000 C 
ATOM      3  O   UNL     1       2.062  -1.239  -1.274  0.00  0.00    +0.000 OA
ATOM      4  C   UNL     1       2.598  -0.569  -0.145  0.00  0.00    +0.000 C 
ATOM      5  C   UNL     1       1.456  -0.123   0.802  0.00  0.00    +0.000 C 
ATOM      6  C   UNL     1       0.464   0.770   0.029  0.00  0.00    +0.000 C 
ENDROOT
BRANCH   1  11
ATOM      7  C   UNL     1      -4.370   2.001  -2.911  0.00  0.00    +0.000 C 
ATOM      8  N   UNL     1      -2.905   1.972  -2.936  0.00  0.00    +0.000 N 
ATOM      9  C   UNL     1      -2.184   1.017  -2.136  0.00  0.00    +0.000 C 
ATOM     10  O   UNL     1      -2.817   0.155  -1.466  0.00  0.00    +0.000 OA
ATOM     11  N   UNL     1      -0.747   1.038  -2.096  0.00  0.00    +0.000 N 
ATOM     12  H   UNL     1      -0.242   1.833  -2.550  0.00  0.00    +0.000 HD
BRANCH   8  13
ATOM     13  N   UNL     1      -2.196   2.767  -3.854  0.00  0.00    +0.000 NA
ATOM     14  O   UNL     1      -2.782   3.541  -4.639  0.00  0.00    +0.000 OA
ENDBRANCH   8  13
ENDBRANCH   1  11
BRANCH   2  15
ATOM     15  O   UNL     1       0.899  -1.043  -3.228  0.00  0.00    +0.000 OA
ATOM     16  H   UNL     1       0.676  -0.359  -3.913  0.00  0.00    +0.000 HD
ENDBRANCH   2  15
BRANCH   5  17
ATOM     17  O   UNL     1       1.986   0.596   1.886  0.00  0.00    +0.000 OA
ATOM     18  H   UNL     1       1.308   0.565   2.611  0.00  0.00    +0.000 HD
ENDBRANCH   5  17
BRANCH   6  19
ATOM     19  O   UNL     1      -0.657   1.078   0.820  0.00  0.00    +0.000 OA
ATOM     20  H   UNL     1      -1.114   0.224   1.041  0.00  0.00    +0.000 HD
ENDBRANCH   6  19
BRANCH   4  21
ATOM     21  C   UNL     1       3.566  -1.534   0.560  0.00  0.00    +0.000 C 
BRANCH  21  22
ATOM     22  O   UNL     1       4.277  -0.888   1.582  0.00  0.00    +0.000 OA
ATOM     23  H   UNL     1       4.962  -0.322   1.139  0.00  0.00    +0.000 HD
ENDBRANCH  21  22
ENDBRANCH   4  21
TORSDOF 7
