REMARK  Name = 118707521
REMARK  10 active torsions:
REMARK  status: ('A' for Active; 'I' for Inactive)
REMARK    1  A    between atoms: C_1  and  N_2
REMARK    2  A    between atoms: C_3  and  C_4
REMARK    3  A    between atoms: N_6  and  C_7
REMARK    4  A    between atoms: C_8  and  O_9
REMARK    5  A    between atoms: C_11  and  C_12
REMARK    6  A    between atoms: C_12  and  O_13
REMARK    7  A    between atoms: C_14  and  O_15
REMARK    8  A    between atoms: C_16  and  O_17
REMARK    9  A    between atoms: C_21  and  C_22
REMARK   10  A    between atoms: C_29  and  C_30
REMARK                            x       y       z     vdW  Elec       q    Type
REMARK                         _______ _______ _______ _____ _____    ______ ____
ROOT
ATOM      1  C   UNL     1       0.215   0.624  -0.405  0.00  0.00    +0.000 A 
ATOM      2  C   UNL     1       1.210  -0.331  -0.336  0.00  0.00    +0.000 A 
ATOM      3  N   UNL     1       2.373   0.331  -0.464  0.00  0.00    +0.000 N 
ATOM      4  N   UNL     1       2.109   1.623  -0.582  0.00  0.00    +0.000 NA
ATOM      5  N   UNL     1       0.801   1.831  -0.545  0.00  0.00    +0.000 NA
ENDROOT
BRANCH   1   8
ATOM      6  C   UNL     1      -1.415  -1.951  -1.077  0.00  0.00    +0.000 C 
ATOM      7  N   UNL     1      -1.928  -0.704  -0.505  0.00  0.00    +0.000 N 
ATOM      8  C   UNL     1      -1.241   0.439  -0.256  0.00  0.00    +0.000 A 
ATOM      9  N   UNL     1      -2.041   1.447   0.150  0.00  0.00    +0.000 NA
ATOM     10  C   UNL     1      -3.278   0.913   0.188  0.00  0.00    +0.000 A 
ATOM     11  C   UNL     1      -3.215  -0.415  -0.211  0.00  0.00    +0.000 A 
BRANCH  10  12
ATOM     12  C   UNL     1      -4.467   1.677   0.626  0.00  0.00    +0.000 A 
ATOM     13  C   UNL     1      -4.568   3.043   0.314  0.00  0.00    +0.000 A 
ATOM     14  C   UNL     1      -5.680   3.783   0.729  0.00  0.00    +0.000 A 
ATOM     15  C   UNL     1      -6.693   3.169   1.470  0.00  0.00    +0.000 A 
ATOM     16  F   UNL     1      -7.770   3.888   1.873  0.00  0.00    +0.000 F 
ATOM     17  C   UNL     1      -6.591   1.816   1.804  0.00  0.00    +0.000 A 
ATOM     18  C   UNL     1      -5.481   1.073   1.391  0.00  0.00    +0.000 A 
ENDBRANCH  10  12
BRANCH  11  19
ATOM     19  C   UNL     1      -4.355  -1.339  -0.399  0.00  0.00    +0.000 A 
ATOM     20  C   UNL     1      -5.466  -0.951  -1.162  0.00  0.00    +0.000 A 
ATOM     21  C   UNL     1      -6.536  -1.835  -1.316  0.00  0.00    +0.000 A 
ATOM     22  N   UNL     1      -6.498  -3.062  -0.731  0.00  0.00    +0.000 NA
ATOM     23  C   UNL     1      -5.433  -3.463   0.013  0.00  0.00    +0.000 A 
ATOM     24  C   UNL     1      -4.342  -2.610   0.194  0.00  0.00    +0.000 A 
ENDBRANCH  11  19
ENDBRANCH   1   8
BRANCH   3  25
ATOM     25  C   UNL     1       3.717  -0.249  -0.412  0.00  0.00    +0.000 C 
ATOM     26  C   UNL     1       4.536   0.168  -1.652  0.00  0.00    +0.000 C 
ATOM     27  O   UNL     1       5.836  -0.396  -1.597  0.00  0.00    +0.000 OA
ATOM     28  C   UNL     1       6.568   0.136  -0.504  0.00  0.00    +0.000 C 
ATOM     29  C   UNL     1       5.909  -0.276   0.837  0.00  0.00    +0.000 C 
ATOM     30  C   UNL     1       4.442   0.199   0.867  0.00  0.00    +0.000 C 
BRANCH  26  31
ATOM     31  O   UNL     1       3.892  -0.264  -2.821  0.00  0.00    +0.000 OA
ATOM     32  H   UNL     1       3.941  -1.256  -2.835  0.00  0.00    +0.000 HD
ENDBRANCH  26  31
BRANCH  29  33
ATOM     33  O   UNL     1       6.608   0.304   1.909  0.00  0.00    +0.000 OA
ATOM     34  H   UNL     1       6.455  -0.274   2.702  0.00  0.00    +0.000 HD
ENDBRANCH  29  33
BRANCH  30  35
ATOM     35  O   UNL     1       3.783  -0.342   1.983  0.00  0.00    +0.000 OA
ATOM     36  H   UNL     1       3.985   0.250   2.754  0.00  0.00    +0.000 HD
ENDBRANCH  30  35
BRANCH  28  37
ATOM     37  C   UNL     1       8.010  -0.390  -0.604  0.00  0.00    +0.000 C 
BRANCH  37  38
ATOM     38  O   UNL     1       8.849   0.239   0.328  0.00  0.00    +0.000 OA
ATOM     39  H   UNL     1       9.023   1.154  -0.017  0.00  0.00    +0.000 HD
ENDBRANCH  37  38
ENDBRANCH  28  37
ENDBRANCH   3  25
TORSDOF 9
