REMARK  Name = 44229083
REMARK  9 active torsions:
REMARK  status: ('A' for Active; 'I' for Inactive)
REMARK    1  A    between atoms: O_2  and  C_3
REMARK    2  A    between atoms: C_3  and  C_30
REMARK    3  A    between atoms: N_4  and  C_5
REMARK    4  A    between atoms: C_7  and  O_9
REMARK    5  A    between atoms: C_12  and  C_14
REMARK    6  A    between atoms: C_14  and  O_17
REMARK    7  A    between atoms: O_17  and  P_18
REMARK    8  A    between atoms: C_22  and  O_24
REMARK    9  A    between atoms: C_26  and  O_28
REMARK                            x       y       z     vdW  Elec       q    Type
REMARK                         _______ _______ _______ _____ _____    ______ ____
ROOT
ATOM      1  C   UNL     1      -1.327  -0.558  -0.845  0.00  0.00    +0.000 C 
ATOM      2  C   UNL     1      -0.149  -0.259  -1.821  0.00  0.00    +0.000 C 
ATOM      3  O   UNL     1       1.127  -0.343  -1.195  0.00  0.00    +0.000 OA
ATOM      4  C   UNL     1       1.140   0.390   0.016  0.00  0.00    +0.000 C 
ATOM      5  C   UNL     1       0.294  -0.340   1.101  0.00  0.00    +0.000 C 
ATOM      6  C   UNL     1      -0.804  -1.219   0.447  0.00  0.00    +0.000 C 
ENDROOT
BRANCH   1   8
ATOM      7  C   UNL     1      -3.224   0.760  -0.027  0.00  0.00    +0.000 C 
ATOM      8  N   UNL     1      -2.026   0.692  -0.528  0.00  0.00    +0.000 NA
ATOM      9  C   UNL     1      -3.816   2.097   0.281  0.00  0.00    +0.000 C 
BRANCH   7  11
ATOM     10  H   UNL     1      -4.875  -0.354   0.654  0.00  0.00    +0.000 HD
ATOM     11  O   UNL     1      -3.947  -0.399   0.249  0.00  0.00    +0.000 OA
ENDBRANCH   7  11
ENDBRANCH   1   8
BRANCH   2  12
ATOM     12  O   UNL     1      -0.188  -1.185  -2.875  0.00  0.00    +0.000 OA
ATOM     13  H   UNL     1       0.493  -0.892  -3.535  0.00  0.00    +0.000 HD
ENDBRANCH   2  12
BRANCH   5  14
ATOM     14  O   UNL     1       1.101  -1.124   1.945  0.00  0.00    +0.000 OA
ATOM     15  H   UNL     1       0.558  -1.331   2.751  0.00  0.00    +0.000 HD
ENDBRANCH   5  14
BRANCH   6  16
ATOM     16  O   UNL     1      -0.291  -2.490   0.125  0.00  0.00    +0.000 OA
ATOM     17  H   UNL     1      -0.374  -3.054   0.937  0.00  0.00    +0.000 HD
ENDBRANCH   6  16
BRANCH   4  18
ATOM     18  C   UNL     1       2.594   0.646   0.440  0.00  0.00    +0.000 C 
BRANCH  18  19
ATOM     19  O   UNL     1       3.313  -0.565   0.450  0.00  0.00    +0.000 OA
BRANCH  19  20
ATOM     20  P   UNL     1       4.901  -0.240   0.978  0.00  0.00    +0.000 P 
ATOM     21  O   UNL     1       5.698  -1.524   0.959  0.00  0.00    +0.000 OA
ATOM     22  O   UNL     1       4.874   0.368   2.557  0.00  0.00    +0.000 OA
ATOM     23  O   UNL     1       5.639   0.884  -0.048  0.00  0.00    +0.000 OA
ENDBRANCH  19  20
ENDBRANCH  18  19
ENDBRANCH   4  18
TORSDOF 8
