REMARK  Name = 44119773
REMARK  8 active torsions:
REMARK  status: ('A' for Active; 'I' for Inactive)
REMARK    1  A    between atoms: O_2  and  C_3
REMARK    2  A    between atoms: C_3  and  C_27
REMARK    3  A    between atoms: N_4  and  C_5
REMARK    4  A    between atoms: C_7  and  O_9
REMARK    5  A    between atoms: C_12  and  C_14
REMARK    6  A    between atoms: C_14  and  O_17
REMARK    7  A    between atoms: C_19  and  O_21
REMARK    8  A    between atoms: C_23  and  O_25
REMARK                            x       y       z     vdW  Elec       q    Type
REMARK                         _______ _______ _______ _____ _____    ______ ____
ROOT
ATOM      1  C   UNL     1      -1.561   0.029  -0.320  0.00  0.00    +0.000 C 
ATOM      2  C   UNL     1      -0.734  -0.859  -1.273  0.00  0.00    +0.000 C 
ATOM      3  O   UNL     1       0.638  -0.514  -1.194  0.00  0.00    +0.000 OA
ATOM      4  C   UNL     1       1.161  -0.810   0.091  0.00  0.00    +0.000 C 
ATOM      5  C   UNL     1       0.482   0.082   1.159  0.00  0.00    +0.000 C 
ATOM      6  C   UNL     1      -1.043  -0.129   1.124  0.00  0.00    +0.000 C 
ENDROOT
BRANCH   1   8
ATOM      7  C   UNL     1      -3.955   0.399   0.023  0.00  0.00    +0.000 C 
ATOM      8  N   UNL     1      -2.976  -0.343  -0.401  0.00  0.00    +0.000 NA
ATOM      9  C   UNL     1      -5.359  -0.100  -0.090  0.00  0.00    +0.000 C 
BRANCH   7  11
ATOM     10  H   UNL     1      -4.462   2.219   0.952  0.00  0.00    +0.000 HD
ATOM     11  O   UNL     1      -3.705   1.641   0.605  0.00  0.00    +0.000 OA
ENDBRANCH   7  11
ENDBRANCH   1   8
BRANCH   2  12
ATOM     12  O   UNL     1      -1.158  -0.648  -2.595  0.00  0.00    +0.000 OA
ATOM     13  H   UNL     1      -1.966  -1.206  -2.736  0.00  0.00    +0.000 HD
ENDBRANCH   2  12
BRANCH   5  14
ATOM     14  O   UNL     1       0.964  -0.229   2.443  0.00  0.00    +0.000 OA
ATOM     15  H   UNL     1       1.700   0.407   2.642  0.00  0.00    +0.000 HD
ENDBRANCH   5  14
BRANCH   6  16
ATOM     16  O   UNL     1      -1.372  -1.409   1.607  0.00  0.00    +0.000 OA
ATOM     17  H   UNL     1      -1.418  -1.344   2.597  0.00  0.00    +0.000 HD
ENDBRANCH   6  16
BRANCH   4  18
ATOM     18  C   UNL     1       2.679  -0.576   0.065  0.00  0.00    +0.000 C 
BRANCH  18  19
ATOM     19  O   UNL     1       3.284  -1.405  -0.890  0.00  0.00    +0.000 OA
ATOM     20  H   UNL     1       3.187  -0.953  -1.768  0.00  0.00    +0.000 HD
ENDBRANCH  18  19
ENDBRANCH   4  18
TORSDOF 7
