REMARK  Name = 25243963
REMARK  8 active torsions:
REMARK  status: ('A' for Active; 'I' for Inactive)
REMARK    1  A    between atoms: C_1  and  C_2
REMARK    2  A    between atoms: N_4  and  C_5
REMARK    3  A    between atoms: C_6  and  O_7
REMARK    4  A    between atoms: C_9  and  C_10
REMARK    5  A    between atoms: C_10  and  O_11
REMARK    6  A    between atoms: O_11  and  P_12
REMARK    7  A    between atoms: C_16  and  O_17
REMARK    8  A    between atoms: C_18  and  O_19
REMARK                            x       y       z     vdW  Elec       q    Type
REMARK                         _______ _______ _______ _____ _____    ______ ____
ROOT
ATOM      1  C   UNL     1       1.241  -0.586   0.699  0.00  0.00    +0.000 C 
ATOM      2  C   UNL     1       0.121   0.437   0.378  0.00  0.00    +0.000 C 
ATOM      3  O   UNL     1      -0.916   0.363   1.342  0.00  0.00    +0.000 OA
ATOM      4  C   UNL     1      -0.496   0.843   2.619  0.00  0.00    +0.000 C 
ATOM      5  C   UNL     1       1.000   0.551   2.955  0.00  0.00    +0.000 C 
ATOM      6  C   UNL     1       1.450  -0.725   2.226  0.00  0.00    +0.000 C 
ENDROOT
BRANCH   1  10
ATOM      7  C   UNL     1       1.564  -4.127  -0.907  0.00  0.00    +0.000 C 
ATOM      8  C   UNL     1       1.931  -2.753  -0.449  0.00  0.00    +0.000 C 
ATOM      9  O   UNL     1       3.125  -2.363  -0.548  0.00  0.00    +0.000 OA
ATOM     10  N   UNL     1       0.931  -1.904   0.132  0.00  0.00    +0.000 N 
ATOM     11  H   UNL     1      -0.018  -2.308   0.303  0.00  0.00    +0.000 HD
ENDBRANCH   1  10
BRANCH   2  12
ATOM     12  O   UNL     1      -0.396   0.232  -0.913  0.00  0.00    +0.000 OA
ATOM     13  H   UNL     1      -1.093  -0.472  -0.852  0.00  0.00    +0.000 HD
ENDBRANCH   2  12
BRANCH   5  14
ATOM     14  O   UNL     1       1.161   0.381   4.340  0.00  0.00    +0.000 OA
ATOM     15  H   UNL     1       1.200   1.288   4.740  0.00  0.00    +0.000 HD
ENDBRANCH   5  14
BRANCH   6  16
ATOM     16  O   UNL     1       2.807  -0.980   2.487  0.00  0.00    +0.000 OA
ATOM     17  H   UNL     1       2.855  -1.425   3.373  0.00  0.00    +0.000 HD
ENDBRANCH   6  16
BRANCH   4  18
ATOM     18  C   UNL     1      -0.835   2.334   2.766  0.00  0.00    +0.000 C 
BRANCH  18  19
ATOM     19  O   UNL     1      -2.206   2.524   2.507  0.00  0.00    +0.000 OA
BRANCH  19  20
ATOM     20  P   UNL     1      -2.552   4.188   2.646  0.00  0.00    +0.000 P 
ATOM     21  O   UNL     1      -4.026   4.406   2.393  0.00  0.00    +0.000 OA
ATOM     22  O   UNL     1      -1.661   5.064   1.504  0.00  0.00    +0.000 OA
ATOM     23  O   UNL     1      -2.171   4.735   4.200  0.00  0.00    +0.000 OA
ENDBRANCH  19  20
ENDBRANCH  18  19
ENDBRANCH   4  18
TORSDOF 7
