REMARK  Name = 16738680
REMARK  11 active torsions:
REMARK  status: ('A' for Active; 'I' for Inactive)
REMARK    1  A    between atoms: O_2  and  C_3
REMARK    2  A    between atoms: C_3  and  C_35
REMARK    3  A    between atoms: N_4  and  C_5
REMARK    4  A    between atoms: C_7  and  O_9
REMARK    5  A    between atoms: C_12  and  C_14
REMARK    6  A    between atoms: C_14  and  O_17
REMARK    7  A    between atoms: C_19  and  O_21
REMARK    8  A    between atoms: C_23  and  O_25
REMARK    9  A    between atoms: O_25  and  C_26
REMARK   10  A    between atoms: C_26  and  C_28
REMARK   11  A    between atoms: C_26  and  C_31
REMARK                            x       y       z     vdW  Elec       q    Type
REMARK                         _______ _______ _______ _____ _____    ______ ____
ROOT
ATOM      1  C   UNL     1      -0.303   0.919   0.113  0.00  0.00    +0.000 C 
ATOM      2  C   UNL     1      -1.506   1.138  -0.827  0.00  0.00    +0.000 C 
ATOM      3  O   UNL     1      -2.529   0.200  -0.539  0.00  0.00    +0.000 OA
ATOM      4  C   UNL     1      -2.097  -1.117  -0.837  0.00  0.00    +0.000 C 
ATOM      5  C   UNL     1      -0.930  -1.519   0.096  0.00  0.00    +0.000 C 
ATOM      6  C   UNL     1       0.227  -0.517  -0.053  0.00  0.00    +0.000 C 
ENDROOT
BRANCH   1   8
ATOM      7  C   UNL     1       1.056   2.973   0.414  0.00  0.00    +0.000 C 
ATOM      8  N   UNL     1       0.764   1.870  -0.217  0.00  0.00    +0.000 NA
ATOM      9  C   UNL     1       0.318   3.421   1.641  0.00  0.00    +0.000 C 
BRANCH   7  11
ATOM     10  H   UNL     1       2.641   3.489  -0.868  0.00  0.00    +0.000 HD
ATOM     11  O   UNL     1       2.107   3.758  -0.050  0.00  0.00    +0.000 OA
ENDBRANCH   7  11
ENDBRANCH   1   8
BRANCH   2  12
ATOM     12  O   UNL     1      -2.012   2.430  -0.635  0.00  0.00    +0.000 OA
ATOM     13  H   UNL     1      -2.708   2.565  -1.329  0.00  0.00    +0.000 HD
ENDBRANCH   2  12
BRANCH   5  14
ATOM     14  O   UNL     1      -0.462  -2.803  -0.235  0.00  0.00    +0.000 OA
ATOM     15  H   UNL     1      -0.912  -3.446   0.372  0.00  0.00    +0.000 HD
ENDBRANCH   5  14
BRANCH   4  16
ATOM     16  C   UNL     1      -3.288  -2.066  -0.666  0.00  0.00    +0.000 C 
BRANCH  16  17
ATOM     17  O   UNL     1      -4.335  -1.665  -1.507  0.00  0.00    +0.000 OA
ATOM     18  H   UNL     1      -5.077  -2.304  -1.346  0.00  0.00    +0.000 HD
ENDBRANCH  16  17
ENDBRANCH   4  16
BRANCH   6  19
ATOM     19  O   UNL     1       1.187  -0.786   0.959  0.00  0.00    +0.000 OA
BRANCH  19  20
ATOM     20  C   UNL     1       2.517  -0.728   0.471  0.00  0.00    +0.000 C 
ATOM     21  C   UNL     1       2.953  -2.108  -0.025  0.00  0.00    +0.000 C 
BRANCH  20  22
ATOM     22  C   UNL     1       3.413  -0.293   1.591  0.00  0.00    +0.000 C 
ATOM     23  O   UNL     1       4.307   0.571   1.389  0.00  0.00    +0.000 OA
ATOM     24  O   UNL     1       3.284  -0.864   2.851  0.00  0.00    +0.000 OA
ENDBRANCH  20  22
ENDBRANCH  19  20
ENDBRANCH   6  19
TORSDOF 9
