REMARK  Name = 118707521
REMARK  10 active torsions:
REMARK  status: ('A' for Active; 'I' for Inactive)
REMARK    1  A    between atoms: C_1  and  N_2
REMARK    2  A    between atoms: C_3  and  C_4
REMARK    3  A    between atoms: N_6  and  C_7
REMARK    4  A    between atoms: C_8  and  O_9
REMARK    5  A    between atoms: C_11  and  C_12
REMARK    6  A    between atoms: C_12  and  O_13
REMARK    7  A    between atoms: C_14  and  O_15
REMARK    8  A    between atoms: C_16  and  O_17
REMARK    9  A    between atoms: C_21  and  C_22
REMARK   10  A    between atoms: C_29  and  C_30
REMARK                            x       y       z     vdW  Elec       q    Type
REMARK                         _______ _______ _______ _____ _____    ______ ____
ROOT
ATOM      1  C   UNL     1       0.468  -1.035  -0.966  0.00  0.00    +0.000 A 
ATOM      2  C   UNL     1       1.560  -0.212  -0.819  0.00  0.00    +0.000 A 
ATOM      3  N   UNL     1       2.626  -0.911  -1.256  0.00  0.00    +0.000 N 
ATOM      4  N   UNL     1       2.203  -2.108  -1.631  0.00  0.00    +0.000 NA
ATOM      5  N   UNL     1       0.891  -2.212  -1.470  0.00  0.00    +0.000 NA
ENDROOT
BRANCH   1   8
ATOM      6  C   UNL     1      -2.000  -2.872  -1.335  0.00  0.00    +0.000 C 
ATOM      7  N   UNL     1      -1.991  -1.530  -0.748  0.00  0.00    +0.000 N 
ATOM      8  C   UNL     1      -0.926  -0.702  -0.613  0.00  0.00    +0.000 A 
ATOM      9  N   UNL     1      -1.264   0.503  -0.108  0.00  0.00    +0.000 NA
ATOM     10  C   UNL     1      -2.594   0.431   0.095  0.00  0.00    +0.000 A 
ATOM     11  C   UNL     1      -3.049  -0.821  -0.294  0.00  0.00    +0.000 A 
BRANCH  10  12
ATOM     12  C   UNL     1      -3.379   1.552   0.658  0.00  0.00    +0.000 A 
ATOM     13  C   UNL     1      -4.451   1.323   1.540  0.00  0.00    +0.000 A 
ATOM     14  C   UNL     1      -5.180   2.397   2.060  0.00  0.00    +0.000 A 
ATOM     15  C   UNL     1      -4.837   3.708   1.718  0.00  0.00    +0.000 A 
ATOM     16  F   UNL     1      -5.545   4.748   2.224  0.00  0.00    +0.000 F 
ATOM     17  C   UNL     1      -3.761   3.946   0.860  0.00  0.00    +0.000 A 
ATOM     18  C   UNL     1      -3.031   2.874   0.336  0.00  0.00    +0.000 A 
ENDBRANCH  10  12
BRANCH  11  19
ATOM     19  C   UNL     1      -4.453  -1.283  -0.310  0.00  0.00    +0.000 A 
ATOM     20  C   UNL     1      -5.437  -0.539  -0.977  0.00  0.00    +0.000 A 
ATOM     21  C   UNL     1      -6.761  -0.982  -0.960  0.00  0.00    +0.000 A 
ATOM     22  N   UNL     1      -7.090  -2.123  -0.299  0.00  0.00    +0.000 NA
ATOM     23  C   UNL     1      -6.157  -2.860   0.358  0.00  0.00    +0.000 A 
ATOM     24  C   UNL     1      -4.821  -2.453   0.368  0.00  0.00    +0.000 A 
ENDBRANCH  11  19
ENDBRANCH   1   8
BRANCH   3  25
ATOM     25  C   UNL     1       4.046  -0.529  -1.230  0.00  0.00    +0.000 C 
ATOM     26  C   UNL     1       4.276   0.936  -1.713  0.00  0.00    +0.000 C 
ATOM     27  O   UNL     1       5.098   1.654  -0.807  0.00  0.00    +0.000 OA
ATOM     28  C   UNL     1       4.458   1.760   0.453  0.00  0.00    +0.000 C 
ATOM     29  C   UNL     1       4.375   0.370   1.153  0.00  0.00    +0.000 C 
ATOM     30  C   UNL     1       4.656  -0.787   0.168  0.00  0.00    +0.000 C 
BRANCH  26  31
ATOM     31  O   UNL     1       4.905   0.910  -2.966  0.00  0.00    +0.000 OA
ATOM     32  H   UNL     1       4.954   1.852  -3.278  0.00  0.00    +0.000 HD
ENDBRANCH  26  31
BRANCH  29  33
ATOM     33  O   UNL     1       3.104   0.195   1.726  0.00  0.00    +0.000 OA
ATOM     34  H   UNL     1       3.086   0.730   2.562  0.00  0.00    +0.000 HD
ENDBRANCH  29  33
BRANCH  30  35
ATOM     35  O   UNL     1       6.046  -0.956   0.026  0.00  0.00    +0.000 OA
ATOM     36  H   UNL     1       6.363  -1.444   0.831  0.00  0.00    +0.000 HD
ENDBRANCH  30  35
BRANCH  28  37
ATOM     37  C   UNL     1       5.240   2.773   1.304  0.00  0.00    +0.000 C 
BRANCH  37  38
ATOM     38  O   UNL     1       4.634   2.955   2.555  0.00  0.00    +0.000 OA
ATOM     39  H   UNL     1       3.809   3.483   2.399  0.00  0.00    +0.000 HD
ENDBRANCH  37  38
ENDBRANCH  28  37
ENDBRANCH   3  25
TORSDOF 9
