REMARK  Name = 24847493
REMARK  10 active torsions:
REMARK  status: ('A' for Active; 'I' for Inactive)
REMARK    1  A    between atoms: O_2  and  C_3
REMARK    2  A    between atoms: N_4  and  C_5
REMARK    3  A    between atoms: C_7  and  O_9
REMARK    4  A    between atoms: C_11  and  O_13
REMARK    5  A    between atoms: C_15  and  C_17
REMARK    6  A    between atoms: C_17  and  O_20
REMARK    7  A    between atoms: C_23  and  O_25
REMARK    8  A    between atoms: N_27  and  N_28
REMARK    9  A    between atoms: N_27  and  C_30
REMARK   10  A    between atoms: C_30  and  C_33
REMARK                            x       y       z     vdW  Elec       q    Type
REMARK                         _______ _______ _______ _____ _____    ______ ____
ROOT
ATOM      1  C   UNL     1      -0.313  -0.717  -0.163  0.00  0.00    +0.000 C 
ATOM      2  C   UNL     1      -0.573   0.189   1.056  0.00  0.00    +0.000 C 
ATOM      3  C   UNL     1      -2.039   0.054   1.500  0.00  0.00    +0.000 C 
ATOM      4  C   UNL     1      -2.977   0.280   0.293  0.00  0.00    +0.000 C 
ATOM      5  O   UNL     1      -2.680  -0.632  -0.755  0.00  0.00    +0.000 OA
ATOM      6  C   UNL     1      -1.367  -0.445  -1.257  0.00  0.00    +0.000 C 
ENDROOT
BRANCH   1   8
ATOM      7  C   UNL     1       2.113  -1.062  -0.293  0.00  0.00    +0.000 C 
ATOM      8  N   UNL     1       1.026  -0.481  -0.708  0.00  0.00    +0.000 NA
ATOM      9  N   UNL     1       3.378  -0.708  -0.886  0.00  0.00    +0.000 N 
BRANCH   7  11
ATOM     10  H   UNL     1       2.889  -2.380   1.165  0.00  0.00    +0.000 HD
ATOM     11  O   UNL     1       2.054  -2.004   0.736  0.00  0.00    +0.000 OA
ENDBRANCH   7  11
BRANCH   9  12
ATOM     12  N   UNL     1       4.415  -1.649  -1.016  0.00  0.00    +0.000 NA
ATOM     13  O   UNL     1       4.211  -2.873  -0.885  0.00  0.00    +0.000 OA
ENDBRANCH   9  12
BRANCH   9  14
ATOM     14  C   UNL     1       3.635   0.670  -1.310  0.00  0.00    +0.000 C 
BRANCH  14  15
ATOM     15  C   UNL     1       3.898   1.558  -0.097  0.00  0.00    +0.000 C 
ATOM     16 CL   UNL     1       4.240   3.226  -0.619  0.00  0.00    +0.000 Cl
ENDBRANCH  14  15
ENDBRANCH   9  14
ENDBRANCH   1   8
BRANCH   2  17
ATOM     17  O   UNL     1       0.264  -0.180   2.122  0.00  0.00    +0.000 OA
ATOM     18  H   UNL     1       1.094   0.358   2.041  0.00  0.00    +0.000 HD
ENDBRANCH   2  17
BRANCH   3  19
ATOM     19  O   UNL     1      -2.317   1.005   2.498  0.00  0.00    +0.000 OA
ATOM     20  H   UNL     1      -1.977   0.633   3.353  0.00  0.00    +0.000 HD
ENDBRANCH   3  19
BRANCH   6  21
ATOM     21  O   UNL     1      -1.226   0.845  -1.807  0.00  0.00    +0.000 OA
ATOM     22  H   UNL     1      -0.491   0.801  -2.473  0.00  0.00    +0.000 HD
ENDBRANCH   6  21
BRANCH   4  23
ATOM     23  C   UNL     1      -4.441   0.082   0.702  0.00  0.00    +0.000 C 
BRANCH  23  24
ATOM     24  O   UNL     1      -5.274   0.312  -0.400  0.00  0.00    +0.000 OA
ATOM     25  H   UNL     1      -6.202   0.160  -0.081  0.00  0.00    +0.000 HD
ENDBRANCH  23  24
ENDBRANCH   4  23
TORSDOF 10
