REMARK  Name = 12302999
REMARK  6 active torsions:
REMARK  status: ('A' for Active; 'I' for Inactive)
REMARK    1  A    between atoms: N_1  and  C_2
REMARK    2  A    between atoms: C_3  and  O_4
REMARK    3  A    between atoms: C_6  and  C_7
REMARK    4  A    between atoms: C_7  and  O_8
REMARK    5  A    between atoms: C_9  and  O_10
REMARK    6  A    between atoms: C_11  and  O_12
REMARK                            x       y       z     vdW  Elec       q    Type
REMARK                         _______ _______ _______ _____ _____    ______ ____
ROOT
ATOM      1  C   UNL     1       1.663   0.210  -0.221  0.00  0.00    +0.000 C 
ATOM      2  C   UNL     1       0.791   1.489  -0.226  0.00  0.00    +0.000 C 
ATOM      3  O   UNL     1      -0.399   1.305   0.526  0.00  0.00    +0.000 OA
ATOM      4  C   UNL     1      -1.230   0.299  -0.036  0.00  0.00    +0.000 C 
ATOM      5  C   UNL     1      -0.521  -1.079  -0.018  0.00  0.00    +0.000 C 
ATOM      6  C   UNL     1       0.838  -0.989  -0.743  0.00  0.00    +0.000 C 
ENDROOT
BRANCH   1   7
ATOM      7  N   UNL     1       2.210  -0.035   1.124  0.00  0.00    +0.000 N 
ATOM      8  H   UNL     1       2.806   0.775   1.411  0.00  0.00    +0.000 HD
ATOM      9  H   UNL     1       1.447  -0.153   1.829  0.00  0.00    +0.000 HD
ATOM     10  H   UNL     1       2.816  -0.886   1.122  0.00  0.00    +0.000 HD
ENDBRANCH   1   7
BRANCH   2  11
ATOM     11  O   UNL     1       0.490   1.897  -1.540  0.00  0.00    +0.000 OA
ATOM     12  H   UNL     1       1.330   2.258  -1.929  0.00  0.00    +0.000 HD
ENDBRANCH   2  11
BRANCH   5  13
ATOM     13  O   UNL     1      -1.328  -2.071  -0.605  0.00  0.00    +0.000 OA
ATOM     14  H   UNL     1      -1.508  -1.798  -1.543  0.00  0.00    +0.000 HD
ENDBRANCH   5  13
BRANCH   6  15
ATOM     15  O   UNL     1       1.560  -2.184  -0.582  0.00  0.00    +0.000 OA
ATOM     16  H   UNL     1       1.163  -2.848  -1.203  0.00  0.00    +0.000 HD
ENDBRANCH   6  15
BRANCH   4  17
ATOM     17  C   UNL     1      -2.534   0.244   0.772  0.00  0.00    +0.000 C 
BRANCH  17  18
ATOM     18  O   UNL     1      -3.171   1.493   0.762  0.00  0.00    +0.000 OA
ATOM     19  H   UNL     1      -3.588   1.592  -0.134  0.00  0.00    +0.000 HD
ENDBRANCH  17  18
ENDBRANCH   4  17
TORSDOF 6
