REMARK  Name = 6971258
REMARK  7 active torsions:
REMARK  status: ('A' for Active; 'I' for Inactive)
REMARK    1  A    between atoms: C_1  and  C_2
REMARK    2  A    between atoms: N_4  and  C_5
REMARK    3  A    between atoms: C_6  and  O_7
REMARK    4  A    between atoms: C_9  and  C_10
REMARK    5  A    between atoms: C_10  and  O_11
REMARK    6  A    between atoms: C_12  and  O_13
REMARK    7  A    between atoms: C_14  and  O_15
REMARK                            x       y       z     vdW  Elec       q    Type
REMARK                         _______ _______ _______ _____ _____    ______ ____
ROOT
ATOM      1  C   UNL     1       0.067   0.522  -1.159  0.00  0.00    +0.000 C 
ATOM      2  C   UNL     1      -0.595   0.955   0.174  0.00  0.00    +0.000 C 
ATOM      3  O   UNL     1       0.373   1.110   1.202  0.00  0.00    +0.000 OA
ATOM      4  C   UNL     1       1.040  -0.111   1.485  0.00  0.00    +0.000 C 
ATOM      5  C   UNL     1       1.839  -0.613   0.254  0.00  0.00    +0.000 C 
ATOM      6  C   UNL     1       0.905  -0.761  -0.964  0.00  0.00    +0.000 C 
ENDROOT
BRANCH   1  10
ATOM      7  C   UNL     1      -2.645   1.213  -3.879  0.00  0.00    +0.000 C 
ATOM      8  C   UNL     1      -1.609   1.456  -2.831  0.00  0.00    +0.000 C 
ATOM      9  O   UNL     1      -1.303   2.640  -2.522  0.00  0.00    +0.000 OA
ATOM     10  N   UNL     1      -0.939   0.347  -2.216  0.00  0.00    +0.000 N 
ATOM     11  H   UNL     1      -1.149  -0.610  -2.581  0.00  0.00    +0.000 HD
ENDBRANCH   1  10
BRANCH   2  12
ATOM     12  O   UNL     1      -1.601   0.055   0.573  0.00  0.00    +0.000 OA
ATOM     13  H   UNL     1      -2.405   0.254   0.024  0.00  0.00    +0.000 HD
ENDBRANCH   2  12
BRANCH   5  14
ATOM     14  O   UNL     1       2.931   0.224  -0.051  0.00  0.00    +0.000 OA
ATOM     15  H   UNL     1       2.603   1.158  -0.106  0.00  0.00    +0.000 HD
ENDBRANCH   5  14
BRANCH   6  16
ATOM     16  O   UNL     1       0.056  -1.866  -0.775  0.00  0.00    +0.000 OA
ATOM     17  H   UNL     1       0.592  -2.679  -0.970  0.00  0.00    +0.000 HD
ENDBRANCH   6  16
BRANCH   4  18
ATOM     18  C   UNL     1       1.963   0.092   2.695  0.00  0.00    +0.000 C 
BRANCH  18  19
ATOM     19  O   UNL     1       1.217   0.465   3.822  0.00  0.00    +0.000 OA
ATOM     20  H   UNL     1       0.780  -0.360   4.159  0.00  0.00    +0.000 HD
ENDBRANCH  18  19
ENDBRANCH   4  18
TORSDOF 6
