REMARK  Name = 9816401
REMARK  9 active torsions:
REMARK  status: ('A' for Active; 'I' for Inactive)
REMARK    1  A    between atoms: C_1  and  C_2
REMARK    2  A    between atoms: C_2  and  O_3
REMARK    3  A    between atoms: C_2  and  C_15
REMARK    4  A    between atoms: O_3  and  C_4
REMARK    5  A    between atoms: C_5  and  O_6
REMARK    6  A    between atoms: C_7  and  C_8
REMARK    7  A    between atoms: C_8  and  O_9
REMARK    8  A    between atoms: C_11  and  O_12
REMARK    9  A    between atoms: C_13  and  N_14
REMARK                            x       y       z     vdW  Elec       q    Type
REMARK                         _______ _______ _______ _____ _____    ______ ____
ROOT
ATOM      1  C   UNL     1      -0.924  -0.650  -0.983  0.00  0.00    +0.000 C 
ATOM      2  C   UNL     1      -2.123   0.321  -1.079  0.00  0.00    +0.000 C 
ATOM      3  C   UNL     1      -1.792   1.731  -0.514  0.00  0.00    +0.000 C 
ATOM      4  O   UNL     1      -0.558   2.246  -0.998  0.00  0.00    +0.000 OA
ATOM      5  C   UNL     1       0.538   1.393  -0.709  0.00  0.00    +0.000 C 
ATOM      6  C   UNL     1       0.389   0.035  -1.426  0.00  0.00    +0.000 C 
ENDROOT
BRANCH   6   7
ATOM      7  N   UNL     1       0.462   0.190  -2.889  0.00  0.00    +0.000 N 
ATOM      8  H   UNL     1       1.431   0.472  -3.164  0.00  0.00    +0.000 HD
ATOM      9  H   UNL     1      -0.204   0.919  -3.231  0.00  0.00    +0.000 HD
ATOM     10  H   UNL     1       0.254  -0.719  -3.362  0.00  0.00    +0.000 HD
ENDBRANCH   6   7
BRANCH   2  11
ATOM     11  O   UNL     1      -2.520   0.429  -2.423  0.00  0.00    +0.000 OA
ATOM     12  H   UNL     1      -3.455   0.763  -2.425  0.00  0.00    +0.000 HD
ENDBRANCH   2  11
BRANCH   5  13
ATOM     13  O   UNL     1       1.722   2.013  -1.133  0.00  0.00    +0.000 OA
ATOM     14  H   UNL     1       1.825   2.832  -0.581  0.00  0.00    +0.000 HD
ENDBRANCH   5  13
BRANCH   1  15
ATOM     15  O   UNL     1      -0.766  -1.091   0.358  0.00  0.00    +0.000 OA
BRANCH  15  17
ATOM     16  C   UNL     1      -1.830  -2.360   2.084  0.00  0.00    +0.000 C 
ATOM     17  C   UNL     1      -1.460  -2.303   0.605  0.00  0.00    +0.000 C 
BRANCH  17  18
ATOM     18  C   UNL     1      -0.590  -3.476   0.255  0.00  0.00    +0.000 C 
ATOM     19  O   UNL     1       0.634  -3.475   0.555  0.00  0.00    +0.000 OA
ATOM     20  O   UNL     1      -1.143  -4.588  -0.369  0.00  0.00    +0.000 OA
ENDBRANCH  17  18
ENDBRANCH  15  17
ENDBRANCH   1  15
BRANCH   3  21
ATOM     21  C   UNL     1      -1.918   1.820   1.023  0.00  0.00    +0.000 C 
BRANCH  21  22
ATOM     22  O   UNL     1      -1.538   3.092   1.474  0.00  0.00    +0.000 OA
ATOM     23  H   UNL     1      -2.279   3.710   1.239  0.00  0.00    +0.000 HD
ENDBRANCH  21  22
ENDBRANCH   3  21
TORSDOF 8
