REMARK  Name = 6323218
REMARK  10 active torsions:
REMARK  status: ('A' for Active; 'I' for Inactive)
REMARK    1  A    between atoms: C_1  and  C_2
REMARK    2  A    between atoms: N_4  and  C_5
REMARK    3  A    between atoms: C_6  and  O_7
REMARK    4  A    between atoms: C_9  and  C_10
REMARK    5  A    between atoms: C_10  and  O_11
REMARK    6  A    between atoms: C_12  and  O_13
REMARK    7  A    between atoms: C_14  and  O_15
REMARK    8  A    between atoms: O_15  and  C_16
REMARK    9  A    between atoms: C_16  and  C_17
REMARK   10  A    between atoms: C_16  and  C_18
REMARK                            x       y       z     vdW  Elec       q    Type
REMARK                         _______ _______ _______ _____ _____    ______ ____
ROOT
ATOM      1  C   UNL     1       1.188   0.361  -0.171  0.00  0.00    +0.000 C 
ATOM      2  C   UNL     1       1.356   1.819  -0.644  0.00  0.00    +0.000 C 
ATOM      3  O   UNL     1       0.941   2.730   0.363  0.00  0.00    +0.000 OA
ATOM      4  C   UNL     1      -0.437   2.581   0.672  0.00  0.00    +0.000 C 
ATOM      5  C   UNL     1      -0.718   1.169   1.246  0.00  0.00    +0.000 C 
ATOM      6  C   UNL     1      -0.271   0.096   0.241  0.00  0.00    +0.000 C 
ENDROOT
BRANCH   1  10
ATOM      7  C   UNL     1       2.655  -2.713  -2.071  0.00  0.00    +0.000 C 
ATOM      8  C   UNL     1       2.387  -1.741  -0.969  0.00  0.00    +0.000 C 
ATOM      9  O   UNL     1       2.861  -1.957   0.179  0.00  0.00    +0.000 OA
ATOM     10  N   UNL     1       1.601  -0.569  -1.227  0.00  0.00    +0.000 N 
ATOM     11  H   UNL     1       1.189  -0.458  -2.182  0.00  0.00    +0.000 HD
ENDBRANCH   1  10
BRANCH   2  12
ATOM     12  O   UNL     1       0.669   2.047  -1.850  0.00  0.00    +0.000 OA
ATOM     13  H   UNL     1       0.917   2.962  -2.143  0.00  0.00    +0.000 HD
ENDBRANCH   2  12
BRANCH   5  14
ATOM     14  O   UNL     1      -2.092   1.008   1.495  0.00  0.00    +0.000 OA
ATOM     15  H   UNL     1      -2.231   1.117   2.471  0.00  0.00    +0.000 HD
ENDBRANCH   5  14
BRANCH   4  16
ATOM     16  C   UNL     1      -0.812   3.682   1.679  0.00  0.00    +0.000 C 
BRANCH  16  17
ATOM     17  O   UNL     1      -2.201   3.759   1.857  0.00  0.00    +0.000 OA
ATOM     18  H   UNL     1      -2.569   4.200   1.047  0.00  0.00    +0.000 HD
ENDBRANCH  16  17
ENDBRANCH   4  16
BRANCH   6  19
ATOM     19  O   UNL     1      -0.363  -1.175   0.871  0.00  0.00    +0.000 OA
BRANCH  19  20
ATOM     20  C   UNL     1      -0.961  -2.150   0.033  0.00  0.00    +0.000 C 
ATOM     21  C   UNL     1      -2.484  -2.125   0.195  0.00  0.00    +0.000 C 
BRANCH  20  22
ATOM     22  C   UNL     1      -0.441  -3.502   0.421  0.00  0.00    +0.000 C 
ATOM     23  O   UNL     1      -0.317  -3.813   1.636  0.00  0.00    +0.000 OA
ATOM     24  O   UNL     1      -0.132  -4.436  -0.560  0.00  0.00    +0.000 OA
ENDBRANCH  20  22
ENDBRANCH  19  20
ENDBRANCH   6  19
TORSDOF 8
