REMARK  Name = 3052142
REMARK  16 active torsions:
REMARK  status: ('A' for Active; 'I' for Inactive)
REMARK    1  A    between atoms: O_2  and  C_3
REMARK    2  A    between atoms: C_3  and  C_47
REMARK    3  A    between atoms: N_4  and  C_5
REMARK    4  A    between atoms: C_7  and  O_9
REMARK    5  A    between atoms: O_9  and  C_10
REMARK    6  A    between atoms: C_10  and  C_12
REMARK    7  A    between atoms: C_17  and  C_19
REMARK    8  A    between atoms: C_19  and  O_22
REMARK    9  A    between atoms: O_22  and  C_23
REMARK   10  A    between atoms: C_23  and  C_25
REMARK   11  A    between atoms: C_29  and  O_31
REMARK   12  A    between atoms: O_31  and  C_32
REMARK   13  A    between atoms: C_32  and  C_34
REMARK   14  A    between atoms: C_38  and  O_40
REMARK   15  A    between atoms: O_40  and  C_41
REMARK   16  A    between atoms: C_41  and  C_43
REMARK                            x       y       z     vdW  Elec       q    Type
REMARK                         _______ _______ _______ _____ _____    ______ ____
ROOT
ATOM      1  C   UNL     1      -0.472   1.175   0.576  0.00  0.00    +0.000 C 
ATOM      2  C   UNL     1      -0.869  -0.144   1.280  0.00  0.00    +0.000 C 
ATOM      3  O   UNL     1       0.296  -0.844   1.684  0.00  0.00    +0.000 OA
ATOM      4  C   UNL     1       1.059  -1.242   0.556  0.00  0.00    +0.000 C 
ATOM      5  C   UNL     1       1.632   0.001  -0.169  0.00  0.00    +0.000 C 
ATOM      6  C   UNL     1       0.467   0.903  -0.616  0.00  0.00    +0.000 C 
ENDROOT
BRANCH   1   8
ATOM      7  C   UNL     1      -2.565   1.653  -0.672  0.00  0.00    +0.000 C 
ATOM      8  N   UNL     1      -1.636   1.978   0.179  0.00  0.00    +0.000 NA
BRANCH   7  10
ATOM      9  H   UNL     1      -3.297   0.146  -1.948  0.00  0.00    +0.000 HD
ATOM     10  O   UNL     1      -2.564   0.409  -1.301  0.00  0.00    +0.000 OA
ENDBRANCH   7  10
BRANCH   7  11
ATOM     11  C   UNL     1      -3.667   2.626  -0.954  0.00  0.00    +0.000 C 
ATOM     12 CL   UNL     1      -5.021   2.346   0.165  0.00  0.00    +0.000 Cl
ENDBRANCH   7  11
ENDBRANCH   1   8
BRANCH   2  13
ATOM     13  O   UNL     1      -1.627   0.159   2.453  0.00  0.00    +0.000 OA
BRANCH  13  14
ATOM     14  C   UNL     1      -3.025   0.130   2.514  0.00  0.00    +0.000 C 
ATOM     15  O   UNL     1      -3.707  -0.340   1.564  0.00  0.00    +0.000 OA
ATOM     16  C   UNL     1      -3.712   0.599   3.751  0.00  0.00    +0.000 C 
ENDBRANCH  13  14
ENDBRANCH   2  13
BRANCH   4  17
ATOM     17  C   UNL     1       2.167  -2.197   1.029  0.00  0.00    +0.000 C 
BRANCH  17  18
ATOM     18  O   UNL     1       2.997  -2.609  -0.056  0.00  0.00    +0.000 OA
BRANCH  18  19
ATOM     19  C   UNL     1       2.600  -3.537  -1.024  0.00  0.00    +0.000 C 
ATOM     20  O   UNL     1       1.480  -4.112  -0.949  0.00  0.00    +0.000 OA
ATOM     21  C   UNL     1       3.498  -3.818  -2.180  0.00  0.00    +0.000 C 
ENDBRANCH  18  19
ENDBRANCH  17  18
ENDBRANCH   4  17
BRANCH   5  22
ATOM     22  O   UNL     1       2.491   0.742   0.704  0.00  0.00    +0.000 OA
BRANCH  22  23
ATOM     23  C   UNL     1       3.889   0.690   0.660  0.00  0.00    +0.000 C 
ATOM     24  O   UNL     1       4.487   0.012  -0.219  0.00  0.00    +0.000 OA
ATOM     25  C   UNL     1       4.681   1.495   1.633  0.00  0.00    +0.000 C 
ENDBRANCH  22  23
ENDBRANCH   5  22
BRANCH   6  26
ATOM     26  O   UNL     1       0.962   2.146  -1.118  0.00  0.00    +0.000 OA
BRANCH  26  27
ATOM     27  C   UNL     1       1.600   2.280  -2.357  0.00  0.00    +0.000 C 
ATOM     28  O   UNL     1       1.692   1.301  -3.146  0.00  0.00    +0.000 OA
ATOM     29  C   UNL     1       2.124   3.613  -2.769  0.00  0.00    +0.000 C 
ENDBRANCH  26  27
ENDBRANCH   6  26
TORSDOF 12
