134695375
     RDKit          3D

 34 34  0  0  0  0  0  0  0  0999 V2000
   -6.0649   -1.1065    1.9143 H   0  0  0  0  0  0  0  0  0  0  0  0
   -5.8410   -0.8837    0.9529 O   0  0  0  0  0  0  0  0  0  0  0  0
   -4.5640   -0.4917    0.6165 N   0  0  0  0  0  0  0  0  0  0  0  0
   -4.2368   -0.2010   -0.5830 N   0  0  0  0  0  4  0  0  0  0  0  0
   -2.8670    0.1447   -0.8715 C   0  0  0  0  0  0  0  0  0  0  0  0
   -2.4886    0.2626   -2.0697 O   0  0  0  0  0  0  0  0  0  0  0  0
   -1.9212    0.3474    0.1939 N   0  0  0  0  0  0  0  0  0  0  0  0
   -2.2330    0.2071    1.1814 H   0  0  0  0  0  0  0  0  0  0  0  0
   -0.5261    0.7290   -0.0601 C   0  0  1  0  0  0  0  0  0  0  0  0
   -0.1355    0.1246   -0.9101 H   0  0  0  0  0  0  0  0  0  0  0  0
   -0.4362    2.2247   -0.4379 C   0  0  1  0  0  0  0  0  0  0  0  0
   -0.9638    2.3563   -1.4088 H   0  0  0  0  0  0  0  0  0  0  0  0
   -1.0775    3.0237    0.5255 O   0  0  0  0  0  0  0  0  0  0  0  0
   -1.0783    3.9488    0.1658 H   0  0  0  0  0  0  0  0  0  0  0  0
    0.9118    2.6334   -0.6300 O   0  0  0  0  0  0  0  0  0  0  0  0
    1.6795    2.4747    0.5541 C   0  0  2  0  0  0  0  0  0  0  0  0
    1.2243    3.0441    1.3978 H   0  0  0  0  0  0  0  0  0  0  0  0
    3.0767    3.0708    0.3289 C   0  0  0  0  0  0  0  0  0  0  0  0
    3.5788    2.5815   -0.5373 H   0  0  0  0  0  0  0  0  0  0  0  0
    3.7047    2.8936    1.2283 H   0  0  0  0  0  0  0  0  0  0  0  0
    2.9895    4.4553    0.1230 O   0  0  0  0  0  0  0  0  0  0  0  0
    2.7232    4.5876   -0.8242 H   0  0  0  0  0  0  0  0  0  0  0  0
    1.7732    0.9852    0.9481 C   0  0  2  0  0  0  0  0  0  0  0  0
    2.3459    0.9043    1.9026 H   0  0  0  0  0  0  0  0  0  0  0  0
    2.4218    0.2621   -0.0696 O   0  0  0  0  0  0  0  0  0  0  0  0
    2.7947   -0.5565    0.3502 H   0  0  0  0  0  0  0  0  0  0  0  0
    0.3515    0.4363    1.1719 C   0  0  2  0  0  0  0  0  0  0  0  0
   -0.0929    0.9483    2.0589 H   0  0  0  0  0  0  0  0  0  0  0  0
    0.3900   -0.9484    1.4035 O   0  0  0  0  0  0  0  0  0  0  0  0
    0.7501   -1.0746    2.3201 H   0  0  0  0  0  0  0  0  0  0  0  0
   -5.2193   -0.3084   -1.6697 C   0  0  0  0  0  0  0  0  0  0  0  0
   -4.9275    0.3187   -2.5385 H   0  0  0  0  0  0  0  0  0  0  0  0
   -6.2156    0.0502   -1.3343 H   0  0  0  0  0  0  0  0  0  0  0  0
   -5.2995   -1.3666   -1.9957 H   0  0  0  0  0  0  0  0  0  0  0  0
  1  2  1  0
  2  3  1  0
  3  4  2  0
  4  5  1  0
  5  6  2  0
  5  7  1  0
  7  8  1  0
  7  9  1  0
  9 10  1  6
  9 11  1  0
 11 12  1  6
 11 13  1  0
 13 14  1  0
 11 15  1  0
 15 16  1  0
 16 17  1  1
 16 18  1  0
 18 19  1  0
 18 20  1  0
 18 21  1  0
 21 22  1  0
 16 23  1  0
 23 24  1  1
 23 25  1  0
 25 26  1  0
 23 27  1  0
 27 28  1  1
 27 29  1  0
 29 30  1  0
  4 31  1  0
 31 32  1  0
 31 33  1  0
 31 34  1  0
 27  9  1  0
M  CHG  1   4   1
M  END
>  <UniqueID>  (2) 
1

>  <SMILES>  (2) 
C/[N+](=N/O)C(=O)N[C@H]1[C@@H](O)O[C@H](CO)[C@H](O)[C@@H]1O

>  <Energy>  (2) 
31.041433030190596

>  <Genealogy>  (2) 
C[NH+](N=O)C(=O)N[C@H]1[C@@H](O)OC(CO)C(O)[C@@H]1O (protonated)
C[N+](=NO)C(=O)N[C@H]1[C@@H](O)OC(CO)C(O)[C@@H]1O (tautomer)
C[N+](=NO)C(=O)N[C@H]1[C@@H](O)O[C@H](CO)[C@H](O)[C@@H]1O (chirality)
C/[N+](=N/O)C(=O)N[C@H]1[C@@H](O)O[C@H](CO)[C@H](O)[C@@H]1O (cis-trans isomerization)
C/[N+](=N/O)C(=O)N[C@H]1[C@@H](O)O[C@H](CO)[C@H](O)[C@@H]1O (3D coordinates assigned)
C/[N+](=N/O)C(=O)N[C@H]1[C@@H](O)O[C@H](CO)[C@H](O)[C@@H]1O (nonaromatic ring conformer: 31.041433030190596 kcal/mol)

$$$$
134695375
     RDKit          3D

 33 33  0  0  0  0  0  0  0  0999 V2000
    1.9610    1.0700    2.0327 H   0  0  0  0  0  0  0  0  0  0  0  0
    1.2749    0.6292    1.4334 O   0  0  0  0  0  0  0  0  0  0  0  0
    0.3555    1.3687    0.6856 C   0  0  0  0  0  0  0  0  0  0  0  0
   -0.4957    0.7570   -0.0851 N   0  0  0  0  0  0  0  0  0  0  0  0
   -0.6086   -0.6963   -0.2377 C   0  0  1  0  0  0  0  0  0  0  0  0
    0.4013   -1.1561   -0.1449 H   0  0  0  0  0  0  0  0  0  0  0  0
   -1.5419   -1.2930    0.8449 C   0  0  1  0  0  0  0  0  0  0  0  0
   -1.5225   -2.4091    0.7766 H   0  0  0  0  0  0  0  0  0  0  0  0
   -1.0990   -0.9269    2.1245 O   0  0  0  0  0  0  0  0  0  0  0  0
   -0.2994   -1.4816    2.3228 H   0  0  0  0  0  0  0  0  0  0  0  0
   -2.8669   -0.8183    0.6782 O   0  0  0  0  0  0  0  0  0  0  0  0
   -3.4207   -1.3147   -0.5294 C   0  0  1  0  0  0  0  0  0  0  0  0
   -3.3408   -2.4274   -0.5602 H   0  0  0  0  0  0  0  0  0  0  0  0
   -4.9284   -1.0114   -0.5729 C   0  0  0  0  0  0  0  0  0  0  0  0
   -5.4509   -1.6091    0.2091 H   0  0  0  0  0  0  0  0  0  0  0  0
   -5.3431   -1.3249   -1.5548 H   0  0  0  0  0  0  0  0  0  0  0  0
   -5.1880    0.3550   -0.3884 O   0  0  0  0  0  0  0  0  0  0  0  0
   -5.1299    0.5291    0.5872 H   0  0  0  0  0  0  0  0  0  0  0  0
   -2.6677   -0.7415   -1.7602 C   0  0  1  0  0  0  0  0  0  0  0  0
   -3.0456   -1.2631   -2.6673 H   0  0  0  0  0  0  0  0  0  0  0  0
   -2.9071    0.6332   -1.9508 O   0  0  0  0  0  0  0  0  0  0  0  0
   -2.7688    1.0980   -1.0867 H   0  0  0  0  0  0  0  0  0  0  0  0
   -1.1529   -1.0256   -1.6475 C   0  0  2  0  0  0  0  0  0  0  0  0
   -0.6218   -0.3996   -2.4038 H   0  0  0  0  0  0  0  0  0  0  0  0
   -0.9230   -2.3820   -1.9376 O   0  0  0  0  0  0  0  0  0  0  0  0
    0.0384   -2.4695   -2.1700 H   0  0  0  0  0  0  0  0  0  0  0  0
    0.3489    2.8069    0.7615 N   0  0  0  0  0  0  0  0  0  0  0  0
    1.1417    3.4374    1.7375 N   0  0  0  0  0  0  0  0  0  0  0  0
    1.1030    4.6726    1.9159 O   0  0  0  0  0  0  0  0  0  0  0  0
   -0.5836    3.5920   -0.0555 C   0  0  0  0  0  0  0  0  0  0  0  0
   -0.2105    4.6279   -0.1947 H   0  0  0  0  0  0  0  0  0  0  0  0
   -0.6913    3.1437   -1.0661 H   0  0  0  0  0  0  0  0  0  0  0  0
   -1.5763    3.6237    0.4403 H   0  0  0  0  0  0  0  0  0  0  0  0
  1  2  1  0
  2  3  1  0
  3  4  2  0
  4  5  1  0
  5  6  1  6
  5  7  1  0
  7  8  1  1
  7  9  1  0
  9 10  1  0
  7 11  1  0
 11 12  1  0
 12 13  1  1
 12 14  1  0
 14 15  1  0
 14 16  1  0
 14 17  1  0
 17 18  1  0
 12 19  1  0
 19 20  1  6
 19 21  1  0
 21 22  1  0
 19 23  1  0
 23 24  1  6
 23 25  1  0
 25 26  1  0
  3 27  1  0
 27 28  1  0
 28 29  2  0
 27 30  1  0
 30 31  1  0
 30 32  1  0
 30 33  1  0
 23  5  1  0
M  END
>  <UniqueID>  (3) 
2

>  <SMILES>  (3) 
CN(N=O)/C(O)=N\[C@H]1[C@@H](O)O[C@@H](CO)[C@@H](O)[C@@H]1O

>  <Energy>  (3) 
33.13345281496855

>  <Genealogy>  (3) 
CN(N=O)C(O)=N[C@H]1[C@@H](O)OC(CO)C(O)[C@@H]1O (tautomer)
CN(N=O)C(O)=N[C@H]1[C@@H](O)O[C@@H](CO)[C@@H](O)[C@@H]1O (chirality)
CN(N=O)/C(O)=N\[C@H]1[C@@H](O)O[C@@H](CO)[C@@H](O)[C@@H]1O (cis-trans isomerization)
CN(N=O)/C(O)=N\[C@H]1[C@@H](O)O[C@@H](CO)[C@@H](O)[C@@H]1O (3D coordinates assigned)
CN(N=O)/C(O)=N\[C@H]1[C@@H](O)O[C@@H](CO)[C@@H](O)[C@@H]1O (nonaromatic ring conformer: 33.13345281496855 kcal/mol)

$$$$
134695375
     RDKit          3D

 33 33  0  0  0  0  0  0  0  0999 V2000
    1.6930   -0.0378    2.3875 H   0  0  0  0  0  0  0  0  0  0  0  0
    0.9623    0.0213    1.6907 O   0  0  0  0  0  0  0  0  0  0  0  0
    0.6729    1.1986    0.9936 C   0  0  0  0  0  0  0  0  0  0  0  0
   -0.3292    1.2263    0.1652 N   0  0  0  0  0  0  0  0  0  0  0  0
   -1.2109    0.0865   -0.1032 C   0  0  1  0  0  0  0  0  0  0  0  0
   -0.5833   -0.8134   -0.3007 H   0  0  0  0  0  0  0  0  0  0  0  0
   -2.1599   -0.2089    1.1069 C   0  0  1  0  0  0  0  0  0  0  0  0
   -1.6791   -0.9844    1.7432 H   0  0  0  0  0  0  0  0  0  0  0  0
   -2.3238    0.9336    1.9066 O   0  0  0  0  0  0  0  0  0  0  0  0
   -2.8512    1.5850    1.3742 H   0  0  0  0  0  0  0  0  0  0  0  0
   -3.4476   -0.6812    0.7204 O   0  0  0  0  0  0  0  0  0  0  0  0
   -3.3527   -1.5964   -0.3536 C   0  0  1  0  0  0  0  0  0  0  0  0
   -2.5550   -2.3498   -0.1431 H   0  0  0  0  0  0  0  0  0  0  0  0
   -4.6676   -2.3858   -0.4586 C   0  0  0  0  0  0  0  0  0  0  0  0
   -4.8515   -2.9339    0.4936 H   0  0  0  0  0  0  0  0  0  0  0  0
   -5.5211   -1.6901   -0.6048 H   0  0  0  0  0  0  0  0  0  0  0  0
   -4.6260   -3.2878   -1.5319 O   0  0  0  0  0  0  0  0  0  0  0  0
   -4.0410   -4.0386   -1.2497 H   0  0  0  0  0  0  0  0  0  0  0  0
   -2.9923   -0.8364   -1.6609 C   0  0  1  0  0  0  0  0  0  0  0  0
   -2.4796   -1.5660   -2.3323 H   0  0  0  0  0  0  0  0  0  0  0  0
   -4.1525   -0.3579   -2.2945 O   0  0  0  0  0  0  0  0  0  0  0  0
   -3.8987   -0.1389   -3.2291 H   0  0  0  0  0  0  0  0  0  0  0  0
   -2.0439    0.3535   -1.3686 C   0  0  2  0  0  0  0  0  0  0  0  0
   -2.6629    1.2671   -1.1929 H   0  0  0  0  0  0  0  0  0  0  0  0
   -1.2001    0.5534   -2.4747 O   0  0  0  0  0  0  0  0  0  0  0  0
   -0.9113    1.5031   -2.4531 H   0  0  0  0  0  0  0  0  0  0  0  0
    1.4631    2.3871    1.1822 N   0  0  0  0  0  0  0  0  0  0  0  0
    0.9699    3.6061    0.6793 N   0  0  0  0  0  0  0  0  0  0  0  0
    1.5666    4.6862    0.8697 O   0  0  0  0  0  0  0  0  0  0  0  0
    2.7124    2.3442    1.9478 C   0  0  0  0  0  0  0  0  0  0  0  0
    3.3259    3.2511    1.7692 H   0  0  0  0  0  0  0  0  0  0  0  0
    3.3231    1.4712    1.6343 H   0  0  0  0  0  0  0  0  0  0  0  0
    2.4843    2.2729    3.0319 H   0  0  0  0  0  0  0  0  0  0  0  0
  1  2  1  0
  2  3  1  0
  3  4  2  0
  4  5  1  0
  5  6  1  6
  5  7  1  0
  7  8  1  1
  7  9  1  0
  9 10  1  0
  7 11  1  0
 11 12  1  0
 12 13  1  1
 12 14  1  0
 14 15  1  0
 14 16  1  0
 14 17  1  0
 17 18  1  0
 12 19  1  0
 19 20  1  6
 19 21  1  0
 21 22  1  0
 19 23  1  0
 23 24  1  1
 23 25  1  0
 25 26  1  0
  3 27  1  0
 27 28  1  0
 28 29  2  0
 27 30  1  0
 30 31  1  0
 30 32  1  0
 30 33  1  0
 23  5  1  0
M  END
>  <UniqueID>  (4) 
3

>  <SMILES>  (4) 
CN(N=O)/C(O)=N\[C@H]1[C@@H](O)O[C@@H](CO)[C@@H](O)[C@@H]1O

>  <Energy>  (4) 
38.8260113702518

>  <Genealogy>  (4) 
CN(N=O)C(O)=N[C@H]1[C@@H](O)OC(CO)C(O)[C@@H]1O (tautomer)
CN(N=O)C(O)=N[C@H]1[C@@H](O)O[C@@H](CO)[C@@H](O)[C@@H]1O (chirality)
CN(N=O)/C(O)=N\[C@H]1[C@@H](O)O[C@@H](CO)[C@@H](O)[C@@H]1O (cis-trans isomerization)
CN(N=O)/C(O)=N\[C@H]1[C@@H](O)O[C@@H](CO)[C@@H](O)[C@@H]1O (3D coordinates assigned)
CN(N=O)/C(O)=N\[C@H]1[C@@H](O)O[C@@H](CO)[C@@H](O)[C@@H]1O (nonaromatic ring conformer: 38.8260113702518 kcal/mol)

$$$$
129878031
     RDKit          3D

 36 36  0  0  0  0  0  0  0  0999 V2000
    0.2879   -2.1311    2.0628 H   0  0  0  0  0  0  0  0  0  0  0  0
    1.0136   -2.7810    1.5291 C   0  0  0  0  0  0  0  0  0  0  0  0
    0.3060   -3.5909    0.4427 C   0  0  0  0  0  0  0  0  0  0  0  0
   -0.4559   -2.7023   -0.5487 C   0  0  0  0  0  0  0  0  0  0  0  0
    0.4775   -1.8809   -1.3892 C   0  0  0  0  0  0  0  0  0  0  0  0
    0.9966   -2.3943   -2.4172 O   0  0  0  0  0  0  0  0  0  0  0  0
    0.8041   -0.5381   -1.0013 N   0  0  0  0  0  0  0  0  0  0  0  0
    1.6934    0.3237   -1.7913 C   0  0  2  0  0  0  0  0  0  0  0  0
    2.5945    1.1597   -0.8628 C   0  0  2  0  0  0  0  0  0  0  0  0
    3.3035    0.2975   -0.0145 O   0  0  0  0  0  0  0  0  0  0  0  0
    1.8136    2.0459   -0.0778 O   0  0  0  0  0  0  0  0  0  0  0  0
    1.1939    3.0272   -0.8940 C   0  0  2  0  0  0  0  0  0  0  0  0
    0.5032    4.0395    0.0314 C   0  0  0  0  0  0  0  0  0  0  0  0
    0.0846    5.1693   -0.6895 O   0  0  0  0  0  0  0  0  0  0  0  0
    0.1792    2.3579   -1.8620 C   0  0  1  0  0  0  0  0  0  0  0  0
   -0.4280    3.3025   -2.7089 O   0  0  0  0  0  0  0  0  0  0  0  0
    0.8763    1.2663   -2.6978 C   0  0  2  0  0  0  0  0  0  0  0  0
   -0.0847    0.5452   -3.4247 O   0  0  0  0  0  0  0  0  0  0  0  0
    1.4768   -3.4730    2.2636 H   0  0  0  0  0  0  0  0  0  0  0  0
    1.8156   -2.1530    1.0879 H   0  0  0  0  0  0  0  0  0  0  0  0
   -0.4188   -4.2775    0.9312 H   0  0  0  0  0  0  0  0  0  0  0  0
    1.0501   -4.2147   -0.0992 H   0  0  0  0  0  0  0  0  0  0  0  0
   -1.1635   -2.0410   -0.0028 H   0  0  0  0  0  0  0  0  0  0  0  0
   -1.0629   -3.3508   -1.2171 H   0  0  0  0  0  0  0  0  0  0  0  0
    0.3197   -0.1335   -0.1681 H   0  0  0  0  0  0  0  0  0  0  0  0
    2.3550   -0.2995   -2.4329 H   0  0  0  0  0  0  0  0  0  0  0  0
    3.3335    1.7247   -1.4818 H   0  0  0  0  0  0  0  0  0  0  0  0
    3.9321    0.8668    0.5016 H   0  0  0  0  0  0  0  0  0  0  0  0
    1.9663    3.5827   -1.4768 H   0  0  0  0  0  0  0  0  0  0  0  0
   -0.3448    3.5555    0.5718 H   0  0  0  0  0  0  0  0  0  0  0  0
    1.2314    4.3763    0.8002 H   0  0  0  0  0  0  0  0  0  0  0  0
   -0.9037    5.1199   -0.7645 H   0  0  0  0  0  0  0  0  0  0  0  0
   -0.6227    1.8796   -1.2574 H   0  0  0  0  0  0  0  0  0  0  0  0
    0.2920    3.7568   -3.2200 H   0  0  0  0  0  0  0  0  0  0  0  0
    1.5796    1.7639   -3.4076 H   0  0  0  0  0  0  0  0  0  0  0  0
    0.4052    0.0437   -4.1277 H   0  0  0  0  0  0  0  0  0  0  0  0
  1  2  1  0
  2  3  1  0
  3  4  1  0
  4  5  1  0
  5  6  2  0
  5  7  1  0
  7  8  1  0
  8  9  1  0
  9 10  1  0
  9 11  1  0
 11 12  1  0
 12 13  1  0
 13 14  1  0
 12 15  1  0
 15 16  1  0
 15 17  1  0
 17 18  1  0
 17  8  1  0
  2 19  1  0
  2 20  1  0
  3 21  1  0
  3 22  1  0
  4 23  1  0
  4 24  1  0
  7 25  1  0
  8 26  1  6
  9 27  1  6
 10 28  1  0
 12 29  1  6
 13 30  1  0
 13 31  1  0
 14 32  1  0
 15 33  1  1
 16 34  1  0
 17 35  1  6
 18 36  1  0
M  ISO  1   1   2
M  END
>  <UniqueID>  (5) 
4

>  <SMILES>  (5) 
[2H]CCCC(=O)N[C@@H]1[C@H](O)O[C@H](CO)[C@@H](O)[C@@H]1O

>  <Energy>  (5) 
26.673879137151488

>  <Genealogy>  (5) 
[2H]CCCC(=O)N[C@@H]1[C@H](O)O[C@H](CO)[C@@H](O)[C@@H]1O (chirality)
[2H]CCCC(=O)N[C@@H]1[C@H](O)O[C@H](CO)[C@@H](O)[C@@H]1O (3D coordinates assigned)
[2H]CCCC(=O)N[C@@H]1[C@H](O)O[C@H](CO)[C@@H](O)[C@@H]1O (nonaromatic ring conformer: 26.673879137151488 kcal/mol)

$$$$
129878031
     RDKit          3D

 36 36  0  0  0  0  0  0  0  0999 V2000
    3.6649    0.3006    0.1771 H   0  0  0  0  0  0  0  0  0  0  0  0
    3.3716    0.2673   -0.7891 O   0  0  0  0  0  0  0  0  0  0  0  0
    2.0313    0.2788   -1.1866 C   0  0  0  0  0  0  0  0  0  0  0  0
    1.7361    0.3272   -2.4926 C   0  0  0  0  0  0  0  0  0  0  0  0
    0.6989    0.3649   -2.8043 H   0  0  0  0  0  0  0  0  0  0  0  0
    2.7891    0.3662   -3.5649 C   0  0  0  0  0  0  0  0  0  0  0  0
    3.5663    1.1206   -3.3150 H   0  0  0  0  0  0  0  0  0  0  0  0
    2.3143    0.6737   -4.5213 H   0  0  0  0  0  0  0  0  0  0  0  0
    3.4317   -1.0042   -3.7621 C   0  0  0  0  0  0  0  0  0  0  0  0
    2.6583   -1.7571   -4.0257 H   0  0  0  0  0  0  0  0  0  0  0  0
    3.9579   -1.3285   -2.8399 H   0  0  0  0  0  0  0  0  0  0  0  0
    4.1713   -0.9509   -4.5886 H   0  0  0  0  0  0  0  0  0  0  0  0
    0.9613    0.2536   -0.2213 N   0  0  0  0  0  0  0  0  0  0  0  0
   -0.0095    0.4532   -0.5567 H   0  0  0  0  0  0  0  0  0  0  0  0
    1.1511   -0.0022    1.2137 C   0  0  2  0  0  0  0  0  0  0  0  0
    2.0711   -0.6025    1.3764 H   0  0  0  0  0  0  0  0  0  0  0  0
   -0.0292   -0.8304    1.7723 C   0  0  2  0  0  0  0  0  0  0  0  0
    0.1788   -1.1137    2.8338 H   0  0  0  0  0  0  0  0  0  0  0  0
   -0.1809   -2.0067    1.0223 O   0  0  0  0  0  0  0  0  0  0  0  0
    0.5721   -2.6054    1.2688 H   0  0  0  0  0  0  0  0  0  0  0  0
   -1.2363   -0.0928    1.6959 O   0  0  0  0  0  0  0  0  0  0  0  0
   -1.1833    1.0435    2.5431 C   0  0  2  0  0  0  0  0  0  0  0  0
   -0.9544    0.7347    3.5908 H   0  0  0  0  0  0  0  0  0  0  0  0
   -2.5741    1.6954    2.5750 C   0  0  0  0  0  0  0  0  0  0  0  0
   -2.5776    2.5835    3.2489 H   0  0  0  0  0  0  0  0  0  0  0  0
   -3.2981    0.9668    2.9981 H   0  0  0  0  0  0  0  0  0  0  0  0
   -2.9997    2.0371    1.2818 O   0  0  0  0  0  0  0  0  0  0  0  0
   -2.7292    2.9797    1.1280 H   0  0  0  0  0  0  0  0  0  0  0  0
   -0.0992    2.0357    2.0592 C   0  0  1  0  0  0  0  0  0  0  0  0
   -0.3666    2.3932    1.0365 H   0  0  0  0  0  0  0  0  0  0  0  0
   -0.0255    3.1203    2.9497 O   0  0  0  0  0  0  0  0  0  0  0  0
    0.3339    3.8915    2.4382 H   0  0  0  0  0  0  0  0  0  0  0  0
    1.2655    1.3209    1.9968 C   0  0  2  0  0  0  0  0  0  0  0  0
    1.5886    1.0707    3.0365 H   0  0  0  0  0  0  0  0  0  0  0  0
    2.2220    2.1536    1.3921 O   0  0  0  0  0  0  0  0  0  0  0  0
    2.5595    2.7675    2.0954 H   0  0  0  0  0  0  0  0  0  0  0  0
  1  2  1  0
  2  3  1  0
  3  4  2  0
  4  5  1  0
  4  6  1  0
  6  7  1  0
  6  8  1  0
  6  9  1  0
  9 10  1  0
  9 11  1  0
  9 12  1  0
  3 13  1  0
 13 14  1  0
 13 15  1  0
 15 16  1  6
 15 17  1  0
 17 18  1  1
 17 19  1  0
 19 20  1  0
 17 21  1  0
 21 22  1  0
 22 23  1  1
 22 24  1  0
 24 25  1  0
 24 26  1  0
 24 27  1  0
 27 28  1  0
 22 29  1  0
 29 30  1  6
 29 31  1  0
 31 32  1  0
 29 33  1  0
 33 34  1  1
 33 35  1  0
 35 36  1  0
 33 15  1  0
M  ISO  1  12   2
M  END
>  <UniqueID>  (6) 
5

>  <SMILES>  (6) 
[2H]CC/C=C(\O)N[C@@H]1[C@H](O)O[C@H](CO)[C@@H](O)[C@@H]1O

>  <Energy>  (6) 
28.604969248440888

>  <Genealogy>  (6) 
[2H]CCC=C(O)N[C@@H]1C(O)O[C@H](CO)[C@@H](O)[C@@H]1O (tautomer)
[2H]CCC=C(O)N[C@@H]1[C@H](O)O[C@H](CO)[C@@H](O)[C@@H]1O (chirality)
[2H]CC/C=C(\O)N[C@@H]1[C@H](O)O[C@H](CO)[C@@H](O)[C@@H]1O (cis-trans isomerization)
[2H]CC/C=C(\O)N[C@@H]1[C@H](O)O[C@H](CO)[C@@H](O)[C@@H]1O (3D coordinates assigned)
[2H]CC/C=C(\O)N[C@@H]1[C@H](O)O[C@H](CO)[C@@H](O)[C@@H]1O (nonaromatic ring conformer: 28.604969248440888 kcal/mol)

$$$$
129878031
     RDKit          3D

 36 36  0  0  0  0  0  0  0  0999 V2000
   -1.6968    1.7076    3.0169 H   0  0  0  0  0  0  0  0  0  0  0  0
   -1.6225    0.9347    2.3662 O   0  0  0  0  0  0  0  0  0  0  0  0
   -0.5493    0.8285    1.4855 C   0  0  0  0  0  0  0  0  0  0  0  0
   -0.4990   -0.2098    0.6995 N   0  0  0  0  0  0  0  0  0  0  0  0
    0.5292   -0.5179   -0.3020 C   0  0  2  0  0  0  0  0  0  0  0  0
    1.5266   -0.1856    0.0593 H   0  0  0  0  0  0  0  0  0  0  0  0
    0.1901    0.1848   -1.6375 C   0  0  1  0  0  0  0  0  0  0  0  0
    0.0101    1.2638   -1.4342 H   0  0  0  0  0  0  0  0  0  0  0  0
    1.2532    0.0807   -2.5531 O   0  0  0  0  0  0  0  0  0  0  0  0
    1.9796    0.6687   -2.2177 H   0  0  0  0  0  0  0  0  0  0  0  0
   -1.0083   -0.3265   -2.2002 O   0  0  0  0  0  0  0  0  0  0  0  0
   -0.9007   -1.7083   -2.5098 C   0  0  2  0  0  0  0  0  0  0  0  0
   -0.0625   -1.8818   -3.2238 H   0  0  0  0  0  0  0  0  0  0  0  0
   -2.1827   -2.1404   -3.2340 C   0  0  0  0  0  0  0  0  0  0  0  0
   -2.2946   -1.5325   -4.1597 H   0  0  0  0  0  0  0  0  0  0  0  0
   -2.1117   -3.2097   -3.5340 H   0  0  0  0  0  0  0  0  0  0  0  0
   -3.2998   -1.9457   -2.4102 O   0  0  0  0  0  0  0  0  0  0  0  0
   -4.0854   -2.2475   -2.9361 H   0  0  0  0  0  0  0  0  0  0  0  0
   -0.6595   -2.5467   -1.2306 C   0  0  1  0  0  0  0  0  0  0  0  0
   -1.5262   -2.4269   -0.5361 H   0  0  0  0  0  0  0  0  0  0  0  0
   -0.4791   -3.8999   -1.5667 O   0  0  0  0  0  0  0  0  0  0  0  0
   -1.3630   -4.3437   -1.4811 H   0  0  0  0  0  0  0  0  0  0  0  0
    0.6040   -2.0384   -0.5160 C   0  0  2  0  0  0  0  0  0  0  0  0
    1.4946   -2.2522   -1.1552 H   0  0  0  0  0  0  0  0  0  0  0  0
    0.7542   -2.6801    0.7252 O   0  0  0  0  0  0  0  0  0  0  0  0
    1.1262   -3.5820    0.5416 H   0  0  0  0  0  0  0  0  0  0  0  0
    0.5279    1.8869    1.5196 C   0  0  0  0  0  0  0  0  0  0  0  0
    0.9997    2.0214    0.5253 H   0  0  0  0  0  0  0  0  0  0  0  0
    0.0625    2.8610    1.7842 H   0  0  0  0  0  0  0  0  0  0  0  0
    1.5898    1.5350    2.5661 C   0  0  0  0  0  0  0  0  0  0  0  0
    2.0432    0.5479    2.3303 H   0  0  0  0  0  0  0  0  0  0  0  0
    1.1169    1.4705    3.5706 H   0  0  0  0  0  0  0  0  0  0  0  0
    2.6940    2.5871    2.6067 C   0  0  0  0  0  0  0  0  0  0  0  0
    3.4443    2.3090    3.3764 H   0  0  0  0  0  0  0  0  0  0  0  0
    2.2707    3.5810    2.8657 H   0  0  0  0  0  0  0  0  0  0  0  0
    3.2028    2.6499    1.6212 H   0  0  0  0  0  0  0  0  0  0  0  0
  1  2  1  0
  2  3  1  0
  3  4  2  0
  4  5  1  0
  5  6  1  1
  5  7  1  0
  7  8  1  1
  7  9  1  0
  9 10  1  0
  7 11  1  0
 11 12  1  0
 12 13  1  6
 12 14  1  0
 14 15  1  0
 14 16  1  0
 14 17  1  0
 17 18  1  0
 12 19  1  0
 19 20  1  1
 19 21  1  0
 21 22  1  0
 19 23  1  0
 23 24  1  6
 23 25  1  0
 25 26  1  0
  3 27  1  0
 27 28  1  0
 27 29  1  0
 27 30  1  0
 30 31  1  0
 30 32  1  0
 30 33  1  0
 33 34  1  0
 33 35  1  0
 33 36  1  0
 23  5  1  0
M  ISO  1  36   2
M  END
>  <UniqueID>  (7) 
6

>  <SMILES>  (7) 
[2H]CCC/C(O)=N/[C@@H]1[C@@H](O)O[C@H](CO)[C@@H](O)[C@@H]1O

>  <Energy>  (7) 
29.14748879222222

>  <Genealogy>  (7) 
[2H]CCCC(O)=N[C@@H]1C(O)O[C@H](CO)[C@@H](O)[C@@H]1O (tautomer)
[2H]CCCC(O)=N[C@@H]1[C@@H](O)O[C@H](CO)[C@@H](O)[C@@H]1O (chirality)
[2H]CCC/C(O)=N/[C@@H]1[C@@H](O)O[C@H](CO)[C@@H](O)[C@@H]1O (cis-trans isomerization)
[2H]CCC/C(O)=N/[C@@H]1[C@@H](O)O[C@H](CO)[C@@H](O)[C@@H]1O (3D coordinates assigned)
[2H]CCC/C(O)=N/[C@@H]1[C@@H](O)O[C@H](CO)[C@@H](O)[C@@H]1O (nonaromatic ring conformer: 29.14748879222222 kcal/mol)

$$$$
118707521
     RDKit          3D

 58 62  0  0  0  0  0  0  0  0999 V2000
   -1.5051   -1.8195    2.8415 C   0  0  0  0  0  0  0  0  0  0  0  0
   -0.2293   -1.3375    2.3062 N   0  0  0  0  0  0  0  0  0  0  0  0
   -0.0324   -0.6515    1.1535 C   0  0  0  0  0  0  0  0  0  0  0  0
   -1.0981   -0.1778    0.2498 C   0  0  0  0  0  0  0  0  0  0  0  0
   -0.9204    0.3918   -0.9925 C   0  0  0  0  0  0  0  0  0  0  0  0
   -2.1507    0.7034   -1.4414 N   0  0  0  0  0  0  0  0  0  0  0  0
   -2.5100    1.3025   -2.7305 C   0  0  1  0  0  0  0  0  0  0  0  0
   -1.7676    2.6354   -2.9516 C   0  0  2  0  0  0  0  0  0  0  0  0
   -2.0969    3.5166   -1.9121 O   0  0  0  0  0  0  0  0  0  0  0  0
   -2.1646    3.2113   -4.1849 O   0  0  0  0  0  0  0  0  0  0  0  0
   -1.7412    2.4077   -5.2753 C   0  0  2  0  0  0  0  0  0  0  0  0
   -2.0603    3.1704   -6.5722 C   0  0  0  0  0  0  0  0  0  0  0  0
   -1.5322    2.5152   -7.6948 O   0  0  0  0  0  0  0  0  0  0  0  0
   -2.4581    1.0292   -5.2354 C   0  0  1  0  0  0  0  0  0  0  0  0
   -2.0463    0.2026   -6.2970 O   0  0  0  0  0  0  0  0  0  0  0  0
   -2.2011    0.3325   -3.8827 C   0  0  2  0  0  0  0  0  0  0  0  0
   -3.0180   -0.8044   -3.7630 O   0  0  0  0  0  0  0  0  0  0  0  0
   -3.0330    0.3399   -0.5238 N   0  0  0  0  0  0  0  0  0  0  0  0
   -2.4189   -0.1960    0.5210 N   0  0  0  0  0  0  0  0  0  0  0  0
    1.2738   -0.4204    0.9011 N   0  0  0  0  0  0  0  0  0  0  0  0
    1.9278   -0.9676    1.9459 C   0  0  0  0  0  0  0  0  0  0  0  0
    3.3987   -0.8920    2.0973 C   0  0  0  0  0  0  0  0  0  0  0  0
    3.9931   -0.7027    3.3589 C   0  0  0  0  0  0  0  0  0  0  0  0
    5.3835   -0.6137    3.4790 C   0  0  0  0  0  0  0  0  0  0  0  0
    6.1930   -0.6991    2.3419 C   0  0  0  0  0  0  0  0  0  0  0  0
    7.5411   -0.6080    2.4604 F   0  0  0  0  0  0  0  0  0  0  0  0
    5.6110   -0.8648    1.0819 C   0  0  0  0  0  0  0  0  0  0  0  0
    4.2200   -0.9549    0.9582 C   0  0  0  0  0  0  0  0  0  0  0  0
    1.0062   -1.5323    2.8182 C   0  0  0  0  0  0  0  0  0  0  0  0
    1.3058   -2.2858    4.0548 C   0  0  0  0  0  0  0  0  0  0  0  0
    2.2006   -3.3652    4.0281 C   0  0  0  0  0  0  0  0  0  0  0  0
    2.4902   -4.0471    5.2122 C   0  0  0  0  0  0  0  0  0  0  0  0
    1.9089   -3.6635    6.3792 N   0  0  0  0  0  0  0  0  0  0  0  0
    1.0399   -2.6188    6.4339 C   0  0  0  0  0  0  0  0  0  0  0  0
    0.7239   -1.9090    5.2731 C   0  0  0  0  0  0  0  0  0  0  0  0
   -2.0936   -0.9634    3.2299 H   0  0  0  0  0  0  0  0  0  0  0  0
   -2.0781   -2.3374    2.0446 H   0  0  0  0  0  0  0  0  0  0  0  0
   -1.3519   -2.5510    3.6588 H   0  0  0  0  0  0  0  0  0  0  0  0
    0.0099    0.5591   -1.5201 H   0  0  0  0  0  0  0  0  0  0  0  0
   -3.6045    1.5154   -2.7345 H   0  0  0  0  0  0  0  0  0  0  0  0
   -0.6635    2.4657   -2.9352 H   0  0  0  0  0  0  0  0  0  0  0  0
   -1.5414    4.3287   -2.0450 H   0  0  0  0  0  0  0  0  0  0  0  0
   -0.6356    2.2619   -5.2359 H   0  0  0  0  0  0  0  0  0  0  0  0
   -1.6467    4.2036   -6.5107 H   0  0  0  0  0  0  0  0  0  0  0  0
   -3.1610    3.2620   -6.6938 H   0  0  0  0  0  0  0  0  0  0  0  0
   -0.5515    2.6722   -7.6817 H   0  0  0  0  0  0  0  0  0  0  0  0
   -3.5536    1.1986   -5.3373 H   0  0  0  0  0  0  0  0  0  0  0  0
   -1.0647    0.0740   -6.2147 H   0  0  0  0  0  0  0  0  0  0  0  0
   -1.1260    0.0377   -3.8199 H   0  0  0  0  0  0  0  0  0  0  0  0
   -2.5866   -1.5262   -4.2912 H   0  0  0  0  0  0  0  0  0  0  0  0
    3.3866   -0.5958    4.2489 H   0  0  0  0  0  0  0  0  0  0  0  0
    5.8328   -0.4695    4.4535 H   0  0  0  0  0  0  0  0  0  0  0  0
    6.2368   -0.9198    0.1999 H   0  0  0  0  0  0  0  0  0  0  0  0
    3.7861   -1.0848   -0.0265 H   0  0  0  0  0  0  0  0  0  0  0  0
    2.6675   -3.6749    3.1018 H   0  0  0  0  0  0  0  0  0  0  0  0
    3.1790   -4.8812    5.2030 H   0  0  0  0  0  0  0  0  0  0  0  0
    0.5975   -2.3355    7.3797 H   0  0  0  0  0  0  0  0  0  0  0  0
    0.0423   -1.0685    5.3253 H   0  0  0  0  0  0  0  0  0  0  0  0
  1  2  1  0
  2  3  1  0
  3  4  1  0
  4  5  2  0
  5  6  1  0
  6  7  1  0
  7  8  1  0
  8  9  1  0
  8 10  1  0
 10 11  1  0
 11 12  1  0
 12 13  1  0
 11 14  1  0
 14 15  1  0
 14 16  1  0
 16 17  1  0
  6 18  1  0
 18 19  2  0
  3 20  2  0
 20 21  1  0
 21 22  1  0
 22 23  2  0
 23 24  1  0
 24 25  2  0
 25 26  1  0
 25 27  1  0
 27 28  2  0
 21 29  2  0
 29 30  1  0
 30 31  2  0
 31 32  1  0
 32 33  2  0
 33 34  1  0
 34 35  2  0
 29  2  1  0
 35 30  1  0
 19  4  1  0
 28 22  1  0
 16  7  1  0
  1 36  1  0
  1 37  1  0
  1 38  1  0
  5 39  1  0
  7 40  1  1
  8 41  1  6
  9 42  1  0
 11 43  1  1
 12 44  1  0
 12 45  1  0
 13 46  1  0
 14 47  1  6
 15 48  1  0
 16 49  1  6
 17 50  1  0
 23 51  1  0
 24 52  1  0
 27 53  1  0
 28 54  1  0
 31 55  1  0
 32 56  1  0
 34 57  1  0
 35 58  1  0
M  END
>  <UniqueID>  (14) 
13

>  <SMILES>  (14) 
Cn1c(-c2cn([C@H]3[C@H](O)O[C@H](CO)[C@@H](O)[C@@H]3O)nn2)nc(-c2ccc(F)cc2)c1-c1ccncc1

>  <Energy>  (14) 
139.13859624845233

>  <Genealogy>  (14) 
Cn1c(-c2cn([C@H]3[C@H](O)O[C@H](CO)[C@@H](O)[C@@H]3O)nn2)nc(-c2ccc(F)cc2)c1-c1ccncc1 (3D coordinates assigned)
Cn1c(-c2cn([C@H]3[C@H](O)O[C@H](CO)[C@@H](O)[C@@H]3O)nn2)nc(-c2ccc(F)cc2)c1-c1ccncc1 (nonaromatic ring conformer: 139.13859624845233 kcal/mol)

$$$$
118707521
     RDKit          3D

 58 62  0  0  0  0  0  0  0  0999 V2000
   -1.5373   -1.8181    2.9402 C   0  0  0  0  0  0  0  0  0  0  0  0
   -0.2950   -1.3153    2.3488 N   0  0  0  0  0  0  0  0  0  0  0  0
   -0.1576   -0.6396    1.1815 C   0  0  0  0  0  0  0  0  0  0  0  0
   -1.2657   -0.1994    0.3122 C   0  0  0  0  0  0  0  0  0  0  0  0
   -1.1408    0.4087   -0.9179 C   0  0  0  0  0  0  0  0  0  0  0  0
   -2.3937    0.6544   -1.3435 N   0  0  0  0  0  0  0  0  0  0  0  0
   -2.7999    1.2584   -2.6165 C   0  0  1  0  0  0  0  0  0  0  0  0
   -2.1196    2.6398   -2.8124 C   0  0  2  0  0  0  0  0  0  0  0  0
   -2.9950    3.5318   -3.4555 O   0  0  0  0  0  0  0  0  0  0  0  0
   -0.8935    2.5299   -3.5215 O   0  0  0  0  0  0  0  0  0  0  0  0
   -1.0343    2.0428   -4.8566 C   0  0  2  0  0  0  0  0  0  0  0  0
   -1.0420    3.2163   -5.8520 C   0  0  0  0  0  0  0  0  0  0  0  0
   -0.8154    2.7593   -7.1589 O   0  0  0  0  0  0  0  0  0  0  0  0
   -2.2379    1.0760   -5.0698 C   0  0  1  0  0  0  0  0  0  0  0  0
   -2.0077    0.2094   -6.1548 O   0  0  0  0  0  0  0  0  0  0  0  0
   -2.4991    0.2861   -3.7816 C   0  0  2  0  0  0  0  0  0  0  0  0
   -3.5817   -0.5866   -3.9768 O   0  0  0  0  0  0  0  0  0  0  0  0
   -3.2397    0.2161   -0.4246 N   0  0  0  0  0  0  0  0  0  0  0  0
   -2.5792   -0.3050    0.5994 N   0  0  0  0  0  0  0  0  0  0  0  0
    1.1328   -0.3891    0.8738 N   0  0  0  0  0  0  0  0  0  0  0  0
    1.8387   -0.9135    1.8955 C   0  0  0  0  0  0  0  0  0  0  0  0
    3.3142   -0.8341    1.9728 C   0  0  0  0  0  0  0  0  0  0  0  0
    4.0764   -0.9169    0.7951 C   0  0  0  0  0  0  0  0  0  0  0  0
    5.4712   -0.8338    0.8480 C   0  0  0  0  0  0  0  0  0  0  0  0
    6.1166   -0.6546    2.0743 C   0  0  0  0  0  0  0  0  0  0  0  0
    7.4690   -0.5730    2.1236 F   0  0  0  0  0  0  0  0  0  0  0  0
    5.3666   -0.5500    3.2486 C   0  0  0  0  0  0  0  0  0  0  0  0
    3.9717   -0.6322    3.2000 C   0  0  0  0  0  0  0  0  0  0  0  0
    0.9641   -1.4830    2.8111 C   0  0  0  0  0  0  0  0  0  0  0  0
    1.3286   -2.2315    4.0329 C   0  0  0  0  0  0  0  0  0  0  0  0
    2.2296   -3.3036    3.9651 C   0  0  0  0  0  0  0  0  0  0  0  0
    2.5765   -3.9846    5.1343 C   0  0  0  0  0  0  0  0  0  0  0  0
    2.0441   -3.6071    6.3270 N   0  0  0  0  0  0  0  0  0  0  0  0
    1.1704   -2.5696    6.4210 C   0  0  0  0  0  0  0  0  0  0  0  0
    0.7979   -1.8610    5.2763 C   0  0  0  0  0  0  0  0  0  0  0  0
   -1.3343   -2.5441    3.7528 H   0  0  0  0  0  0  0  0  0  0  0  0
   -2.1333   -2.3527    2.1716 H   0  0  0  0  0  0  0  0  0  0  0  0
   -2.1258   -0.9710    3.3501 H   0  0  0  0  0  0  0  0  0  0  0  0
   -0.2313    0.6460   -1.4549 H   0  0  0  0  0  0  0  0  0  0  0  0
   -3.8999    1.4331   -2.5798 H   0  0  0  0  0  0  0  0  0  0  0  0
   -1.8915    3.0575   -1.8047 H   0  0  0  0  0  0  0  0  0  0  0  0
   -2.5737    4.4290   -3.3996 H   0  0  0  0  0  0  0  0  0  0  0  0
   -0.1052    1.4654   -5.0581 H   0  0  0  0  0  0  0  0  0  0  0  0
   -0.2223    3.9170   -5.5858 H   0  0  0  0  0  0  0  0  0  0  0  0
   -1.9954    3.7882   -5.7950 H   0  0  0  0  0  0  0  0  0  0  0  0
   -1.7028    2.5374   -7.5444 H   0  0  0  0  0  0  0  0  0  0  0  0
   -3.1522    1.6660   -5.3028 H   0  0  0  0  0  0  0  0  0  0  0  0
   -1.2312   -0.3659   -5.9267 H   0  0  0  0  0  0  0  0  0  0  0  0
   -1.5808   -0.3070   -3.5565 H   0  0  0  0  0  0  0  0  0  0  0  0
   -3.5585   -1.2400   -3.2295 H   0  0  0  0  0  0  0  0  0  0  0  0
    3.5928   -1.0590   -0.1637 H   0  0  0  0  0  0  0  0  0  0  0  0
    6.0510   -0.9082   -0.0631 H   0  0  0  0  0  0  0  0  0  0  0  0
    5.8649   -0.3970    4.1972 H   0  0  0  0  0  0  0  0  0  0  0  0
    3.4108   -0.5155    4.1176 H   0  0  0  0  0  0  0  0  0  0  0  0
    2.6566   -3.6096    3.0179 H   0  0  0  0  0  0  0  0  0  0  0  0
    3.2700   -4.8138    5.0932 H   0  0  0  0  0  0  0  0  0  0  0  0
    0.7671   -2.2921    7.3856 H   0  0  0  0  0  0  0  0  0  0  0  0
    0.1113   -1.0275    5.3592 H   0  0  0  0  0  0  0  0  0  0  0  0
  1  2  1  0
  2  3  1  0
  3  4  1  0
  4  5  2  0
  5  6  1  0
  6  7  1  0
  7  8  1  0
  8  9  1  0
  8 10  1  0
 10 11  1  0
 11 12  1  0
 12 13  1  0
 11 14  1  0
 14 15  1  0
 14 16  1  0
 16 17  1  0
  6 18  1  0
 18 19  2  0
  3 20  2  0
 20 21  1  0
 21 22  1  0
 22 23  2  0
 23 24  1  0
 24 25  2  0
 25 26  1  0
 25 27  1  0
 27 28  2  0
 21 29  2  0
 29 30  1  0
 30 31  2  0
 31 32  1  0
 32 33  2  0
 33 34  1  0
 34 35  2  0
 29  2  1  0
 35 30  1  0
 19  4  1  0
 28 22  1  0
 16  7  1  0
  1 36  1  0
  1 37  1  0
  1 38  1  0
  5 39  1  0
  7 40  1  1
  8 41  1  1
  9 42  1  0
 11 43  1  6
 12 44  1  0
 12 45  1  0
 13 46  1  0
 14 47  1  6
 15 48  1  0
 16 49  1  1
 17 50  1  0
 23 51  1  0
 24 52  1  0
 27 53  1  0
 28 54  1  0
 31 55  1  0
 32 56  1  0
 34 57  1  0
 35 58  1  0
M  END
>  <UniqueID>  (15) 
14

>  <SMILES>  (15) 
Cn1c(-c2cn([C@H]3[C@H](O)O[C@H](CO)[C@@H](O)[C@@H]3O)nn2)nc(-c2ccc(F)cc2)c1-c1ccncc1

>  <Energy>  (15) 
150.2639548352728

>  <Genealogy>  (15) 
Cn1c(-c2cn([C@H]3[C@H](O)O[C@H](CO)[C@@H](O)[C@@H]3O)nn2)nc(-c2ccc(F)cc2)c1-c1ccncc1 (3D coordinates assigned)
Cn1c(-c2cn([C@H]3[C@H](O)O[C@H](CO)[C@@H](O)[C@@H]3O)nn2)nc(-c2ccc(F)cc2)c1-c1ccncc1 (nonaromatic ring conformer: 150.2639548352728 kcal/mol)

$$$$
118707521
     RDKit          3D

 58 62  0  0  0  0  0  0  0  0999 V2000
   -0.5181   -1.8188    0.1812 C   0  0  0  0  0  0  0  0  0  0  0  0
    0.3997   -0.9748    0.9491 N   0  0  0  0  0  0  0  0  0  0  0  0
    0.5661    0.3687    0.8520 C   0  0  0  0  0  0  0  0  0  0  0  0
   -0.2059    1.2746   -0.0186 C   0  0  0  0  0  0  0  0  0  0  0  0
   -0.7762    0.9989   -1.2443 C   0  0  0  0  0  0  0  0  0  0  0  0
   -1.3071    2.1560   -1.6833 N   0  0  0  0  0  0  0  0  0  0  0  0
   -2.0531    2.4029   -2.9254 C   0  0  1  0  0  0  0  0  0  0  0  0
   -1.2726    1.9033   -4.1783 C   0  0  2  0  0  0  0  0  0  0  0  0
   -0.8172    3.0132   -4.9055 O   0  0  0  0  0  0  0  0  0  0  0  0
   -2.0962    1.1161   -5.0229 O   0  0  0  0  0  0  0  0  0  0  0  0
   -2.5219   -0.0475   -4.3365 C   0  0  2  0  0  0  0  0  0  0  0  0
   -3.1274   -1.0199   -5.3607 C   0  0  0  0  0  0  0  0  0  0  0  0
   -3.5339   -2.2120   -4.7435 O   0  0  0  0  0  0  0  0  0  0  0  0
   -3.5418    0.3124   -3.2189 C   0  0  1  0  0  0  0  0  0  0  0  0
   -3.2921   -0.4829   -2.0877 O   0  0  0  0  0  0  0  0  0  0  0  0
   -3.4840    1.8174   -2.8439 C   0  0  2  0  0  0  0  0  0  0  0  0
   -4.3093    2.5439   -3.7212 O   0  0  0  0  0  0  0  0  0  0  0  0
   -1.0687    3.0897   -0.7746 N   0  0  0  0  0  0  0  0  0  0  0  0
   -0.3886    2.5840    0.2438 N   0  0  0  0  0  0  0  0  0  0  0  0
    1.5541    0.8305    1.6476 N   0  0  0  0  0  0  0  0  0  0  0  0
    2.0453   -0.2662    2.2578 C   0  0  0  0  0  0  0  0  0  0  0  0
    3.1754   -0.2183    3.2118 C   0  0  0  0  0  0  0  0  0  0  0  0
    3.2218   -1.0693    4.3311 C   0  0  0  0  0  0  0  0  0  0  0  0
    4.2976   -1.0056    5.2218 C   0  0  0  0  0  0  0  0  0  0  0  0
    5.3298   -0.0872    5.0103 C   0  0  0  0  0  0  0  0  0  0  0  0
    6.3723   -0.0271    5.8750 F   0  0  0  0  0  0  0  0  0  0  0  0
    5.2839    0.7746    3.9110 C   0  0  0  0  0  0  0  0  0  0  0  0
    4.2089    0.7153    3.0189 C   0  0  0  0  0  0  0  0  0  0  0  0
    1.3427   -1.3821    1.8272 C   0  0  0  0  0  0  0  0  0  0  0  0
    1.6499   -2.7893    2.1528 C   0  0  0  0  0  0  0  0  0  0  0  0
    0.7064   -3.5879    2.8144 C   0  0  0  0  0  0  0  0  0  0  0  0
    1.0325   -4.9066    3.1407 C   0  0  0  0  0  0  0  0  0  0  0  0
    2.2584   -5.4051    2.8232 N   0  0  0  0  0  0  0  0  0  0  0  0
    3.1937   -4.6487    2.1885 C   0  0  0  0  0  0  0  0  0  0  0  0
    2.9086   -3.3250    1.8459 C   0  0  0  0  0  0  0  0  0  0  0  0
   -0.0983   -2.0033   -0.8295 H   0  0  0  0  0  0  0  0  0  0  0  0
   -1.5107   -1.3287    0.1003 H   0  0  0  0  0  0  0  0  0  0  0  0
   -0.6769   -2.7961    0.6767 H   0  0  0  0  0  0  0  0  0  0  0  0
   -0.7610    0.0688   -1.7893 H   0  0  0  0  0  0  0  0  0  0  0  0
   -2.1753    3.5075   -3.0132 H   0  0  0  0  0  0  0  0  0  0  0  0
   -0.3746    1.3162   -3.8719 H   0  0  0  0  0  0  0  0  0  0  0  0
   -0.2485    2.6590   -5.6388 H   0  0  0  0  0  0  0  0  0  0  0  0
   -1.6426   -0.5735   -3.8954 H   0  0  0  0  0  0  0  0  0  0  0  0
   -4.0075   -0.5511   -5.8504 H   0  0  0  0  0  0  0  0  0  0  0  0
   -2.3804   -1.2392   -6.1577 H   0  0  0  0  0  0  0  0  0  0  0  0
   -2.7058   -2.7155   -4.5248 H   0  0  0  0  0  0  0  0  0  0  0  0
   -4.5756    0.0937   -3.5809 H   0  0  0  0  0  0  0  0  0  0  0  0
   -4.1154   -0.4653   -1.5313 H   0  0  0  0  0  0  0  0  0  0  0  0
   -3.8618    1.9580   -1.8026 H   0  0  0  0  0  0  0  0  0  0  0  0
   -5.2470    2.4019   -3.4233 H   0  0  0  0  0  0  0  0  0  0  0  0
    2.4196   -1.7670    4.5320 H   0  0  0  0  0  0  0  0  0  0  0  0
    4.3260   -1.6644    6.0806 H   0  0  0  0  0  0  0  0  0  0  0  0
    6.0814    1.4886    3.7481 H   0  0  0  0  0  0  0  0  0  0  0  0
    4.1915    1.3874    2.1690 H   0  0  0  0  0  0  0  0  0  0  0  0
   -0.2644   -3.1895    3.0859 H   0  0  0  0  0  0  0  0  0  0  0  0
    0.3128   -5.5322    3.6519 H   0  0  0  0  0  0  0  0  0  0  0  0
    4.1603   -5.0737    1.9526 H   0  0  0  0  0  0  0  0  0  0  0  0
    3.6601   -2.7243    1.3469 H   0  0  0  0  0  0  0  0  0  0  0  0
  1  2  1  0
  2  3  1  0
  3  4  1  0
  4  5  2  0
  5  6  1  0
  6  7  1  0
  7  8  1  0
  8  9  1  0
  8 10  1  0
 10 11  1  0
 11 12  1  0
 12 13  1  0
 11 14  1  0
 14 15  1  0
 14 16  1  0
 16 17  1  0
  6 18  1  0
 18 19  2  0
  3 20  2  0
 20 21  1  0
 21 22  1  0
 22 23  2  0
 23 24  1  0
 24 25  2  0
 25 26  1  0
 25 27  1  0
 27 28  2  0
 21 29  2  0
 29 30  1  0
 30 31  2  0
 31 32  1  0
 32 33  2  0
 33 34  1  0
 34 35  2  0
 29  2  1  0
 35 30  1  0
 19  4  1  0
 28 22  1  0
 16  7  1  0
  1 36  1  0
  1 37  1  0
  1 38  1  0
  5 39  1  0
  7 40  1  6
  8 41  1  1
  9 42  1  0
 11 43  1  1
 12 44  1  0
 12 45  1  0
 13 46  1  0
 14 47  1  6
 15 48  1  0
 16 49  1  1
 17 50  1  0
 23 51  1  0
 24 52  1  0
 27 53  1  0
 28 54  1  0
 31 55  1  0
 32 56  1  0
 34 57  1  0
 35 58  1  0
M  END
>  <UniqueID>  (16) 
15

>  <SMILES>  (16) 
Cn1c(-c2cn([C@H]3[C@H](O)O[C@H](CO)[C@@H](O)[C@@H]3O)nn2)nc(-c2ccc(F)cc2)c1-c1ccncc1

>  <Energy>  (16) 
151.36614156653286

>  <Genealogy>  (16) 
Cn1c(-c2cn([C@H]3[C@H](O)O[C@H](CO)[C@@H](O)[C@@H]3O)nn2)nc(-c2ccc(F)cc2)c1-c1ccncc1 (3D coordinates assigned)
Cn1c(-c2cn([C@H]3[C@H](O)O[C@H](CO)[C@@H](O)[C@@H]3O)nn2)nc(-c2ccc(F)cc2)c1-c1ccncc1 (nonaromatic ring conformer: 151.36614156653286 kcal/mol)

$$$$
91820057
     RDKit          3D

 33 33  0  0  0  0  0  0  0  0999 V2000
   -3.2454   -2.9552    1.0780 C   0  0  0  0  0  0  0  0  0  0  0  0
   -2.1516   -1.9950    1.4143 C   0  0  0  0  0  0  0  0  0  0  0  0
   -2.1156   -1.4708    2.5604 O   0  0  0  0  0  0  0  0  0  0  0  0
   -1.1749   -1.6493    0.4218 N   0  0  0  0  0  0  0  0  0  0  0  0
   -0.1222   -0.6540    0.6514 C   0  0  1  0  0  0  0  0  0  0  0  0
    1.2145   -1.1656    0.0751 C   0  0  2  0  0  0  0  0  0  0  0  0
    1.5842   -2.3319    0.7593 O   0  0  0  0  0  0  0  0  0  0  0  0
    2.2353   -0.1943    0.2417 O   0  0  0  0  0  0  0  0  0  0  0  0
    1.9509    0.9595   -0.5320 C   0  0  2  0  0  0  0  0  0  0  0  0
    3.1721    1.8899   -0.5301 C   0  0  0  0  0  0  0  0  0  0  0  0
    3.5846    2.1510    0.7907 O   0  0  0  0  0  0  0  0  0  0  0  0
    4.9287    3.1798    0.7376 S   0  0  0  0  0  6  0  0  0  0  0  0
    5.3285    3.5266    2.1434 O   0  0  0  0  0  0  0  0  0  0  0  0
    6.0805    2.4934    0.0576 O   0  0  0  0  0  0  0  0  0  0  0  0
    4.5493    4.5969   -0.0833 O   0  0  0  0  0  1  0  0  0  0  0  0
    0.6744    1.6693   -0.0105 C   0  0  2  0  0  0  0  0  0  0  0  0
    0.8637    2.2351    1.2656 O   0  0  0  0  0  0  0  0  0  0  0  0
   -0.5115    0.6836   -0.0139 C   0  0  2  0  0  0  0  0  0  0  0  0
   -1.6039    1.2626    0.6535 O   0  0  0  0  0  0  0  0  0  0  0  0
   -2.8190   -3.8479    0.5745 H   0  0  0  0  0  0  0  0  0  0  0  0
   -3.7739   -3.2826    1.9985 H   0  0  0  0  0  0  0  0  0  0  0  0
   -3.9715   -2.4636    0.3978 H   0  0  0  0  0  0  0  0  0  0  0  0
   -1.2923   -2.0368   -0.5423 H   0  0  0  0  0  0  0  0  0  0  0  0
    0.0168   -0.4932    1.7433 H   0  0  0  0  0  0  0  0  0  0  0  0
    1.0832   -1.4180   -1.0057 H   0  0  0  0  0  0  0  0  0  0  0  0
    2.3846   -2.6889    0.2931 H   0  0  0  0  0  0  0  0  0  0  0  0
    1.7832    0.6766   -1.5987 H   0  0  0  0  0  0  0  0  0  0  0  0
    2.9047    2.8328   -1.0582 H   0  0  0  0  0  0  0  0  0  0  0  0
    3.9879    1.3821   -1.0925 H   0  0  0  0  0  0  0  0  0  0  0  0
    0.4270    2.4986   -0.7092 H   0  0  0  0  0  0  0  0  0  0  0  0
    1.1626    1.5176    1.8814 H   0  0  0  0  0  0  0  0  0  0  0  0
   -0.7821    0.4893   -1.0801 H   0  0  0  0  0  0  0  0  0  0  0  0
   -2.4212    0.8091    0.3191 H   0  0  0  0  0  0  0  0  0  0  0  0
  1  2  1  0
  2  3  2  0
  2  4  1  0
  4  5  1  0
  5  6  1  0
  6  7  1  0
  6  8  1  0
  8  9  1  0
  9 10  1  0
 10 11  1  0
 11 12  1  0
 12 13  2  0
 12 14  2  0
 12 15  1  0
  9 16  1  0
 16 17  1  0
 16 18  1  0
 18 19  1  0
 18  5  1  0
  1 20  1  0
  1 21  1  0
  1 22  1  0
  4 23  1  0
  5 24  1  1
  6 25  1  6
  7 26  1  0
  9 27  1  6
 10 28  1  0
 10 29  1  0
 16 30  1  6
 17 31  1  0
 18 32  1  6
 19 33  1  0
M  CHG  1  15  -1
M  END
>  <UniqueID>  (17) 
16

>  <SMILES>  (17) 
CC(=O)N[C@H]1[C@H](O)O[C@H](COS(=O)(=O)[O-])[C@H](O)[C@@H]1O

>  <Energy>  (17) 
28.829651890901875

>  <Genealogy>  (17) 
CC(=O)N[C@H]1[C@H](O)O[C@H](COS(=O)(=O)[O-])[C@H](O)[C@@H]1O (chirality)
CC(=O)N[C@H]1[C@H](O)O[C@H](COS(=O)(=O)[O-])[C@H](O)[C@@H]1O (3D coordinates assigned)
CC(=O)N[C@H]1[C@H](O)O[C@H](COS(=O)(=O)[O-])[C@H](O)[C@@H]1O (nonaromatic ring conformer: 28.829651890901875 kcal/mol)

$$$$
91820057
     RDKit          3D

 33 33  0  0  0  0  0  0  0  0999 V2000
   -1.5468   -4.9122    0.8793 H   0  0  0  0  0  0  0  0  0  0  0  0
   -1.0308   -4.0535    0.7298 O   0  0  0  0  0  0  0  0  0  0  0  0
    0.3373   -3.9785    0.9904 C   0  0  0  0  0  0  0  0  0  0  0  0
    0.9939   -2.8783    0.7735 N   0  0  0  0  0  0  0  0  0  0  0  0
    0.3900   -1.6362    0.2851 C   0  0  1  0  0  0  0  0  0  0  0  0
   -0.3107   -1.8685   -0.5494 H   0  0  0  0  0  0  0  0  0  0  0  0
   -0.3948   -0.9331    1.4169 C   0  0  1  0  0  0  0  0  0  0  0  0
   -1.2650   -1.5787    1.6703 H   0  0  0  0  0  0  0  0  0  0  0  0
    0.4020   -0.7938    2.5674 O   0  0  0  0  0  0  0  0  0  0  0  0
   -0.1942   -0.4440    3.2798 H   0  0  0  0  0  0  0  0  0  0  0  0
   -0.9091    0.3225    0.9931 O   0  0  0  0  0  0  0  0  0  0  0  0
    0.1308    1.2131    0.6177 C   0  0  2  0  0  0  0  0  0  0  0  0
    0.8440    1.3572    1.4626 H   0  0  0  0  0  0  0  0  0  0  0  0
   -0.4842    2.5889    0.3302 C   0  0  0  0  0  0  0  0  0  0  0  0
   -1.1991    2.4995   -0.5187 H   0  0  0  0  0  0  0  0  0  0  0  0
   -1.0436    2.9104    1.2374 H   0  0  0  0  0  0  0  0  0  0  0  0
    0.5358    3.5157    0.0392 O   0  0  0  0  0  0  0  0  0  0  0  0
   -0.1790    5.0082   -0.3256 S   0  0  0  0  0  6  0  0  0  0  0  0
   -1.0403    4.8877   -1.5520 O   0  0  0  0  0  0  0  0  0  0  0  0
   -1.0094    5.4892    0.8319 O   0  0  0  0  0  0  0  0  0  0  0  0
    1.0360    6.1284   -0.6237 O   0  0  0  0  0  1  0  0  0  0  0  0
    0.8986    0.6670   -0.6073 C   0  0  2  0  0  0  0  0  0  0  0  0
    1.7356    1.3644   -0.8490 H   0  0  0  0  0  0  0  0  0  0  0  0
    0.0265    0.5555   -1.7058 O   0  0  0  0  0  0  0  0  0  0  0  0
    0.5850    0.5996   -2.5252 H   0  0  0  0  0  0  0  0  0  0  0  0
    1.4923   -0.7073   -0.2560 C   0  0  2  0  0  0  0  0  0  0  0  0
    2.2681   -0.5558    0.5330 H   0  0  0  0  0  0  0  0  0  0  0  0
    2.0866   -1.2685   -1.3989 O   0  0  0  0  0  0  0  0  0  0  0  0
    2.7369   -1.9489   -1.0829 H   0  0  0  0  0  0  0  0  0  0  0  0
    1.0671   -5.1853    1.4851 C   0  0  0  0  0  0  0  0  0  0  0  0
    2.0202   -4.8934    1.9759 H   0  0  0  0  0  0  0  0  0  0  0  0
    1.2887   -5.8578    0.6307 H   0  0  0  0  0  0  0  0  0  0  0  0
    0.4405   -5.7278    2.2235 H   0  0  0  0  0  0  0  0  0  0  0  0
  1  2  1  0
  2  3  1  0
  3  4  2  0
  4  5  1  0
  5  6  1  6
  5  7  1  0
  7  8  1  1
  7  9  1  0
  9 10  1  0
  7 11  1  0
 11 12  1  0
 12 13  1  1
 12 14  1  0
 14 15  1  0
 14 16  1  0
 14 17  1  0
 17 18  1  0
 18 19  2  0
 18 20  2  0
 18 21  1  0
 12 22  1  0
 22 23  1  6
 22 24  1  0
 24 25  1  0
 22 26  1  0
 26 27  1  1
 26 28  1  0
 28 29  1  0
  3 30  1  0
 30 31  1  0
 30 32  1  0
 30 33  1  0
 26  5  1  0
M  CHG  1  21  -1
M  END
>  <UniqueID>  (18) 
17

>  <SMILES>  (18) 
C/C(O)=N\[C@H]1[C@@H](O)O[C@H](COS(=O)(=O)[O-])[C@H](O)[C@@H]1O

>  <Energy>  (18) 
29.0514439079175

>  <Genealogy>  (18) 
CC(O)=N[C@H]1C(O)O[C@H](COS(=O)(=O)[O-])[C@H](O)[C@@H]1O (tautomer)
CC(O)=N[C@H]1[C@@H](O)O[C@H](COS(=O)(=O)[O-])[C@H](O)[C@@H]1O (chirality)
C/C(O)=N\[C@H]1[C@@H](O)O[C@H](COS(=O)(=O)[O-])[C@H](O)[C@@H]1O (cis-trans isomerization)
C/C(O)=N\[C@H]1[C@@H](O)O[C@H](COS(=O)(=O)[O-])[C@H](O)[C@@H]1O (3D coordinates assigned)
C/C(O)=N\[C@H]1[C@@H](O)O[C@H](COS(=O)(=O)[O-])[C@H](O)[C@@H]1O (nonaromatic ring conformer: 29.0514439079175 kcal/mol)

$$$$
91820057
     RDKit          3D

 33 33  0  0  0  0  0  0  0  0999 V2000
   -0.1965   -5.1846   -0.6754 H   0  0  0  0  0  0  0  0  0  0  0  0
   -0.1139   -4.2344   -0.3342 O   0  0  0  0  0  0  0  0  0  0  0  0
    0.3664   -3.9665    0.9474 C   0  0  0  0  0  0  0  0  0  0  0  0
    0.4463   -2.7453    1.3850 N   0  0  0  0  0  0  0  0  0  0  0  0
    0.0989   -1.5539    0.6056 C   0  0  1  0  0  0  0  0  0  0  0  0
   -0.7899   -1.7717   -0.0287 H   0  0  0  0  0  0  0  0  0  0  0  0
   -0.2879   -0.4139    1.5700 C   0  0  1  0  0  0  0  0  0  0  0  0
   -1.2266   -0.7254    2.0822 H   0  0  0  0  0  0  0  0  0  0  0  0
    0.7052   -0.2220    2.5476 O   0  0  0  0  0  0  0  0  0  0  0  0
    0.3386    0.4375    3.1926 H   0  0  0  0  0  0  0  0  0  0  0  0
   -0.5625    0.7922    0.8703 O   0  0  0  0  0  0  0  0  0  0  0  0
    0.5833    1.2633    0.1767 C   0  0  2  0  0  0  0  0  0  0  0  0
    1.4325    1.4161    0.8828 H   0  0  0  0  0  0  0  0  0  0  0  0
    0.2712    2.6365   -0.4285 C   0  0  0  0  0  0  0  0  0  0  0  0
    1.1570    2.9776   -1.0108 H   0  0  0  0  0  0  0  0  0  0  0  0
   -0.6056    2.5415   -1.1079 H   0  0  0  0  0  0  0  0  0  0  0  0
   -0.0089    3.5455    0.6096 O   0  0  0  0  0  0  0  0  0  0  0  0
   -0.3601    5.0556   -0.0751 S   0  0  0  0  0  6  0  0  0  0  0  0
   -1.5676    4.9578   -0.9656 O   0  0  0  0  0  0  0  0  0  0  0  0
    0.8151    5.5570   -0.8677 O   0  0  0  0  0  0  0  0  0  0  0  0
   -0.6848    6.1448    1.1611 O   0  0  0  0  0  1  0  0  0  0  0  0
    1.0246    0.2573   -0.9151 C   0  0  2  0  0  0  0  0  0  0  0  0
    1.9839    0.6159   -1.3490 H   0  0  0  0  0  0  0  0  0  0  0  0
    0.0905    0.1725   -1.9666 O   0  0  0  0  0  0  0  0  0  0  0  0
   -0.7985   -0.0298   -1.5765 H   0  0  0  0  0  0  0  0  0  0  0  0
    1.2837   -1.1266   -0.2848 C   0  0  2  0  0  0  0  0  0  0  0  0
    2.1933   -1.0577    0.3588 H   0  0  0  0  0  0  0  0  0  0  0  0
    1.4969   -2.0821   -1.2914 O   0  0  0  0  0  0  0  0  0  0  0  0
    2.4032   -1.9127   -1.6598 H   0  0  0  0  0  0  0  0  0  0  0  0
    0.7526   -5.0961    1.8468 C   0  0  0  0  0  0  0  0  0  0  0  0
    1.4314   -4.7418    2.6519 H   0  0  0  0  0  0  0  0  0  0  0  0
   -0.1598   -5.5309    2.3048 H   0  0  0  0  0  0  0  0  0  0  0  0
    1.2766   -5.8807    1.2621 H   0  0  0  0  0  0  0  0  0  0  0  0
  1  2  1  0
  2  3  1  0
  3  4  2  0
  4  5  1  0
  5  6  1  6
  5  7  1  0
  7  8  1  1
  7  9  1  0
  9 10  1  0
  7 11  1  0
 11 12  1  0
 12 13  1  1
 12 14  1  0
 14 15  1  0
 14 16  1  0
 14 17  1  0
 17 18  1  0
 18 19  2  0
 18 20  2  0
 18 21  1  0
 12 22  1  0
 22 23  1  6
 22 24  1  0
 24 25  1  0
 22 26  1  0
 26 27  1  1
 26 28  1  0
 28 29  1  0
  3 30  1  0
 30 31  1  0
 30 32  1  0
 30 33  1  0
 26  5  1  0
M  CHG  1  21  -1
M  END
>  <UniqueID>  (19) 
18

>  <SMILES>  (19) 
C/C(O)=N\[C@H]1[C@@H](O)O[C@H](COS(=O)(=O)[O-])[C@H](O)[C@@H]1O

>  <Energy>  (19) 
30.67714062537898

>  <Genealogy>  (19) 
CC(O)=N[C@H]1C(O)O[C@H](COS(=O)(=O)[O-])[C@H](O)[C@@H]1O (tautomer)
CC(O)=N[C@H]1[C@@H](O)O[C@H](COS(=O)(=O)[O-])[C@H](O)[C@@H]1O (chirality)
C/C(O)=N\[C@H]1[C@@H](O)O[C@H](COS(=O)(=O)[O-])[C@H](O)[C@@H]1O (cis-trans isomerization)
C/C(O)=N\[C@H]1[C@@H](O)O[C@H](COS(=O)(=O)[O-])[C@H](O)[C@@H]1O (3D coordinates assigned)
C/C(O)=N\[C@H]1[C@@H](O)O[C@H](COS(=O)(=O)[O-])[C@H](O)[C@@H]1O (nonaromatic ring conformer: 30.67714062537898 kcal/mol)

$$$$
90659182
     RDKit          3D

 35 35  0  0  0  0  0  0  0  0999 V2000
   -0.8946   -5.1422   -1.5790 C   0  0  0  0  0  0  0  0  0  0  0  0
   -1.1026   -4.1183   -0.5115 C   0  0  0  0  0  0  0  0  0  0  0  0
   -1.2126   -4.4854    0.6897 O   0  0  0  0  0  0  0  0  0  0  0  0
   -1.1438   -2.7262   -0.8557 N   0  0  0  0  0  0  0  0  0  0  0  0
   -1.2566   -1.6613    0.1499 C   0  0  2  0  0  0  0  0  0  0  0  0
   -2.1165   -0.5052   -0.4052 C   0  0  1  0  0  0  0  0  0  0  0  0
   -2.4497    0.4163    0.6049 O   0  0  0  0  0  0  0  0  0  0  0  0
   -1.4669    0.1481   -1.4844 O   0  0  0  0  0  0  0  0  0  0  0  0
   -0.2415    0.7442   -1.0835 C   0  0  2  0  0  0  0  0  0  0  0  0
    0.3140    1.5239   -2.2841 C   0  0  0  0  0  0  0  0  0  0  0  0
    1.3914    2.3296   -1.8919 O   0  0  0  0  0  0  0  0  0  0  0  0
    0.7628   -0.3315   -0.6007 C   0  0  1  0  0  0  0  0  0  0  0  0
    1.9595    0.3049   -0.1453 O   0  0  0  0  0  0  0  0  0  0  0  0
    3.2231   -0.2957   -0.1801 C   0  0  0  0  0  0  0  0  0  0  0  0
    4.3953    0.4332    0.3820 C   0  0  0  0  0  0  0  0  0  0  0  0
    3.3770   -1.4559   -0.6496 O   0  0  0  0  0  0  0  0  0  0  0  0
    0.1351   -1.1408    0.5508 C   0  0  2  0  0  0  0  0  0  0  0  0
    0.9606   -2.2230    0.8999 O   0  0  0  0  0  0  0  0  0  0  0  0
   -1.0730   -6.1637   -1.1808 H   0  0  0  0  0  0  0  0  0  0  0  0
   -1.5983   -4.9572   -2.4173 H   0  0  0  0  0  0  0  0  0  0  0  0
    0.1475   -5.0763   -1.9552 H   0  0  0  0  0  0  0  0  0  0  0  0
   -0.9829   -2.4630   -1.8548 H   0  0  0  0  0  0  0  0  0  0  0  0
   -1.7622   -2.0606    1.0573 H   0  0  0  0  0  0  0  0  0  0  0  0
   -3.0591   -0.9425   -0.8082 H   0  0  0  0  0  0  0  0  0  0  0  0
   -3.1216   -0.0251    1.1876 H   0  0  0  0  0  0  0  0  0  0  0  0
   -0.4190    1.4834   -0.2682 H   0  0  0  0  0  0  0  0  0  0  0  0
   -0.4913    2.1724   -2.6968 H   0  0  0  0  0  0  0  0  0  0  0  0
    0.6354    0.8164   -3.0817 H   0  0  0  0  0  0  0  0  0  0  0  0
    1.7115    2.7818   -2.7152 H   0  0  0  0  0  0  0  0  0  0  0  0
    0.9909   -1.0089   -1.4548 H   0  0  0  0  0  0  0  0  0  0  0  0
    4.2019    1.5263    0.3724 H   0  0  0  0  0  0  0  0  0  0  0  0
    5.3015    0.2241   -0.2248 H   0  0  0  0  0  0  0  0  0  0  0  0
    4.5688    0.1030    1.4272 H   0  0  0  0  0  0  0  0  0  0  0  0
    0.0035   -0.4656    1.4313 H   0  0  0  0  0  0  0  0  0  0  0  0
    1.5972   -1.8957    1.5878 H   0  0  0  0  0  0  0  0  0  0  0  0
  1  2  1  0
  2  3  2  0
  2  4  1  0
  4  5  1  0
  5  6  1  0
  6  7  1  0
  6  8  1  0
  8  9  1  0
  9 10  1  0
 10 11  1  0
  9 12  1  0
 12 13  1  0
 13 14  1  0
 14 15  1  0
 14 16  2  0
 12 17  1  0
 17 18  1  0
 17  5  1  0
  1 19  1  0
  1 20  1  0
  1 21  1  0
  4 22  1  0
  5 23  1  1
  6 24  1  6
  7 25  1  0
  9 26  1  1
 10 27  1  0
 10 28  1  0
 11 29  1  0
 12 30  1  6
 15 31  1  0
 15 32  1  0
 15 33  1  0
 17 34  1  1
 18 35  1  0
M  END
>  <UniqueID>  (20) 
19

>  <SMILES>  (20) 
CC(=O)N[C@@H]1[C@@H](O)O[C@H](CO)[C@@H](OC(C)=O)[C@@H]1O

>  <Energy>  (20) 
28.22515867784672

>  <Genealogy>  (20) 
CC(=O)N[C@@H]1[C@@H](O)O[C@H](CO)[C@@H](OC(C)=O)[C@@H]1O (3D coordinates assigned)
CC(=O)N[C@@H]1[C@@H](O)O[C@H](CO)[C@@H](OC(C)=O)[C@@H]1O (nonaromatic ring conformer: 28.22515867784672 kcal/mol)

$$$$
90659182
     RDKit          3D

 35 35  0  0  0  0  0  0  0  0999 V2000
    5.1254   -0.4400    0.3220 H   0  0  0  0  0  0  0  0  0  0  0  0
    4.1190   -0.4367    0.4361 O   0  0  0  0  0  0  0  0  0  0  0  0
    3.3216    0.5034   -0.2163 C   0  0  0  0  0  0  0  0  0  0  0  0
    2.0336    0.5122   -0.0453 N   0  0  0  0  0  0  0  0  0  0  0  0
    1.3012   -0.4445    0.7901 C   0  0  2  0  0  0  0  0  0  0  0  0
    1.8510   -0.5963    1.7465 H   0  0  0  0  0  0  0  0  0  0  0  0
    1.1606   -1.7930    0.0472 C   0  0  1  0  0  0  0  0  0  0  0  0
    2.1708   -2.1170   -0.2906 H   0  0  0  0  0  0  0  0  0  0  0  0
    0.6401   -2.7910    0.8918 O   0  0  0  0  0  0  0  0  0  0  0  0
    1.3528   -3.0145    1.5460 H   0  0  0  0  0  0  0  0  0  0  0  0
    0.3616   -1.6531   -1.1176 O   0  0  0  0  0  0  0  0  0  0  0  0
   -0.9679   -1.2616   -0.8041 C   0  0  2  0  0  0  0  0  0  0  0  0
   -1.4468   -2.0057   -0.1264 H   0  0  0  0  0  0  0  0  0  0  0  0
   -1.7859   -1.2466   -2.1043 C   0  0  0  0  0  0  0  0  0  0  0  0
   -2.8395   -0.9459   -1.9029 H   0  0  0  0  0  0  0  0  0  0  0  0
   -1.3512   -0.5059   -2.8093 H   0  0  0  0  0  0  0  0  0  0  0  0
   -1.7584   -2.5086   -2.7149 O   0  0  0  0  0  0  0  0  0  0  0  0
   -2.3714   -3.0901   -2.1933 H   0  0  0  0  0  0  0  0  0  0  0  0
   -0.9947    0.1310   -0.1328 C   0  0  1  0  0  0  0  0  0  0  0  0
   -0.6088    0.8799   -0.8616 H   0  0  0  0  0  0  0  0  0  0  0  0
   -2.3393    0.4473    0.2373 O   0  0  0  0  0  0  0  0  0  0  0  0
   -2.8235    1.7524    0.3789 C   0  0  0  0  0  0  0  0  0  0  0  0
   -2.1065    2.7460    0.0817 O   0  0  0  0  0  0  0  0  0  0  0  0
   -4.2300    1.9661    0.8234 C   0  0  0  0  0  0  0  0  0  0  0  0
   -4.8864    2.0719   -0.0651 H   0  0  0  0  0  0  0  0  0  0  0  0
   -4.5715    1.0998    1.4278 H   0  0  0  0  0  0  0  0  0  0  0  0
   -4.2994    2.8849    1.4432 H   0  0  0  0  0  0  0  0  0  0  0  0
   -0.0985    0.1076    1.1236 C   0  0  2  0  0  0  0  0  0  0  0  0
   -0.5669   -0.5788    1.8639 H   0  0  0  0  0  0  0  0  0  0  0  0
   -0.0141    1.3735    1.7319 O   0  0  0  0  0  0  0  0  0  0  0  0
    0.3159    2.0192    1.0546 H   0  0  0  0  0  0  0  0  0  0  0  0
    3.9544    1.5375   -1.0902 C   0  0  0  0  0  0  0  0  0  0  0  0
    3.2096    1.9631   -1.7964 H   0  0  0  0  0  0  0  0  0  0  0  0
    4.7784    1.0810   -1.6774 H   0  0  0  0  0  0  0  0  0  0  0  0
    4.3646    2.3526   -0.4587 H   0  0  0  0  0  0  0  0  0  0  0  0
  1  2  1  0
  2  3  1  0
  3  4  2  0
  4  5  1  0
  5  6  1  1
  5  7  1  0
  7  8  1  6
  7  9  1  0
  9 10  1  0
  7 11  1  0
 11 12  1  0
 12 13  1  1
 12 14  1  0
 14 15  1  0
 14 16  1  0
 14 17  1  0
 17 18  1  0
 12 19  1  0
 19 20  1  6
 19 21  1  0
 21 22  1  0
 22 23  2  0
 22 24  1  0
 24 25  1  0
 24 26  1  0
 24 27  1  0
 19 28  1  0
 28 29  1  1
 28 30  1  0
 30 31  1  0
  3 32  1  0
 32 33  1  0
 32 34  1  0
 32 35  1  0
 28  5  1  0
M  END
>  <UniqueID>  (21) 
20

>  <SMILES>  (21) 
CC(=O)O[C@@H]1[C@@H](CO)O[C@H](O)[C@@H](/N=C(/C)O)[C@H]1O

>  <Energy>  (21) 
28.828908672296294

>  <Genealogy>  (21) 
CC(=O)O[C@@H]1[C@@H](CO)O[C@H](O)[C@@H](N=C(C)O)[C@H]1O (tautomer)
CC(=O)O[C@@H]1[C@@H](CO)O[C@H](O)[C@@H](/N=C(/C)O)[C@H]1O (cis-trans isomerization)
CC(=O)O[C@@H]1[C@@H](CO)O[C@H](O)[C@@H](/N=C(/C)O)[C@H]1O (3D coordinates assigned)
CC(=O)O[C@@H]1[C@@H](CO)O[C@H](O)[C@@H](/N=C(/C)O)[C@H]1O (nonaromatic ring conformer: 28.828908672296294 kcal/mol)

$$$$
90659182
     RDKit          3D

 35 35  0  0  0  0  0  0  0  0999 V2000
    2.6496    1.8924   -2.8984 H   0  0  0  0  0  0  0  0  0  0  0  0
    1.9213    1.4660   -2.3383 O   0  0  0  0  0  0  0  0  0  0  0  0
    0.6137    1.9505   -2.3639 C   0  0  0  0  0  0  0  0  0  0  0  0
   -0.3172    1.3820   -1.6574 N   0  0  0  0  0  0  0  0  0  0  0  0
   -0.0961    0.2393   -0.7679 C   0  0  2  0  0  0  0  0  0  0  0  0
    0.5280   -0.5202   -1.2929 H   0  0  0  0  0  0  0  0  0  0  0  0
   -1.4437   -0.4129   -0.4214 C   0  0  1  0  0  0  0  0  0  0  0  0
   -2.1084    0.3381    0.0630 H   0  0  0  0  0  0  0  0  0  0  0  0
   -2.0582   -0.8311   -1.6102 O   0  0  0  0  0  0  0  0  0  0  0  0
   -2.9655   -1.1485   -1.3614 H   0  0  0  0  0  0  0  0  0  0  0  0
   -1.2586   -1.5458    0.4139 O   0  0  0  0  0  0  0  0  0  0  0  0
   -0.6664   -1.2170    1.6645 C   0  0  2  0  0  0  0  0  0  0  0  0
   -0.4443   -2.1863    2.1638 H   0  0  0  0  0  0  0  0  0  0  0  0
   -1.6435   -0.4982    2.6206 C   0  0  0  0  0  0  0  0  0  0  0  0
   -1.1625   -0.3987    3.6170 H   0  0  0  0  0  0  0  0  0  0  0  0
   -1.8911    0.5304    2.2842 H   0  0  0  0  0  0  0  0  0  0  0  0
   -2.8148   -1.2525    2.7782 O   0  0  0  0  0  0  0  0  0  0  0  0
   -3.3870   -1.0584    1.9906 H   0  0  0  0  0  0  0  0  0  0  0  0
    0.7002   -0.5023    1.5079 C   0  0  1  0  0  0  0  0  0  0  0  0
    1.0271   -0.1328    2.5062 H   0  0  0  0  0  0  0  0  0  0  0  0
    1.6555   -1.4578    1.0379 O   0  0  0  0  0  0  0  0  0  0  0  0
    3.0407   -1.2807    1.1302 C   0  0  0  0  0  0  0  0  0  0  0  0
    3.5269   -0.2791    1.7225 O   0  0  0  0  0  0  0  0  0  0  0  0
    3.9508   -2.3193    0.5695 C   0  0  0  0  0  0  0  0  0  0  0  0
    4.2419   -3.0282    1.3721 H   0  0  0  0  0  0  0  0  0  0  0  0
    4.8625   -1.8425    0.1517 H   0  0  0  0  0  0  0  0  0  0  0  0
    3.4352   -2.8768   -0.2403 H   0  0  0  0  0  0  0  0  0  0  0  0
    0.6200    0.6804    0.5234 C   0  0  2  0  0  0  0  0  0  0  0  0
    1.6588    0.9963    0.2720 H   0  0  0  0  0  0  0  0  0  0  0  0
   -0.0541    1.7557    1.1285 O   0  0  0  0  0  0  0  0  0  0  0  0
    0.2481    2.5848    0.6736 H   0  0  0  0  0  0  0  0  0  0  0  0
    0.2671    3.1099   -3.2410 C   0  0  0  0  0  0  0  0  0  0  0  0
    0.1324    2.7556   -4.2839 H   0  0  0  0  0  0  0  0  0  0  0  0
    1.0846    3.8603   -3.2133 H   0  0  0  0  0  0  0  0  0  0  0  0
   -0.6710    3.5955   -2.8966 H   0  0  0  0  0  0  0  0  0  0  0  0
  1  2  1  0
  2  3  1  0
  3  4  2  0
  4  5  1  0
  5  6  1  6
  5  7  1  0
  7  8  1  1
  7  9  1  0
  9 10  1  0
  7 11  1  0
 11 12  1  0
 12 13  1  1
 12 14  1  0
 14 15  1  0
 14 16  1  0
 14 17  1  0
 17 18  1  0
 12 19  1  0
 19 20  1  1
 19 21  1  0
 21 22  1  0
 22 23  2  0
 22 24  1  0
 24 25  1  0
 24 26  1  0
 24 27  1  0
 19 28  1  0
 28 29  1  6
 28 30  1  0
 30 31  1  0
  3 32  1  0
 32 33  1  0
 32 34  1  0
 32 35  1  0
 28  5  1  0
M  END
>  <UniqueID>  (22) 
21

>  <SMILES>  (22) 
CC(=O)O[C@@H]1[C@@H](CO)O[C@H](O)[C@@H](/N=C(\C)O)[C@H]1O

>  <Energy>  (22) 
29.98930342436447

>  <Genealogy>  (22) 
CC(=O)O[C@@H]1[C@@H](CO)O[C@H](O)[C@@H](N=C(C)O)[C@H]1O (tautomer)
CC(=O)O[C@@H]1[C@@H](CO)O[C@H](O)[C@@H](/N=C(\C)O)[C@H]1O (cis-trans isomerization)
CC(=O)O[C@@H]1[C@@H](CO)O[C@H](O)[C@@H](/N=C(\C)O)[C@H]1O (3D coordinates assigned)
CC(=O)O[C@@H]1[C@@H](CO)O[C@H](O)[C@@H](/N=C(\C)O)[C@H]1O (nonaromatic ring conformer: 29.98930342436447 kcal/mol)

$$$$
76325328
     RDKit          3D

 58 62  0  0  0  0  0  0  0  0999 V2000
   -1.7691    1.6380    2.3734 C   0  0  0  0  0  0  0  0  0  0  0  0
   -1.9086    0.3368    1.7161 N   0  0  0  0  0  0  0  0  0  0  0  0
   -1.3576   -0.0537    0.5404 C   0  0  0  0  0  0  0  0  0  0  0  0
   -0.5541    0.8006   -0.3552 C   0  0  0  0  0  0  0  0  0  0  0  0
    0.0757    0.3977   -1.5132 C   0  0  0  0  0  0  0  0  0  0  0  0
    0.6717    1.4921   -2.0159 N   0  0  0  0  0  0  0  0  0  0  0  0
    1.4433    1.5698   -3.2600 C   0  0  1  0  0  0  0  0  0  0  0  0
    0.6499    2.3229   -4.3471 C   0  0  1  0  0  0  0  0  0  0  0  0
    0.2583    3.5990   -3.9022 O   0  0  0  0  0  0  0  0  0  0  0  0
    1.3960    2.4085   -5.5526 O   0  0  0  0  0  0  0  0  0  0  0  0
    2.6036    3.1371   -5.3733 C   0  0  2  0  0  0  0  0  0  0  0  0
    3.2862    3.2795   -6.7421 C   0  0  0  0  0  0  0  0  0  0  0  0
    2.4179    3.8883   -7.6619 O   0  0  0  0  0  0  0  0  0  0  0  0
    3.5347    2.4183   -4.3657 C   0  0  1  0  0  0  0  0  0  0  0  0
    4.7011    3.1758   -4.1527 O   0  0  0  0  0  0  0  0  0  0  0  0
    2.8089    2.2423   -3.0248 C   0  0  2  0  0  0  0  0  0  0  0  0
    3.5980    1.4473   -2.1759 O   0  0  0  0  0  0  0  0  0  0  0  0
    0.4097    2.5152   -1.2163 N   0  0  0  0  0  0  0  0  0  0  0  0
   -0.3363    2.1218   -0.1942 N   0  0  0  0  0  0  0  0  0  0  0  0
   -1.6242   -1.3435    0.2442 N   0  0  0  0  0  0  0  0  0  0  0  0
   -2.3886   -1.7809    1.2647 C   0  0  0  0  0  0  0  0  0  0  0  0
   -2.9348   -3.1551    1.3241 C   0  0  0  0  0  0  0  0  0  0  0  0
   -4.2218   -3.4089    1.8323 C   0  0  0  0  0  0  0  0  0  0  0  0
   -4.7221   -4.7142    1.8690 C   0  0  0  0  0  0  0  0  0  0  0  0
   -3.9506   -5.7748    1.3875 C   0  0  0  0  0  0  0  0  0  0  0  0
   -4.4388   -7.0393    1.4215 F   0  0  0  0  0  0  0  0  0  0  0  0
   -2.6790   -5.5302    0.8622 C   0  0  0  0  0  0  0  0  0  0  0  0
   -2.1746   -4.2264    0.8243 C   0  0  0  0  0  0  0  0  0  0  0  0
   -2.5721   -0.7481    2.1738 C   0  0  0  0  0  0  0  0  0  0  0  0
   -3.2833   -0.8262    3.4677 C   0  0  0  0  0  0  0  0  0  0  0  0
   -4.3210    0.0696    3.7619 C   0  0  0  0  0  0  0  0  0  0  0  0
   -5.0000   -0.0405    4.9779 C   0  0  0  0  0  0  0  0  0  0  0  0
   -4.6575   -1.0128    5.8644 N   0  0  0  0  0  0  0  0  0  0  0  0
   -3.6554   -1.8943    5.6036 C   0  0  0  0  0  0  0  0  0  0  0  0
   -2.9503   -1.8191    4.4003 C   0  0  0  0  0  0  0  0  0  0  0  0
   -2.0806    1.5881    3.4362 H   0  0  0  0  0  0  0  0  0  0  0  0
   -0.7068    1.9570    2.3658 H   0  0  0  0  0  0  0  0  0  0  0  0
   -2.3923    2.3901    1.8472 H   0  0  0  0  0  0  0  0  0  0  0  0
    0.0960   -0.5919   -1.9513 H   0  0  0  0  0  0  0  0  0  0  0  0
    1.6302    0.5363   -3.6346 H   0  0  0  0  0  0  0  0  0  0  0  0
   -0.2670    1.7259   -4.5578 H   0  0  0  0  0  0  0  0  0  0  0  0
   -0.3385    3.9692   -4.6045 H   0  0  0  0  0  0  0  0  0  0  0  0
    2.3898    4.1682   -5.0064 H   0  0  0  0  0  0  0  0  0  0  0  0
    3.5587    2.2727   -7.1286 H   0  0  0  0  0  0  0  0  0  0  0  0
    4.2226    3.8781   -6.6549 H   0  0  0  0  0  0  0  0  0  0  0  0
    2.3861    4.8535   -7.4276 H   0  0  0  0  0  0  0  0  0  0  0  0
    3.7898    1.4042   -4.7618 H   0  0  0  0  0  0  0  0  0  0  0  0
    5.3955    2.8242   -4.7695 H   0  0  0  0  0  0  0  0  0  0  0  0
    2.6588    3.2522   -2.5711 H   0  0  0  0  0  0  0  0  0  0  0  0
    3.2946    1.6261   -1.2477 H   0  0  0  0  0  0  0  0  0  0  0  0
   -4.8513   -2.6004    2.1787 H   0  0  0  0  0  0  0  0  0  0  0  0
   -5.7129   -4.9010    2.2629 H   0  0  0  0  0  0  0  0  0  0  0  0
   -2.0826   -6.3507    0.4835 H   0  0  0  0  0  0  0  0  0  0  0  0
   -1.1862   -4.0556    0.4151 H   0  0  0  0  0  0  0  0  0  0  0  0
   -4.6079    0.8373    3.0534 H   0  0  0  0  0  0  0  0  0  0  0  0
   -5.8036    0.6443    5.2147 H   0  0  0  0  0  0  0  0  0  0  0  0
   -3.4062   -2.6563    6.3308 H   0  0  0  0  0  0  0  0  0  0  0  0
   -2.1556   -2.5262    4.1970 H   0  0  0  0  0  0  0  0  0  0  0  0
  1  2  1  0
  2  3  1  0
  3  4  1  0
  4  5  2  0
  5  6  1  0
  6  7  1  0
  7  8  1  0
  8  9  1  0
  8 10  1  0
 10 11  1  0
 11 12  1  0
 12 13  1  0
 11 14  1  0
 14 15  1  0
 14 16  1  0
 16 17  1  0
  6 18  1  0
 18 19  2  0
  3 20  2  0
 20 21  1  0
 21 22  1  0
 22 23  2  0
 23 24  1  0
 24 25  2  0
 25 26  1  0
 25 27  1  0
 27 28  2  0
 21 29  2  0
 29 30  1  0
 30 31  2  0
 31 32  1  0
 32 33  2  0
 33 34  1  0
 34 35  2  0
 29  2  1  0
 35 30  1  0
 19  4  1  0
 28 22  1  0
 16  7  1  0
  1 36  1  0
  1 37  1  0
  1 38  1  0
  5 39  1  0
  7 40  1  6
  8 41  1  6
  9 42  1  0
 11 43  1  1
 12 44  1  0
 12 45  1  0
 13 46  1  0
 14 47  1  6
 15 48  1  0
 16 49  1  1
 17 50  1  0
 23 51  1  0
 24 52  1  0
 27 53  1  0
 28 54  1  0
 31 55  1  0
 32 56  1  0
 34 57  1  0
 35 58  1  0
M  END
>  <UniqueID>  (26) 
25

>  <SMILES>  (26) 
Cn1c(-c2cn([C@H]3[C@@H](O)O[C@H](CO)[C@@H](O)[C@@H]3O)nn2)nc(-c2ccc(F)cc2)c1-c1ccncc1

>  <Energy>  (26) 
139.8458616407523

>  <Genealogy>  (26) 
Cn1c(-c2cn([C@H]3[C@@H](O)O[C@H](CO)[C@@H](O)[C@@H]3O)nn2)nc(-c2ccc(F)cc2)c1-c1ccncc1 (chirality)
Cn1c(-c2cn([C@H]3[C@@H](O)O[C@H](CO)[C@@H](O)[C@@H]3O)nn2)nc(-c2ccc(F)cc2)c1-c1ccncc1 (3D coordinates assigned)
Cn1c(-c2cn([C@H]3[C@@H](O)O[C@H](CO)[C@@H](O)[C@@H]3O)nn2)nc(-c2ccc(F)cc2)c1-c1ccncc1 (nonaromatic ring conformer: 139.8458616407523 kcal/mol)

$$$$
76325328
     RDKit          3D

 58 62  0  0  0  0  0  0  0  0999 V2000
   -1.9033    1.7256    2.0451 C   0  0  0  0  0  0  0  0  0  0  0  0
   -1.9338    0.3542    1.5308 N   0  0  0  0  0  0  0  0  0  0  0  0
   -1.4466   -0.0876    0.3451 C   0  0  0  0  0  0  0  0  0  0  0  0
   -0.6978    0.7290   -0.6295 C   0  0  0  0  0  0  0  0  0  0  0  0
   -0.2393    0.3097   -1.8601 C   0  0  0  0  0  0  0  0  0  0  0  0
    0.4110    1.3582   -2.3934 N   0  0  0  0  0  0  0  0  0  0  0  0
    1.0990    1.3945   -3.6879 C   0  0  1  0  0  0  0  0  0  0  0  0
    0.6034    2.5839   -4.5517 C   0  0  1  0  0  0  0  0  0  0  0  0
   -0.7654    2.8150   -4.3435 O   0  0  0  0  0  0  0  0  0  0  0  0
    1.3190    3.7584   -4.2188 O   0  0  0  0  0  0  0  0  0  0  0  0
    2.6797    3.7024   -4.6451 C   0  0  2  0  0  0  0  0  0  0  0  0
    2.8210    4.3382   -6.0364 C   0  0  0  0  0  0  0  0  0  0  0  0
    4.1754    4.5021   -6.3564 O   0  0  0  0  0  0  0  0  0  0  0  0
    3.3149    2.2796   -4.5812 C   0  0  1  0  0  0  0  0  0  0  0  0
    4.6921    2.3912   -4.3253 O   0  0  0  0  0  0  0  0  0  0  0  0
    2.6326    1.4659   -3.4648 C   0  0  2  0  0  0  0  0  0  0  0  0
    3.1823    0.1754   -3.3611 O   0  0  0  0  0  0  0  0  0  0  0  0
    0.3620    2.3639   -1.5331 N   0  0  0  0  0  0  0  0  0  0  0  0
   -0.3078    2.0075   -0.4467 N   0  0  0  0  0  0  0  0  0  0  0  0
   -1.7057   -1.3951    0.1307 N   0  0  0  0  0  0  0  0  0  0  0  0
   -2.3688   -1.7997    1.2322 C   0  0  0  0  0  0  0  0  0  0  0  0
   -2.8247   -3.1938    1.4259 C   0  0  0  0  0  0  0  0  0  0  0  0
   -3.2842   -3.9341    0.3233 C   0  0  0  0  0  0  0  0  0  0  0  0
   -3.7135   -5.2550    0.4873 C   0  0  0  0  0  0  0  0  0  0  0  0
   -3.6749   -5.8526    1.7497 C   0  0  0  0  0  0  0  0  0  0  0  0
   -4.0918   -7.1333    1.9067 F   0  0  0  0  0  0  0  0  0  0  0  0
   -3.1986   -5.1322    2.8483 C   0  0  0  0  0  0  0  0  0  0  0  0
   -2.7692   -3.8109    2.6887 C   0  0  0  0  0  0  0  0  0  0  0  0
   -2.5091   -0.7270    2.1021 C   0  0  0  0  0  0  0  0  0  0  0  0
   -3.2359   -0.7232    3.3896 C   0  0  0  0  0  0  0  0  0  0  0  0
   -2.5989   -0.2951    4.5622 C   0  0  0  0  0  0  0  0  0  0  0  0
   -3.2981   -0.3162    5.7714 C   0  0  0  0  0  0  0  0  0  0  0  0
   -4.5843   -0.7539    5.8083 N   0  0  0  0  0  0  0  0  0  0  0  0
   -5.2238   -1.1795    4.6869 C   0  0  0  0  0  0  0  0  0  0  0  0
   -4.5618   -1.1732    3.4569 C   0  0  0  0  0  0  0  0  0  0  0  0
   -0.8702    1.9851    2.3568 H   0  0  0  0  0  0  0  0  0  0  0  0
   -2.2478    2.4311    1.2607 H   0  0  0  0  0  0  0  0  0  0  0  0
   -2.5841    1.8492    2.9114 H   0  0  0  0  0  0  0  0  0  0  0  0
   -0.3562   -0.6634   -2.3194 H   0  0  0  0  0  0  0  0  0  0  0  0
    0.8530    0.4662   -4.2522 H   0  0  0  0  0  0  0  0  0  0  0  0
    0.7510    2.3437   -5.6327 H   0  0  0  0  0  0  0  0  0  0  0  0
   -1.2502    2.0467   -4.7454 H   0  0  0  0  0  0  0  0  0  0  0  0
    3.2449    4.3486   -3.9370 H   0  0  0  0  0  0  0  0  0  0  0  0
    2.3266    3.7008   -6.8029 H   0  0  0  0  0  0  0  0  0  0  0  0
    2.3210    5.3330   -6.0316 H   0  0  0  0  0  0  0  0  0  0  0  0
    4.1973    4.9041   -7.2635 H   0  0  0  0  0  0  0  0  0  0  0  0
    3.1521    1.7590   -5.5558 H   0  0  0  0  0  0  0  0  0  0  0  0
    5.1138    1.5464   -4.6324 H   0  0  0  0  0  0  0  0  0  0  0  0
    2.8391    1.9930   -2.5065 H   0  0  0  0  0  0  0  0  0  0  0  0
    3.0744   -0.2696   -4.2425 H   0  0  0  0  0  0  0  0  0  0  0  0
   -3.3249   -3.4851   -0.6617 H   0  0  0  0  0  0  0  0  0  0  0  0
   -4.0765   -5.8143   -0.3655 H   0  0  0  0  0  0  0  0  0  0  0  0
   -3.1551   -5.5986    3.8238 H   0  0  0  0  0  0  0  0  0  0  0  0
   -2.3762   -3.2828    3.5473 H   0  0  0  0  0  0  0  0  0  0  0  0
   -1.5702    0.0425    4.5416 H   0  0  0  0  0  0  0  0  0  0  0  0
   -2.8161    0.0125    6.6820 H   0  0  0  0  0  0  0  0  0  0  0  0
   -6.2470   -1.5238    4.7500 H   0  0  0  0  0  0  0  0  0  0  0  0
   -5.0770   -1.5123    2.5671 H   0  0  0  0  0  0  0  0  0  0  0  0
  1  2  1  0
  2  3  1  0
  3  4  1  0
  4  5  2  0
  5  6  1  0
  6  7  1  0
  7  8  1  0
  8  9  1  0
  8 10  1  0
 10 11  1  0
 11 12  1  0
 12 13  1  0
 11 14  1  0
 14 15  1  0
 14 16  1  0
 16 17  1  0
  6 18  1  0
 18 19  2  0
  3 20  2  0
 20 21  1  0
 21 22  1  0
 22 23  2  0
 23 24  1  0
 24 25  2  0
 25 26  1  0
 25 27  1  0
 27 28  2  0
 21 29  2  0
 29 30  1  0
 30 31  2  0
 31 32  1  0
 32 33  2  0
 33 34  1  0
 34 35  2  0
 29  2  1  0
 35 30  1  0
 19  4  1  0
 28 22  1  0
 16  7  1  0
  1 36  1  0
  1 37  1  0
  1 38  1  0
  5 39  1  0
  7 40  1  6
  8 41  1  6
  9 42  1  0
 11 43  1  1
 12 44  1  0
 12 45  1  0
 13 46  1  0
 14 47  1  6
 15 48  1  0
 16 49  1  1
 17 50  1  0
 23 51  1  0
 24 52  1  0
 27 53  1  0
 28 54  1  0
 31 55  1  0
 32 56  1  0
 34 57  1  0
 35 58  1  0
M  END
>  <UniqueID>  (27) 
26

>  <SMILES>  (27) 
Cn1c(-c2cn([C@H]3[C@@H](O)O[C@H](CO)[C@@H](O)[C@@H]3O)nn2)nc(-c2ccc(F)cc2)c1-c1ccncc1

>  <Energy>  (27) 
148.16122997146894

>  <Genealogy>  (27) 
Cn1c(-c2cn([C@H]3[C@@H](O)O[C@H](CO)[C@@H](O)[C@@H]3O)nn2)nc(-c2ccc(F)cc2)c1-c1ccncc1 (chirality)
Cn1c(-c2cn([C@H]3[C@@H](O)O[C@H](CO)[C@@H](O)[C@@H]3O)nn2)nc(-c2ccc(F)cc2)c1-c1ccncc1 (3D coordinates assigned)
Cn1c(-c2cn([C@H]3[C@@H](O)O[C@H](CO)[C@@H](O)[C@@H]3O)nn2)nc(-c2ccc(F)cc2)c1-c1ccncc1 (nonaromatic ring conformer: 148.16122997146894 kcal/mol)

$$$$
76325328
     RDKit          3D

 58 62  0  0  0  0  0  0  0  0999 V2000
    0.2829    0.1319    2.5367 C   0  0  0  0  0  0  0  0  0  0  0  0
   -0.7479   -0.5637    1.7623 N   0  0  0  0  0  0  0  0  0  0  0  0
   -0.9479   -0.5019    0.4228 C   0  0  0  0  0  0  0  0  0  0  0  0
   -0.0945    0.2250   -0.5369 C   0  0  0  0  0  0  0  0  0  0  0  0
   -0.3324    0.3740   -1.8862 C   0  0  0  0  0  0  0  0  0  0  0  0
    0.6988    1.0853   -2.3731 N   0  0  0  0  0  0  0  0  0  0  0  0
    0.8498    1.5613   -3.7538 C   0  0  1  0  0  0  0  0  0  0  0  0
    0.3030    3.0004   -3.9031 C   0  0  1  0  0  0  0  0  0  0  0  0
    0.4907    3.7545   -2.7287 O   0  0  0  0  0  0  0  0  0  0  0  0
    0.8900    3.6374   -5.0249 O   0  0  0  0  0  0  0  0  0  0  0  0
    2.2574    3.9582   -4.7970 C   0  0  2  0  0  0  0  0  0  0  0  0
    2.8747    4.4206   -6.1259 C   0  0  0  0  0  0  0  0  0  0  0  0
    2.1440    5.4908   -6.6625 O   0  0  0  0  0  0  0  0  0  0  0  0
    3.0827    2.7777   -4.1830 C   0  0  1  0  0  0  0  0  0  0  0  0
    3.3924    3.0615   -2.8422 O   0  0  0  0  0  0  0  0  0  0  0  0
    2.3201    1.4369   -4.2475 C   0  0  2  0  0  0  0  0  0  0  0  0
    2.3706    0.9101   -5.5524 O   0  0  0  0  0  0  0  0  0  0  0  0
    1.5175    1.3706   -1.3716 N   0  0  0  0  0  0  0  0  0  0  0  0
    1.0627    0.8503   -0.2409 N   0  0  0  0  0  0  0  0  0  0  0  0
   -2.0376   -1.1937    0.0271 N   0  0  0  0  0  0  0  0  0  0  0  0
   -2.5376   -1.7270    1.1596 C   0  0  0  0  0  0  0  0  0  0  0  0
   -3.7372   -2.5930    1.1754 C   0  0  0  0  0  0  0  0  0  0  0  0
   -3.8277   -3.7001    2.0386 C   0  0  0  0  0  0  0  0  0  0  0  0
   -4.9666   -4.5110    2.0299 C   0  0  0  0  0  0  0  0  0  0  0  0
   -6.0181   -4.2336    1.1526 C   0  0  0  0  0  0  0  0  0  0  0  0
   -7.1210   -5.0219    1.1449 F   0  0  0  0  0  0  0  0  0  0  0  0
   -5.9284   -3.1486    0.2769 C   0  0  0  0  0  0  0  0  0  0  0  0
   -4.7911   -2.3352    0.2824 C   0  0  0  0  0  0  0  0  0  0  0  0
   -1.7448   -1.3457    2.2336 C   0  0  0  0  0  0  0  0  0  0  0  0
   -1.9877   -1.6454    3.6608 C   0  0  0  0  0  0  0  0  0  0  0  0
   -0.9912   -2.2521    4.4378 C   0  0  0  0  0  0  0  0  0  0  0  0
   -1.2473   -2.5411    5.7804 C   0  0  0  0  0  0  0  0  0  0  0  0
   -2.4559   -2.2387    6.3248 N   0  0  0  0  0  0  0  0  0  0  0  0
   -3.4411   -1.6541    5.5925 C   0  0  0  0  0  0  0  0  0  0  0  0
   -3.2261   -1.3474    4.2468 C   0  0  0  0  0  0  0  0  0  0  0  0
    0.0640    0.1014    3.6228 H   0  0  0  0  0  0  0  0  0  0  0  0
    1.2707   -0.3399    2.3530 H   0  0  0  0  0  0  0  0  0  0  0  0
    0.3176    1.2022    2.2449 H   0  0  0  0  0  0  0  0  0  0  0  0
   -1.1767    0.0109   -2.4581 H   0  0  0  0  0  0  0  0  0  0  0  0
    0.2289    0.9038   -4.4055 H   0  0  0  0  0  0  0  0  0  0  0  0
   -0.7922    2.9201   -4.0905 H   0  0  0  0  0  0  0  0  0  0  0  0
   -0.0052    4.6046   -2.8588 H   0  0  0  0  0  0  0  0  0  0  0  0
    2.3084    4.8367   -4.1133 H   0  0  0  0  0  0  0  0  0  0  0  0
    3.9364    4.7236   -5.9741 H   0  0  0  0  0  0  0  0  0  0  0  0
    2.8617    3.5847   -6.8566 H   0  0  0  0  0  0  0  0  0  0  0  0
    2.3874    6.2950   -6.1336 H   0  0  0  0  0  0  0  0  0  0  0  0
    4.0417    2.6357   -4.7369 H   0  0  0  0  0  0  0  0  0  0  0  0
    4.1139    3.7440   -2.8517 H   0  0  0  0  0  0  0  0  0  0  0  0
    2.8578    0.7076   -3.6021 H   0  0  0  0  0  0  0  0  0  0  0  0
    1.8245    1.4926   -6.1411 H   0  0  0  0  0  0  0  0  0  0  0  0
   -3.0129   -3.9534    2.7035 H   0  0  0  0  0  0  0  0  0  0  0  0
   -5.0293   -5.3596    2.6991 H   0  0  0  0  0  0  0  0  0  0  0  0
   -6.7398   -2.9367   -0.4076 H   0  0  0  0  0  0  0  0  0  0  0  0
   -4.7395   -1.4964   -0.4011 H   0  0  0  0  0  0  0  0  0  0  0  0
   -0.0307   -2.5062    4.0067 H   0  0  0  0  0  0  0  0  0  0  0  0
   -0.4853   -3.0091    6.3892 H   0  0  0  0  0  0  0  0  0  0  0  0
   -4.3922   -1.4272    6.0550 H   0  0  0  0  0  0  0  0  0  0  0  0
   -4.0146   -0.8809    3.6691 H   0  0  0  0  0  0  0  0  0  0  0  0
  1  2  1  0
  2  3  1  0
  3  4  1  0
  4  5  2  0
  5  6  1  0
  6  7  1  0
  7  8  1  0
  8  9  1  0
  8 10  1  0
 10 11  1  0
 11 12  1  0
 12 13  1  0
 11 14  1  0
 14 15  1  0
 14 16  1  0
 16 17  1  0
  6 18  1  0
 18 19  2  0
  3 20  2  0
 20 21  1  0
 21 22  1  0
 22 23  2  0
 23 24  1  0
 24 25  2  0
 25 26  1  0
 25 27  1  0
 27 28  2  0
 21 29  2  0
 29 30  1  0
 30 31  2  0
 31 32  1  0
 32 33  2  0
 33 34  1  0
 34 35  2  0
 29  2  1  0
 35 30  1  0
 19  4  1  0
 28 22  1  0
 16  7  1  0
  1 36  1  0
  1 37  1  0
  1 38  1  0
  5 39  1  0
  7 40  1  6
  8 41  1  6
  9 42  1  0
 11 43  1  1
 12 44  1  0
 12 45  1  0
 13 46  1  0
 14 47  1  6
 15 48  1  0
 16 49  1  1
 17 50  1  0
 23 51  1  0
 24 52  1  0
 27 53  1  0
 28 54  1  0
 31 55  1  0
 32 56  1  0
 34 57  1  0
 35 58  1  0
M  END
>  <UniqueID>  (28) 
27

>  <SMILES>  (28) 
Cn1c(-c2cn([C@H]3[C@@H](O)O[C@H](CO)[C@@H](O)[C@@H]3O)nn2)nc(-c2ccc(F)cc2)c1-c1ccncc1

>  <Energy>  (28) 
151.8028975527201

>  <Genealogy>  (28) 
Cn1c(-c2cn([C@H]3[C@@H](O)O[C@H](CO)[C@@H](O)[C@@H]3O)nn2)nc(-c2ccc(F)cc2)c1-c1ccncc1 (chirality)
Cn1c(-c2cn([C@H]3[C@@H](O)O[C@H](CO)[C@@H](O)[C@@H]3O)nn2)nc(-c2ccc(F)cc2)c1-c1ccncc1 (3D coordinates assigned)
Cn1c(-c2cn([C@H]3[C@@H](O)O[C@H](CO)[C@@H](O)[C@@H]3O)nn2)nc(-c2ccc(F)cc2)c1-c1ccncc1 (nonaromatic ring conformer: 151.8028975527201 kcal/mol)

$$$$
57376616
     RDKit          3D

 30 30  0  0  0  0  0  0  0  0999 V2000
    0.5853    2.1575   -3.2938 C   0  0  0  0  0  0  0  0  0  0  0  0
   -0.4943    1.2130   -2.8773 C   0  0  0  0  0  0  0  0  0  0  0  0
   -0.9837    0.4148   -3.7218 O   0  0  0  0  0  0  0  0  0  0  0  0
   -0.9820    1.2365   -1.5285 N   0  0  0  0  0  0  0  0  0  0  0  0
   -2.0061    0.3032   -1.0384 C   0  0  2  0  0  0  0  0  0  0  0  0
   -2.8375    0.9558    0.0909 C   0  0  2  0  0  0  0  0  0  0  0  0
   -3.3512    2.1863   -0.3461 O   0  0  0  0  0  0  0  0  0  0  0  0
   -2.0316    1.1869    1.2340 O   0  0  0  0  0  0  0  0  0  0  0  0
   -1.6024   -0.0418    1.7982 C   0  0  2  0  0  0  0  0  0  0  0  0
   -0.9376    0.2474    3.1520 C   0  0  0  0  0  0  0  0  0  0  0  0
   -0.6121   -0.9469    3.8127 O   0  0  0  0  0  0  0  0  0  0  0  0
   -0.6487   -0.7787    0.8255 C   0  0  2  0  0  0  0  0  0  0  0  0
    0.5228   -0.0280    0.6166 O   0  0  0  0  0  0  0  0  0  0  0  0
   -1.3678   -1.0034   -0.5197 C   0  0  2  0  0  0  0  0  0  0  0  0
   -0.4792   -1.5248   -1.4743 O   0  0  0  0  0  0  0  0  0  0  0  0
    0.9417    1.9173   -4.3181 H   0  0  0  0  0  0  0  0  0  0  0  0
    1.4403    2.0802   -2.5900 H   0  0  0  0  0  0  0  0  0  0  0  0
    0.1936    3.1958   -3.2807 H   0  0  0  0  0  0  0  0  0  0  0  0
   -0.5657    1.9316   -0.8675 H   0  0  0  0  0  0  0  0  0  0  0  0
   -2.7034    0.0517   -1.8686 H   0  0  0  0  0  0  0  0  0  0  0  0
   -3.6968    0.2912    0.3559 H   0  0  0  0  0  0  0  0  0  0  0  0
   -4.0737    1.9829   -0.9963 H   0  0  0  0  0  0  0  0  0  0  0  0
   -2.4804   -0.6969    2.0122 H   0  0  0  0  0  0  0  0  0  0  0  0
   -0.0412    0.8978    3.0255 H   0  0  0  0  0  0  0  0  0  0  0  0
   -1.6563    0.8074    3.7875 H   0  0  0  0  0  0  0  0  0  0  0  0
    0.3205   -1.1728    3.5591 H   0  0  0  0  0  0  0  0  0  0  0  0
   -0.3988   -1.7827    1.2448 H   0  0  0  0  0  0  0  0  0  0  0  0
    1.2034   -0.3596    1.2584 H   0  0  0  0  0  0  0  0  0  0  0  0
   -2.1942   -1.7359   -0.3563 H   0  0  0  0  0  0  0  0  0  0  0  0
   -0.2979   -2.4656   -1.2139 H   0  0  0  0  0  0  0  0  0  0  0  0
  1  2  1  0
  2  3  2  0
  2  4  1  0
  4  5  1  0
  5  6  1  0
  6  7  1  0
  6  8  1  0
  8  9  1  0
  9 10  1  0
 10 11  1  0
  9 12  1  0
 12 13  1  0
 12 14  1  0
 14 15  1  0
 14  5  1  0
  1 16  1  0
  1 17  1  0
  1 18  1  0
  4 19  1  0
  5 20  1  6
  6 21  1  1
  7 22  1  0
  9 23  1  1
 10 24  1  0
 10 25  1  0
 11 26  1  0
 12 27  1  1
 13 28  1  0
 14 29  1  1
 15 30  1  0
M  END
>  <UniqueID>  (32) 
31

>  <SMILES>  (32) 
CC(=O)N[C@@H]1[C@H](O)O[C@H](CO)[C@H](O)[C@@H]1O

>  <Energy>  (32) 
25.630087028035952

>  <Genealogy>  (32) 
CC(=O)N[C@@H]1[C@H](O)O[C@H](CO)[C@H](O)[C@@H]1O (chirality)
CC(=O)N[C@@H]1[C@H](O)O[C@H](CO)[C@H](O)[C@@H]1O (3D coordinates assigned)
CC(=O)N[C@@H]1[C@H](O)O[C@H](CO)[C@H](O)[C@@H]1O (nonaromatic ring conformer: 25.630087028035952 kcal/mol)

$$$$
57376616
     RDKit          3D

 30 30  0  0  0  0  0  0  0  0999 V2000
   -3.3697    1.8333    0.5543 H   0  0  0  0  0  0  0  0  0  0  0  0
   -2.7882    1.0078    0.4734 O   0  0  0  0  0  0  0  0  0  0  0  0
   -2.3152    0.5766   -0.7657 C   0  0  0  0  0  0  0  0  0  0  0  0
   -1.5887   -0.4965   -0.8623 N   0  0  0  0  0  0  0  0  0  0  0  0
   -1.1634   -1.3258    0.2701 C   0  0  2  0  0  0  0  0  0  0  0  0
   -1.9658   -1.3455    1.0420 H   0  0  0  0  0  0  0  0  0  0  0  0
    0.1333   -0.7745    0.9028 C   0  0  2  0  0  0  0  0  0  0  0  0
    0.3587   -1.3610    1.8270 H   0  0  0  0  0  0  0  0  0  0  0  0
   -0.0553    0.5624    1.2787 O   0  0  0  0  0  0  0  0  0  0  0  0
    0.7667    0.8369    1.7629 H   0  0  0  0  0  0  0  0  0  0  0  0
    1.2093   -0.8504   -0.0189 O   0  0  0  0  0  0  0  0  0  0  0  0
    1.5439   -2.2043   -0.2774 C   0  0  2  0  0  0  0  0  0  0  0  0
    1.7554   -2.7382    0.6797 H   0  0  0  0  0  0  0  0  0  0  0  0
    2.8453   -2.2430   -1.0923 C   0  0  0  0  0  0  0  0  0  0  0  0
    3.6311   -1.6923   -0.5325 H   0  0  0  0  0  0  0  0  0  0  0  0
    2.7196   -1.7248   -2.0710 H   0  0  0  0  0  0  0  0  0  0  0  0
    3.2827   -3.5641   -1.2711 O   0  0  0  0  0  0  0  0  0  0  0  0
    2.8773   -3.8899   -2.1165 H   0  0  0  0  0  0  0  0  0  0  0  0
    0.3770   -2.9245   -1.0069 C   0  0  2  0  0  0  0  0  0  0  0  0
    0.6154   -4.0095   -1.0560 H   0  0  0  0  0  0  0  0  0  0  0  0
    0.2109   -2.4731   -2.3316 O   0  0  0  0  0  0  0  0  0  0  0  0
    0.2296   -1.4821   -2.3300 H   0  0  0  0  0  0  0  0  0  0  0  0
   -0.9293   -2.7796   -0.1970 C   0  0  2  0  0  0  0  0  0  0  0  0
   -0.8256   -3.4192    0.7122 H   0  0  0  0  0  0  0  0  0  0  0  0
   -2.0168   -3.2416   -0.9571 O   0  0  0  0  0  0  0  0  0  0  0  0
   -2.7743   -3.3656   -0.3272 H   0  0  0  0  0  0  0  0  0  0  0  0
   -2.6800    1.3301   -2.0038 C   0  0  0  0  0  0  0  0  0  0  0  0
   -2.6478    2.4214   -1.8034 H   0  0  0  0  0  0  0  0  0  0  0  0
   -3.7058    1.0470   -2.3185 H   0  0  0  0  0  0  0  0  0  0  0  0
   -1.9696    1.0998   -2.8265 H   0  0  0  0  0  0  0  0  0  0  0  0
  1  2  1  0
  2  3  1  0
  3  4  2  0
  4  5  1  0
  5  6  1  1
  5  7  1  0
  7  8  1  1
  7  9  1  0
  9 10  1  0
  7 11  1  0
 11 12  1  0
 12 13  1  1
 12 14  1  0
 14 15  1  0
 14 16  1  0
 14 17  1  0
 17 18  1  0
 12 19  1  0
 19 20  1  6
 19 21  1  0
 21 22  1  0
 19 23  1  0
 23 24  1  1
 23 25  1  0
 25 26  1  0
  3 27  1  0
 27 28  1  0
 27 29  1  0
 27 30  1  0
 23  5  1  0
M  END
>  <UniqueID>  (33) 
32

>  <SMILES>  (33) 
C/C(O)=N/[C@@H]1[C@H](O)O[C@H](CO)[C@H](O)[C@@H]1O

>  <Energy>  (33) 
27.450267894222474

>  <Genealogy>  (33) 
CC(O)=N[C@@H]1C(O)O[C@H](CO)[C@H](O)[C@@H]1O (tautomer)
CC(O)=N[C@@H]1[C@H](O)O[C@H](CO)[C@H](O)[C@@H]1O (chirality)
C/C(O)=N/[C@@H]1[C@H](O)O[C@H](CO)[C@H](O)[C@@H]1O (cis-trans isomerization)
C/C(O)=N/[C@@H]1[C@H](O)O[C@H](CO)[C@H](O)[C@@H]1O (3D coordinates assigned)
C/C(O)=N/[C@@H]1[C@H](O)O[C@H](CO)[C@H](O)[C@@H]1O (nonaromatic ring conformer: 27.450267894222474 kcal/mol)

$$$$
57376616
     RDKit          3D

 30 30  0  0  0  0  0  0  0  0999 V2000
    3.3816    1.0500    1.5964 H   0  0  0  0  0  0  0  0  0  0  0  0
    3.7144    0.6763    0.7152 O   0  0  0  0  0  0  0  0  0  0  0  0
    2.8266    0.3182   -0.2952 C   0  0  0  0  0  0  0  0  0  0  0  0
    1.5481    0.4838   -0.1019 N   0  0  0  0  0  0  0  0  0  0  0  0
    0.4633    0.1512   -1.0344 C   0  0  2  0  0  0  0  0  0  0  0  0
    0.8362    0.1533   -2.0819 H   0  0  0  0  0  0  0  0  0  0  0  0
   -0.6411    1.2213   -0.9432 C   0  0  2  0  0  0  0  0  0  0  0  0
   -1.3946    1.0351   -1.7475 H   0  0  0  0  0  0  0  0  0  0  0  0
   -0.0751    2.4849   -1.1643 O   0  0  0  0  0  0  0  0  0  0  0  0
   -0.8300    3.1289   -1.1954 H   0  0  0  0  0  0  0  0  0  0  0  0
   -1.2523    1.2038    0.3370 O   0  0  0  0  0  0  0  0  0  0  0  0
   -1.9775   -0.0007    0.5210 C   0  0  2  0  0  0  0  0  0  0  0  0
   -2.7077   -0.1419   -0.3113 H   0  0  0  0  0  0  0  0  0  0  0  0
   -2.8050    0.1147    1.8098 C   0  0  0  0  0  0  0  0  0  0  0  0
   -2.1454    0.2603    2.6964 H   0  0  0  0  0  0  0  0  0  0  0  0
   -3.4528    1.0141    1.7364 H   0  0  0  0  0  0  0  0  0  0  0  0
   -3.6328   -1.0064    1.9731 O   0  0  0  0  0  0  0  0  0  0  0  0
   -3.1167   -1.6715    2.4989 H   0  0  0  0  0  0  0  0  0  0  0  0
   -1.0129   -1.2167    0.5541 C   0  0  2  0  0  0  0  0  0  0  0  0
   -1.6257   -2.1445    0.5479 H   0  0  0  0  0  0  0  0  0  0  0  0
   -0.2234   -1.2447    1.7209 O   0  0  0  0  0  0  0  0  0  0  0  0
    0.1623   -0.3424    1.8595 H   0  0  0  0  0  0  0  0  0  0  0  0
   -0.1340   -1.2386   -0.7182 C   0  0  2  0  0  0  0  0  0  0  0  0
   -0.7865   -1.5160   -1.5806 H   0  0  0  0  0  0  0  0  0  0  0  0
    0.8873   -2.1944   -0.5947 O   0  0  0  0  0  0  0  0  0  0  0  0
    0.4554   -3.0861   -0.6596 H   0  0  0  0  0  0  0  0  0  0  0  0
    3.3878   -0.2181   -1.5797 C   0  0  0  0  0  0  0  0  0  0  0  0
    3.2043    0.5054   -2.4013 H   0  0  0  0  0  0  0  0  0  0  0  0
    2.9292   -1.1954   -1.8317 H   0  0  0  0  0  0  0  0  0  0  0  0
    4.4838   -0.3652   -1.4814 H   0  0  0  0  0  0  0  0  0  0  0  0
  1  2  1  0
  2  3  1  0
  3  4  2  0
  4  5  1  0
  5  6  1  6
  5  7  1  0
  7  8  1  6
  7  9  1  0
  9 10  1  0
  7 11  1  0
 11 12  1  0
 12 13  1  6
 12 14  1  0
 14 15  1  0
 14 16  1  0
 14 17  1  0
 17 18  1  0
 12 19  1  0
 19 20  1  6
 19 21  1  0
 21 22  1  0
 19 23  1  0
 23 24  1  6
 23 25  1  0
 25 26  1  0
  3 27  1  0
 27 28  1  0
 27 29  1  0
 27 30  1  0
 23  5  1  0
M  END
>  <UniqueID>  (34) 
33

>  <SMILES>  (34) 
C/C(O)=N\[C@@H]1[C@H](O)O[C@H](CO)[C@H](O)[C@@H]1O

>  <Energy>  (34) 
29.637675764448637

>  <Genealogy>  (34) 
CC(O)=N[C@@H]1C(O)O[C@H](CO)[C@H](O)[C@@H]1O (tautomer)
CC(O)=N[C@@H]1[C@H](O)O[C@H](CO)[C@H](O)[C@@H]1O (chirality)
C/C(O)=N\[C@@H]1[C@H](O)O[C@H](CO)[C@H](O)[C@@H]1O (cis-trans isomerization)
C/C(O)=N\[C@@H]1[C@H](O)O[C@H](CO)[C@H](O)[C@@H]1O (3D coordinates assigned)
C/C(O)=N\[C@@H]1[C@H](O)O[C@H](CO)[C@H](O)[C@@H]1O (nonaromatic ring conformer: 29.637675764448637 kcal/mol)

$$$$
57339292
     RDKit          3D

 35 35  0  0  0  0  0  0  0  0999 V2000
    0.6947   -0.2650   -3.4219 N   0  0  0  0  0  0  0  0  0  0  0  0
   -0.0941    0.1287   -2.2520 C   0  0  1  0  0  0  0  0  0  0  0  0
    0.4443   -0.5720   -0.9846 C   0  0  1  0  0  0  0  0  0  0  0  0
    1.8379   -0.3379   -0.8405 O   0  0  0  0  0  0  0  0  0  0  0  0
    2.4130   -1.1875    0.1423 C   0  0  1  0  0  0  0  0  0  0  0  0
    3.5013   -2.0545   -0.5055 C   0  0  0  0  0  0  0  0  0  0  0  0
    2.9189   -2.9813   -1.5269 C   0  0  0  0  0  0  0  0  0  0  0  0
    2.3157   -4.0254   -1.1641 O   0  0  0  0  0  0  0  0  0  0  0  0
    3.0132   -2.6757   -2.8785 O   0  0  0  0  0  1  0  0  0  0  0  0
    3.0306   -0.3346    1.2110 C   0  0  0  0  0  0  0  0  0  0  0  0
    2.8686   -0.6234    2.4260 O   0  0  0  0  0  0  0  0  0  0  0  0
    3.8102    0.7628    0.8652 O   0  0  0  0  0  1  0  0  0  0  0  0
   -0.2778   -0.1640    0.1708 O   0  0  0  0  0  0  0  0  0  0  0  0
   -0.1344    1.2269    0.4209 C   0  0  2  0  0  0  0  0  0  0  0  0
   -0.8384    1.5547    1.7419 C   0  0  0  0  0  0  0  0  0  0  0  0
   -0.2630    0.8092    2.7791 O   0  0  0  0  0  0  0  0  0  0  0  0
   -0.7356    2.0525   -0.7417 C   0  0  1  0  0  0  0  0  0  0  0  0
   -0.6061    3.4345   -0.5122 O   0  0  0  0  0  0  0  0  0  0  0  0
   -0.0545    1.6600   -2.0676 C   0  0  2  0  0  0  0  0  0  0  0  0
   -0.6621    2.3195   -3.1514 O   0  0  0  0  0  0  0  0  0  0  0  0
    0.6084   -1.3005   -3.5423 H   0  0  0  0  0  0  0  0  0  0  0  0
    0.2576    0.1556   -4.2738 H   0  0  0  0  0  0  0  0  0  0  0  0
   -1.1517   -0.1916   -2.4003 H   0  0  0  0  0  0  0  0  0  0  0  0
    0.2580   -1.6610   -1.1346 H   0  0  0  0  0  0  0  0  0  0  0  0
    1.6781   -1.8708    0.6367 H   0  0  0  0  0  0  0  0  0  0  0  0
    4.2631   -1.4067   -0.9925 H   0  0  0  0  0  0  0  0  0  0  0  0
    4.0152   -2.6598    0.2737 H   0  0  0  0  0  0  0  0  0  0  0  0
    0.9387    1.4951    0.5492 H   0  0  0  0  0  0  0  0  0  0  0  0
   -0.7323    2.6394    1.9678 H   0  0  0  0  0  0  0  0  0  0  0  0
   -1.9212    1.3083    1.6606 H   0  0  0  0  0  0  0  0  0  0  0  0
   -0.7596    1.0539    3.6027 H   0  0  0  0  0  0  0  0  0  0  0  0
   -1.8206    1.8160   -0.8148 H   0  0  0  0  0  0  0  0  0  0  0  0
    0.3618    3.6352   -0.4169 H   0  0  0  0  0  0  0  0  0  0  0  0
    1.0109    1.9804   -2.0301 H   0  0  0  0  0  0  0  0  0  0  0  0
   -1.6089    2.0228   -3.1940 H   0  0  0  0  0  0  0  0  0  0  0  0
  1  2  1  0
  2  3  1  0
  3  4  1  0
  4  5  1  0
  5  6  1  0
  6  7  1  0
  7  8  2  0
  7  9  1  0
  5 10  1  0
 10 11  2  0
 10 12  1  0
  3 13  1  0
 13 14  1  0
 14 15  1  0
 15 16  1  0
 14 17  1  0
 17 18  1  0
 17 19  1  0
 19 20  1  0
 19  2  1  0
  1 21  1  0
  1 22  1  0
  2 23  1  6
  3 24  1  6
  5 25  1  1
  6 26  1  0
  6 27  1  0
 14 28  1  1
 15 29  1  0
 15 30  1  0
 16 31  1  0
 17 32  1  6
 18 33  1  0
 19 34  1  1
 20 35  1  0
M  CHG  2   9  -1  12  -1
M  END
>  <UniqueID>  (35) 
34

>  <SMILES>  (35) 
N[C@H]1[C@@H](O[C@@H](CC(=O)[O-])C(=O)[O-])O[C@H](CO)[C@@H](O)[C@@H]1O

>  <Energy>  (35) 
31.942441503604037

>  <Genealogy>  (35) 
N[C@H]1[C@@H](O[C@@H](CC(=O)[O-])C(=O)[O-])O[C@H](CO)[C@@H](O)[C@@H]1O (protonated)
N[C@H]1[C@@H](O[C@@H](CC(=O)[O-])C(=O)[O-])O[C@H](CO)[C@@H](O)[C@@H]1O (3D coordinates assigned)
N[C@H]1[C@@H](O[C@@H](CC(=O)[O-])C(=O)[O-])O[C@H](CO)[C@@H](O)[C@@H]1O (nonaromatic ring conformer: 31.942441503604037 kcal/mol)

$$$$
57339292
     RDKit          3D

 36 36  0  0  0  0  0  0  0  0999 V2000
    0.4659   -0.6280    2.3608 N   0  0  0  0  0  4  0  0  0  0  0  0
    0.6591    0.3650    1.2948 C   0  0  1  0  0  0  0  0  0  0  0  0
    0.9255   -0.3271   -0.0623 C   0  0  1  0  0  0  0  0  0  0  0  0
   -0.1197   -1.2365   -0.3755 O   0  0  0  0  0  0  0  0  0  0  0  0
    0.2335   -2.0892   -1.4558 C   0  0  1  0  0  0  0  0  0  0  0  0
    0.2082   -3.5497   -0.9846 C   0  0  0  0  0  0  0  0  0  0  0  0
    1.2532   -3.7983    0.0584 C   0  0  0  0  0  0  0  0  0  0  0  0
    0.9323   -3.8691    1.2738 O   0  0  0  0  0  0  0  0  0  0  0  0
    2.5872   -3.9195   -0.3092 O   0  0  0  0  0  1  0  0  0  0  0  0
   -0.7614   -1.9060   -2.5640 C   0  0  0  0  0  0  0  0  0  0  0  0
   -1.9941   -1.8467   -2.3108 O   0  0  0  0  0  0  0  0  0  0  0  0
   -0.3286   -1.8370   -3.8823 O   0  0  0  0  0  1  0  0  0  0  0  0
    1.1050    0.6346   -1.0930 O   0  0  0  0  0  0  0  0  0  0  0  0
   -0.0594    1.4247   -1.2840 C   0  0  2  0  0  0  0  0  0  0  0  0
    0.1759    2.3453   -2.4906 C   0  0  0  0  0  0  0  0  0  0  0  0
    0.4723    1.5880   -3.6329 O   0  0  0  0  0  0  0  0  0  0  0  0
   -0.3738    2.2515   -0.0183 C   0  0  1  0  0  0  0  0  0  0  0  0
   -1.5516    2.9916   -0.2185 O   0  0  0  0  0  0  0  0  0  0  0  0
   -0.5552    1.3105    1.1837 C   0  0  2  0  0  0  0  0  0  0  0  0
   -0.6741    2.0799    2.3539 O   0  0  0  0  0  0  0  0  0  0  0  0
    0.4094   -0.1490    3.2883 H   0  0  0  0  0  0  0  0  0  0  0  0
    1.2812   -1.2824    2.3888 H   0  0  0  0  0  0  0  0  0  0  0  0
   -0.4106   -1.1770    2.2046 H   0  0  0  0  0  0  0  0  0  0  0  0
    1.5565    0.9780    1.5431 H   0  0  0  0  0  0  0  0  0  0  0  0
    1.8861   -0.8801    0.0583 H   0  0  0  0  0  0  0  0  0  0  0  0
    1.2452   -1.8825   -1.8842 H   0  0  0  0  0  0  0  0  0  0  0  0
    0.4037   -4.2258   -1.8456 H   0  0  0  0  0  0  0  0  0  0  0  0
   -0.7955   -3.7998   -0.5743 H   0  0  0  0  0  0  0  0  0  0  0  0
   -0.9372    0.7844   -1.5288 H   0  0  0  0  0  0  0  0  0  0  0  0
   -0.7183    2.9819   -2.6801 H   0  0  0  0  0  0  0  0  0  0  0  0
    1.0346    3.0192   -2.2831 H   0  0  0  0  0  0  0  0  0  0  0  0
   -0.3844    1.1923   -3.9417 H   0  0  0  0  0  0  0  0  0  0  0  0
    0.4838    2.9393    0.1787 H   0  0  0  0  0  0  0  0  0  0  0  0
   -1.5333    3.7438    0.4291 H   0  0  0  0  0  0  0  0  0  0  0  0
   -1.4817    0.7076    1.0188 H   0  0  0  0  0  0  0  0  0  0  0  0
   -1.2731    1.5836    2.9705 H   0  0  0  0  0  0  0  0  0  0  0  0
  1  2  1  0
  2  3  1  0
  3  4  1  0
  4  5  1  0
  5  6  1  0
  6  7  1  0
  7  8  2  0
  7  9  1  0
  5 10  1  0
 10 11  2  0
 10 12  1  0
  3 13  1  0
 13 14  1  0
 14 15  1  0
 15 16  1  0
 14 17  1  0
 17 18  1  0
 17 19  1  0
 19 20  1  0
 19  2  1  0
  1 21  1  0
  1 22  1  0
  1 23  1  0
  2 24  1  1
  3 25  1  1
  5 26  1  6
  6 27  1  0
  6 28  1  0
 14 29  1  6
 15 30  1  0
 15 31  1  0
 16 32  1  0
 17 33  1  1
 18 34  1  0
 19 35  1  6
 20 36  1  0
M  CHG  3   1   1   9  -1  12  -1
M  END
>  <UniqueID>  (36) 
35

>  <SMILES>  (36) 
[NH3+][C@H]1[C@@H](O[C@@H](CC(=O)[O-])C(=O)[O-])O[C@H](CO)[C@@H](O)[C@@H]1O

>  <Energy>  (36) 
32.317035947317414

>  <Genealogy>  (36) 
[NH3+][C@H]1[C@@H](O[C@@H](CC(=O)[O-])C(=O)[O-])O[C@H](CO)[C@@H](O)[C@@H]1O (3D coordinates assigned)
[NH3+][C@H]1[C@@H](O[C@@H](CC(=O)[O-])C(=O)[O-])O[C@H](CO)[C@@H](O)[C@@H]1O (nonaromatic ring conformer: 32.317035947317414 kcal/mol)

$$$$
57339292
     RDKit          3D

 35 35  0  0  0  0  0  0  0  0999 V2000
    0.5503   -0.3190   -3.3337 N   0  0  0  0  0  0  0  0  0  0  0  0
   -0.1382    0.0860   -2.1057 C   0  0  1  0  0  0  0  0  0  0  0  0
    0.5093   -0.5968   -0.8809 C   0  0  1  0  0  0  0  0  0  0  0  0
    1.9100   -0.3622   -0.8628 O   0  0  0  0  0  0  0  0  0  0  0  0
    2.5680   -1.1951    0.0820 C   0  0  1  0  0  0  0  0  0  0  0  0
    3.6051   -2.0676   -0.6387 C   0  0  0  0  0  0  0  0  0  0  0  0
    2.9462   -3.0117   -1.5958 C   0  0  0  0  0  0  0  0  0  0  0  0
    2.3855   -4.0559   -1.1706 O   0  0  0  0  0  0  0  0  0  0  0  0
    2.9212   -2.7215   -2.9539 O   0  0  0  0  0  1  0  0  0  0  0  0
    3.2591   -0.3279    1.0929 C   0  0  0  0  0  0  0  0  0  0  0  0
    3.9688    0.6439    0.7199 O   0  0  0  0  0  0  0  0  0  0  0  0
    3.1368   -0.6068    2.4484 O   0  0  0  0  0  1  0  0  0  0  0  0
   -0.1083   -0.1711    0.3272 O   0  0  0  0  0  0  0  0  0  0  0  0
    0.0457    1.2252    0.5371 C   0  0  2  0  0  0  0  0  0  0  0  0
   -0.5046    1.5713    1.9299 C   0  0  0  0  0  0  0  0  0  0  0  0
   -1.8818    1.3152    2.0113 O   0  0  0  0  0  0  0  0  0  0  0  0
   -0.6637    2.0302   -0.5767 C   0  0  1  0  0  0  0  0  0  0  0  0
   -0.4546    3.4079   -0.3921 O   0  0  0  0  0  0  0  0  0  0  0  0
   -0.0899    1.6196   -1.9430 C   0  0  2  0  0  0  0  0  0  0  0  0
   -0.7824    2.2637   -2.9846 O   0  0  0  0  0  0  0  0  0  0  0  0
    0.4614   -1.3565   -3.4327 H   0  0  0  0  0  0  0  0  0  0  0  0
    0.0388    0.0871   -4.1505 H   0  0  0  0  0  0  0  0  0  0  0  0
   -1.2031   -0.2398   -2.1598 H   0  0  0  0  0  0  0  0  0  0  0  0
    0.3110   -1.6877   -0.9982 H   0  0  0  0  0  0  0  0  0  0  0  0
    1.8805   -1.8743    0.6441 H   0  0  0  0  0  0  0  0  0  0  0  0
    4.3217   -1.4246   -1.1955 H   0  0  0  0  0  0  0  0  0  0  0  0
    4.1833   -2.6589    0.1054 H   0  0  0  0  0  0  0  0  0  0  0  0
    1.1243    1.5014    0.5511 H   0  0  0  0  0  0  0  0  0  0  0  0
   -0.3263    2.6447    2.1514 H   0  0  0  0  0  0  0  0  0  0  0  0
    0.0436    0.9862    2.7038 H   0  0  0  0  0  0  0  0  0  0  0  0
   -1.9838    0.3361    2.1390 H   0  0  0  0  0  0  0  0  0  0  0  0
   -1.7550    1.7918   -0.5658 H   0  0  0  0  0  0  0  0  0  0  0  0
   -1.2253    3.7534    0.1295 H   0  0  0  0  0  0  0  0  0  0  0  0
    0.9734    1.9463   -1.9916 H   0  0  0  0  0  0  0  0  0  0  0  0
   -1.7279    1.9617   -2.9519 H   0  0  0  0  0  0  0  0  0  0  0  0
  1  2  1  0
  2  3  1  0
  3  4  1  0
  4  5  1  0
  5  6  1  0
  6  7  1  0
  7  8  2  0
  7  9  1  0
  5 10  1  0
 10 11  2  0
 10 12  1  0
  3 13  1  0
 13 14  1  0
 14 15  1  0
 15 16  1  0
 14 17  1  0
 17 18  1  0
 17 19  1  0
 19 20  1  0
 19  2  1  0
  1 21  1  0
  1 22  1  0
  2 23  1  6
  3 24  1  6
  5 25  1  1
  6 26  1  0
  6 27  1  0
 14 28  1  1
 15 29  1  0
 15 30  1  0
 16 31  1  0
 17 32  1  6
 18 33  1  0
 19 34  1  1
 20 35  1  0
M  CHG  2   9  -1  12  -1
M  END
>  <UniqueID>  (37) 
36

>  <SMILES>  (37) 
N[C@H]1[C@@H](O[C@@H](CC(=O)[O-])C(=O)[O-])O[C@H](CO)[C@@H](O)[C@@H]1O

>  <Energy>  (37) 
32.54574141903869

>  <Genealogy>  (37) 
N[C@H]1[C@@H](O[C@@H](CC(=O)[O-])C(=O)[O-])O[C@H](CO)[C@@H](O)[C@@H]1O (protonated)
N[C@H]1[C@@H](O[C@@H](CC(=O)[O-])C(=O)[O-])O[C@H](CO)[C@@H](O)[C@@H]1O (3D coordinates assigned)
N[C@H]1[C@@H](O[C@@H](CC(=O)[O-])C(=O)[O-])O[C@H](CO)[C@@H](O)[C@@H]1O (nonaromatic ring conformer: 32.54574141903869 kcal/mol)

$$$$
57339290
     RDKit          3D

 40 40  0  0  0  0  0  0  0  0999 V2000
    0.8575    2.1435    3.6846 C   0  0  0  0  0  0  0  0  0  0  0  0
   -0.0596    1.8744    2.5368 C   0  0  0  0  0  0  0  0  0  0  0  0
   -0.6145    2.8393    1.9442 O   0  0  0  0  0  0  0  0  0  0  0  0
   -0.2891    0.5263    2.1055 N   0  0  0  0  0  0  0  0  0  0  0  0
   -1.1031    0.2044    0.9266 C   0  0  1  0  0  0  0  0  0  0  0  0
   -0.3362    0.5558   -0.3639 C   0  0  1  0  0  0  0  0  0  0  0  0
    0.9255   -0.0978   -0.3743 O   0  0  0  0  0  0  0  0  0  0  0  0
    1.8232    0.5123   -1.2847 C   0  0  1  0  0  0  0  0  0  0  0  0
    2.6956    1.5378   -0.5341 C   0  0  0  0  0  0  0  0  0  0  0  0
    3.6469    2.2418   -1.4548 C   0  0  0  0  0  0  0  0  0  0  0  0
    4.8834    2.0071   -1.3876 O   0  0  0  0  0  0  0  0  0  0  0  0
    3.1655    3.1351   -2.4026 O   0  0  0  0  0  1  0  0  0  0  0  0
    2.6796   -0.5717   -1.8748 C   0  0  0  0  0  0  0  0  0  0  0  0
    2.7117   -0.7493   -3.1209 O   0  0  0  0  0  0  0  0  0  0  0  0
    3.4325   -1.3919   -1.0473 O   0  0  0  0  0  1  0  0  0  0  0  0
   -1.1033    0.2271   -1.5135 O   0  0  0  0  0  0  0  0  0  0  0  0
   -1.3625   -1.1657   -1.5974 C   0  0  2  0  0  0  0  0  0  0  0  0
   -2.0916   -1.4257   -2.9221 C   0  0  0  0  0  0  0  0  0  0  0  0
   -2.1550   -2.8005   -3.1857 O   0  0  0  0  0  0  0  0  0  0  0  0
   -2.2099   -1.6378   -0.3910 C   0  0  1  0  0  0  0  0  0  0  0  0
   -2.4042   -3.0276   -0.4628 O   0  0  0  0  0  0  0  0  0  0  0  0
   -1.4859   -1.2858    0.9212 C   0  0  2  0  0  0  0  0  0  0  0  0
   -2.3210   -1.5500    2.0185 O   0  0  0  0  0  0  0  0  0  0  0  0
    0.5884    1.4904    4.5385 H   0  0  0  0  0  0  0  0  0  0  0  0
    0.7742    3.2020    4.0086 H   0  0  0  0  0  0  0  0  0  0  0  0
    1.9036    1.9397    3.3775 H   0  0  0  0  0  0  0  0  0  0  0  0
    0.1460   -0.2467    2.6595 H   0  0  0  0  0  0  0  0  0  0  0  0
   -2.0419    0.8034    0.9596 H   0  0  0  0  0  0  0  0  0  0  0  0
   -0.2047    1.6616   -0.3608 H   0  0  0  0  0  0  0  0  0  0  0  0
    1.2940    1.0285   -2.1248 H   0  0  0  0  0  0  0  0  0  0  0  0
    3.2582    1.0344    0.2830 H   0  0  0  0  0  0  0  0  0  0  0  0
    2.0474    2.3041   -0.0584 H   0  0  0  0  0  0  0  0  0  0  0  0
   -0.4061   -1.7352   -1.6334 H   0  0  0  0  0  0  0  0  0  0  0  0
   -1.5345   -0.9286   -3.7465 H   0  0  0  0  0  0  0  0  0  0  0  0
   -3.1148   -0.9889   -2.8815 H   0  0  0  0  0  0  0  0  0  0  0  0
   -2.7880   -2.9095   -3.9440 H   0  0  0  0  0  0  0  0  0  0  0  0
   -3.1927   -1.1089   -0.4182 H   0  0  0  0  0  0  0  0  0  0  0  0
   -3.2267   -3.2329    0.0486 H   0  0  0  0  0  0  0  0  0  0  0  0
   -0.5535   -1.8960    0.9952 H   0  0  0  0  0  0  0  0  0  0  0  0
   -2.2344   -2.5184    2.2182 H   0  0  0  0  0  0  0  0  0  0  0  0
  1  2  1  0
  2  3  2  0
  2  4  1  0
  4  5  1  0
  5  6  1  0
  6  7  1  0
  7  8  1  0
  8  9  1  0
  9 10  1  0
 10 11  2  0
 10 12  1  0
  8 13  1  0
 13 14  2  0
 13 15  1  0
  6 16  1  0
 16 17  1  0
 17 18  1  0
 18 19  1  0
 17 20  1  0
 20 21  1  0
 20 22  1  0
 22 23  1  0
 22  5  1  0
  1 24  1  0
  1 25  1  0
  1 26  1  0
  4 27  1  0
  5 28  1  1
  6 29  1  1
  8 30  1  6
  9 31  1  0
  9 32  1  0
 17 33  1  6
 18 34  1  0
 18 35  1  0
 19 36  1  0
 20 37  1  1
 21 38  1  0
 22 39  1  1
 23 40  1  0
M  CHG  2  12  -1  15  -1
M  END
>  <UniqueID>  (38) 
37

>  <SMILES>  (38) 
CC(=O)N[C@H]1[C@@H](O[C@@H](CC(=O)[O-])C(=O)[O-])O[C@H](CO)[C@@H](O)[C@@H]1O

>  <Energy>  (38) 
33.981450450683

>  <Genealogy>  (38) 
CC(=O)N[C@H]1[C@@H](O[C@@H](CC(=O)[O-])C(=O)[O-])O[C@H](CO)[C@@H](O)[C@@H]1O (3D coordinates assigned)
CC(=O)N[C@H]1[C@@H](O[C@@H](CC(=O)[O-])C(=O)[O-])O[C@H](CO)[C@@H](O)[C@@H]1O (nonaromatic ring conformer: 33.981450450683 kcal/mol)

$$$$
57339290
     RDKit          3D

 40 40  0  0  0  0  0  0  0  0999 V2000
    4.9874   -1.6646   -3.5866 H   0  0  0  0  0  0  0  0  0  0  0  0
    3.9931   -1.5143   -3.4651 O   0  0  0  0  0  0  0  0  0  0  0  0
    3.3886   -1.5944   -2.2130 C   0  0  0  0  0  0  0  0  0  0  0  0
    2.1041   -1.3941   -2.1347 N   0  0  0  0  0  0  0  0  0  0  0  0
    1.2799   -1.4168   -0.9212 C   0  0  1  0  0  0  0  0  0  0  0  0
    1.6783   -2.1605   -0.1957 H   0  0  0  0  0  0  0  0  0  0  0  0
    1.2643   -0.0233   -0.2562 C   0  0  1  0  0  0  0  0  0  0  0  0
    2.2989    0.1649    0.1051 H   0  0  0  0  0  0  0  0  0  0  0  0
    0.8994    0.9744   -1.1991 O   0  0  0  0  0  0  0  0  0  0  0  0
    1.1339    2.2821   -0.6946 C   0  0  2  0  0  0  0  0  0  0  0  0
    1.5150    2.3005    0.3563 H   0  0  0  0  0  0  0  0  0  0  0  0
   -0.1583    3.0445   -0.7087 C   0  0  0  0  0  0  0  0  0  0  0  0
   -0.9069    3.0111   -1.7213 O   0  0  0  0  0  0  0  0  0  0  0  0
   -0.5225    3.8163    0.3876 O   0  0  0  0  0  1  0  0  0  0  0  0
    2.1603    3.0003   -1.5825 C   0  0  0  0  0  0  0  0  0  0  0  0
    1.8006    3.0228   -2.6348 H   0  0  0  0  0  0  0  0  0  0  0  0
    2.2841    4.0515   -1.2409 H   0  0  0  0  0  0  0  0  0  0  0  0
    3.4943    2.3219   -1.5322 C   0  0  0  0  0  0  0  0  0  0  0  0
    4.2094    2.4052   -0.4992 O   0  0  0  0  0  0  0  0  0  0  0  0
    3.9411    1.5836   -2.6203 O   0  0  0  0  0  1  0  0  0  0  0  0
    0.4057   -0.0116    0.8767 O   0  0  0  0  0  0  0  0  0  0  0  0
   -0.9414   -0.2865    0.5216 C   0  0  2  0  0  0  0  0  0  0  0  0
   -1.3125    0.4525   -0.2245 H   0  0  0  0  0  0  0  0  0  0  0  0
   -1.8094   -0.1286    1.7750 C   0  0  0  0  0  0  0  0  0  0  0  0
   -1.4994   -0.8740    2.5418 H   0  0  0  0  0  0  0  0  0  0  0  0
   -2.8791   -0.2977    1.5189 H   0  0  0  0  0  0  0  0  0  0  0  0
   -1.6605    1.1657    2.2902 O   0  0  0  0  0  0  0  0  0  0  0  0
   -2.2322    1.2075    3.1003 H   0  0  0  0  0  0  0  0  0  0  0  0
   -1.0685   -1.7106   -0.0655 C   0  0  1  0  0  0  0  0  0  0  0  0
   -0.7426   -2.4550    0.7020 H   0  0  0  0  0  0  0  0  0  0  0  0
   -2.3938   -1.9566   -0.4655 O   0  0  0  0  0  0  0  0  0  0  0  0
   -2.8438   -2.4274    0.2838 H   0  0  0  0  0  0  0  0  0  0  0  0
   -0.1515   -1.8434   -1.2881 C   0  0  2  0  0  0  0  0  0  0  0  0
   -0.5420   -1.1783   -2.0965 H   0  0  0  0  0  0  0  0  0  0  0  0
   -0.1588   -3.1792   -1.7235 O   0  0  0  0  0  0  0  0  0  0  0  0
    0.1282   -3.1755   -2.6739 H   0  0  0  0  0  0  0  0  0  0  0  0
    4.2277   -1.9257   -1.0085 C   0  0  0  0  0  0  0  0  0  0  0  0
    3.8911   -2.8848   -0.5630 H   0  0  0  0  0  0  0  0  0  0  0  0
    4.1633   -1.1168   -0.2543 H   0  0  0  0  0  0  0  0  0  0  0  0
    5.2936   -2.0371   -1.2962 H   0  0  0  0  0  0  0  0  0  0  0  0
  1  2  1  0
  2  3  1  0
  3  4  2  0
  4  5  1  0
  5  6  1  1
  5  7  1  0
  7  8  1  1
  7  9  1  0
  9 10  1  0
 10 11  1  1
 10 12  1  0
 12 13  2  0
 12 14  1  0
 10 15  1  0
 15 16  1  0
 15 17  1  0
 15 18  1  0
 18 19  2  0
 18 20  1  0
  7 21  1  0
 21 22  1  0
 22 23  1  6
 22 24  1  0
 24 25  1  0
 24 26  1  0
 24 27  1  0
 27 28  1  0
 22 29  1  0
 29 30  1  1
 29 31  1  0
 31 32  1  0
 29 33  1  0
 33 34  1  6
 33 35  1  0
 35 36  1  0
  3 37  1  0
 37 38  1  0
 37 39  1  0
 37 40  1  0
 33  5  1  0
M  CHG  2  14  -1  20  -1
M  END
>  <UniqueID>  (39) 
38

>  <SMILES>  (39) 
C/C(O)=N/[C@H]1[C@@H](O[C@@H](CC(=O)[O-])C(=O)[O-])O[C@H](CO)[C@@H](O)[C@@H]1O

>  <Energy>  (39) 
35.23548790752293

>  <Genealogy>  (39) 
CC(O)=N[C@H]1[C@@H](O[C@@H](CC(=O)[O-])C(=O)[O-])O[C@H](CO)[C@@H](O)[C@@H]1O (tautomer)
C/C(O)=N/[C@H]1[C@@H](O[C@@H](CC(=O)[O-])C(=O)[O-])O[C@H](CO)[C@@H](O)[C@@H]1O (cis-trans isomerization)
C/C(O)=N/[C@H]1[C@@H](O[C@@H](CC(=O)[O-])C(=O)[O-])O[C@H](CO)[C@@H](O)[C@@H]1O (3D coordinates assigned)
C/C(O)=N/[C@H]1[C@@H](O[C@@H](CC(=O)[O-])C(=O)[O-])O[C@H](CO)[C@@H](O)[C@@H]1O (nonaromatic ring conformer: 35.23548790752293 kcal/mol)

$$$$
57339290
     RDKit          3D

 40 40  0  0  0  0  0  0  0  0999 V2000
    0.6373   -0.7307    4.2202 C   0  0  0  0  0  0  0  0  0  0  0  0
    0.0098    0.1032    3.1515 C   0  0  0  0  0  0  0  0  0  0  0  0
   -0.6671    1.1184    3.4692 O   0  0  0  0  0  0  0  0  0  0  0  0
    0.1799   -0.2561    1.7735 N   0  0  0  0  0  0  0  0  0  0  0  0
   -0.4418    0.5035    0.6801 C   0  0  1  0  0  0  0  0  0  0  0  0
    0.2578    0.2063   -0.6594 C   0  0  1  0  0  0  0  0  0  0  0  0
    1.6334    0.5089   -0.5198 O   0  0  0  0  0  0  0  0  0  0  0  0
    2.3231    0.3876   -1.7556 C   0  0  1  0  0  0  0  0  0  0  0  0
    3.2016    1.6269   -1.9652 C   0  0  0  0  0  0  0  0  0  0  0  0
    2.3602    2.8582   -2.0999 C   0  0  0  0  0  0  0  0  0  0  0  0
    2.0811    3.5497   -1.0851 O   0  0  0  0  0  0  0  0  0  0  0  0
    1.8426    3.2141   -3.3388 O   0  0  0  0  0  1  0  0  0  0  0  0
    3.1852   -0.8405   -1.7190 C   0  0  0  0  0  0  0  0  0  0  0  0
    3.8555   -1.1185   -0.6894 O   0  0  0  0  0  0  0  0  0  0  0  0
    3.2780   -1.6574   -2.8390 O   0  0  0  0  0  1  0  0  0  0  0  0
    0.1057   -1.1617   -1.0134 O   0  0  0  0  0  0  0  0  0  0  0  0
   -1.2510   -1.5201   -1.2384 C   0  0  2  0  0  0  0  0  0  0  0  0
   -1.7995   -0.9419   -2.5593 C   0  0  0  0  0  0  0  0  0  0  0  0
   -2.9699   -1.6196   -2.9264 O   0  0  0  0  0  0  0  0  0  0  0  0
   -2.1532   -1.2455   -0.0028 C   0  0  1  0  0  0  0  0  0  0  0  0
   -1.8692   -2.1866    1.0022 O   0  0  0  0  0  0  0  0  0  0  0  0
   -1.9414    0.1715    0.5717 C   0  0  2  0  0  0  0  0  0  0  0  0
   -2.5728    1.1316   -0.2370 O   0  0  0  0  0  0  0  0  0  0  0  0
    1.7335   -0.7842    4.0543 H   0  0  0  0  0  0  0  0  0  0  0  0
    0.4459   -0.2923    5.2227 H   0  0  0  0  0  0  0  0  0  0  0  0
    0.2120   -1.7554    4.1872 H   0  0  0  0  0  0  0  0  0  0  0  0
    0.7932   -1.0736    1.5520 H   0  0  0  0  0  0  0  0  0  0  0  0
   -0.3252    1.5910    0.8897 H   0  0  0  0  0  0  0  0  0  0  0  0
   -0.1777    0.8818   -1.4317 H   0  0  0  0  0  0  0  0  0  0  0  0
    1.6469    0.3034   -2.6423 H   0  0  0  0  0  0  0  0  0  0  0  0
    3.8077    1.5073   -2.8900 H   0  0  0  0  0  0  0  0  0  0  0  0
    3.9025    1.7479   -1.1095 H   0  0  0  0  0  0  0  0  0  0  0  0
   -1.2491   -2.6227   -1.3878 H   0  0  0  0  0  0  0  0  0  0  0  0
   -1.0329   -1.0776   -3.3549 H   0  0  0  0  0  0  0  0  0  0  0  0
   -2.0183    0.1420   -2.4701 H   0  0  0  0  0  0  0  0  0  0  0  0
   -3.2647   -1.2172   -3.7843 H   0  0  0  0  0  0  0  0  0  0  0  0
   -3.2255   -1.3478   -0.2935 H   0  0  0  0  0  0  0  0  0  0  0  0
   -2.3171   -3.0339    0.7423 H   0  0  0  0  0  0  0  0  0  0  0  0
   -2.3921    0.2180    1.5908 H   0  0  0  0  0  0  0  0  0  0  0  0
   -3.5484    1.0562   -0.0681 H   0  0  0  0  0  0  0  0  0  0  0  0
  1  2  1  0
  2  3  2  0
  2  4  1  0
  4  5  1  0
  5  6  1  0
  6  7  1  0
  7  8  1  0
  8  9  1  0
  9 10  1  0
 10 11  2  0
 10 12  1  0
  8 13  1  0
 13 14  2  0
 13 15  1  0
  6 16  1  0
 16 17  1  0
 17 18  1  0
 18 19  1  0
 17 20  1  0
 20 21  1  0
 20 22  1  0
 22 23  1  0
 22  5  1  0
  1 24  1  0
  1 25  1  0
  1 26  1  0
  4 27  1  0
  5 28  1  1
  6 29  1  6
  8 30  1  6
  9 31  1  0
  9 32  1  0
 17 33  1  6
 18 34  1  0
 18 35  1  0
 19 36  1  0
 20 37  1  6
 21 38  1  0
 22 39  1  1
 23 40  1  0
M  CHG  2  12  -1  15  -1
M  END
>  <UniqueID>  (40) 
39

>  <SMILES>  (40) 
CC(=O)N[C@H]1[C@@H](O[C@@H](CC(=O)[O-])C(=O)[O-])O[C@H](CO)[C@@H](O)[C@@H]1O

>  <Energy>  (40) 
37.78897671600248

>  <Genealogy>  (40) 
CC(=O)N[C@H]1[C@@H](O[C@@H](CC(=O)[O-])C(=O)[O-])O[C@H](CO)[C@@H](O)[C@@H]1O (3D coordinates assigned)
CC(=O)N[C@H]1[C@@H](O[C@@H](CC(=O)[O-])C(=O)[O-])O[C@H](CO)[C@@H](O)[C@@H]1O (nonaromatic ring conformer: 37.78897671600248 kcal/mol)

$$$$
54758653
     RDKit          3D

 33 33  0  0  0  0  0  0  0  0999 V2000
   -1.5674    4.1787    0.2027 C   0  0  0  0  0  0  0  0  0  0  0  0
   -0.5706    3.2952   -0.4735 C   0  0  0  0  0  0  0  0  0  0  0  0
    0.3630    3.8113   -1.1456 O   0  0  0  0  0  0  0  0  0  0  0  0
   -0.6657    1.8710   -0.3297 N   0  0  0  0  0  0  0  0  0  0  0  0
    0.3277    0.9464   -0.8915 C   0  0  2  0  0  0  0  0  0  0  0  0
   -0.3724   -0.3286   -1.4020 C   0  0  1  0  0  0  0  0  0  0  0  0
    0.5141   -1.1060   -2.1677 O   0  0  0  0  0  0  0  0  0  0  0  0
   -0.9294   -1.0819   -0.3334 O   0  0  0  0  0  0  0  0  0  0  0  0
    0.0673   -1.5406    0.5687 C   0  0  2  0  0  0  0  0  0  0  0  0
   -0.6198   -2.4304    1.6145 C   0  0  0  0  0  0  0  0  0  0  0  0
    0.3491   -3.0943    2.3928 O   0  0  0  0  0  0  0  0  0  0  0  0
   -0.4530   -4.0481    3.5568 P   0  0  0  0  0  5  0  0  0  0  0  0
   -1.2853   -5.1112    2.8755 O   0  0  0  0  0  0  0  0  0  0  0  0
   -1.4507   -3.0805    4.5222 O   0  0  0  0  0  1  0  0  0  0  0  0
    0.7008   -4.7978    4.5393 O   0  0  0  0  0  1  0  0  0  0  0  0
    0.7927   -0.3415    1.2375 C   0  0  1  0  0  0  0  0  0  0  0  0
    1.7975   -0.7731    2.1226 O   0  0  0  0  0  0  0  0  0  0  0  0
    1.3923    0.5821    0.1624 C   0  0  2  0  0  0  0  0  0  0  0  0
    1.9059    1.7391    0.7705 O   0  0  0  0  0  0  0  0  0  0  0  0
   -2.5950    3.8271   -0.0265 H   0  0  0  0  0  0  0  0  0  0  0  0
   -1.4614    5.2274   -0.1476 H   0  0  0  0  0  0  0  0  0  0  0  0
   -1.4058    4.1448    1.3002 H   0  0  0  0  0  0  0  0  0  0  0  0
   -1.4187    1.4894    0.2872 H   0  0  0  0  0  0  0  0  0  0  0  0
    0.8339    1.4249   -1.7594 H   0  0  0  0  0  0  0  0  0  0  0  0
   -1.2089   -0.0054   -2.0625 H   0  0  0  0  0  0  0  0  0  0  0  0
   -0.0238   -1.8465   -2.5518 H   0  0  0  0  0  0  0  0  0  0  0  0
    0.8070   -2.1781    0.0312 H   0  0  0  0  0  0  0  0  0  0  0  0
   -1.2461   -3.1741    1.0705 H   0  0  0  0  0  0  0  0  0  0  0  0
   -1.2807   -1.7944    2.2471 H   0  0  0  0  0  0  0  0  0  0  0  0
    0.0492    0.2390    1.8269 H   0  0  0  0  0  0  0  0  0  0  0  0
    2.4455   -1.3165    1.6019 H   0  0  0  0  0  0  0  0  0  0  0  0
    2.2209    0.0358   -0.3483 H   0  0  0  0  0  0  0  0  0  0  0  0
    2.4952    2.1758    0.1012 H   0  0  0  0  0  0  0  0  0  0  0  0
  1  2  1  0
  2  3  2  0
  2  4  1  0
  4  5  1  0
  5  6  1  0
  6  7  1  0
  6  8  1  0
  8  9  1  0
  9 10  1  0
 10 11  1  0
 11 12  1  0
 12 13  2  0
 12 14  1  0
 12 15  1  0
  9 16  1  0
 16 17  1  0
 16 18  1  0
 18 19  1  0
 18  5  1  0
  1 20  1  0
  1 21  1  0
  1 22  1  0
  4 23  1  0
  5 24  1  6
  6 25  1  6
  7 26  1  0
  9 27  1  6
 10 28  1  0
 10 29  1  0
 16 30  1  1
 17 31  1  0
 18 32  1  6
 19 33  1  0
M  CHG  2  14  -1  15  -1
M  END
>  <UniqueID>  (41) 
40

>  <SMILES>  (41) 
CC(=O)N[C@@H]1[C@@H](O)O[C@H](COP(=O)([O-])[O-])[C@@H](O)[C@@H]1O

>  <Energy>  (41) 
28.160291236928767

>  <Genealogy>  (41) 
CC(=O)N[C@@H]1[C@@H](O)O[C@H](COP(=O)([O-])[O-])[C@@H](O)[C@@H]1O (chirality)
CC(=O)N[C@@H]1[C@@H](O)O[C@H](COP(=O)([O-])[O-])[C@@H](O)[C@@H]1O (3D coordinates assigned)
CC(=O)N[C@@H]1[C@@H](O)O[C@H](COP(=O)([O-])[O-])[C@@H](O)[C@@H]1O (nonaromatic ring conformer: 28.160291236928767 kcal/mol)

$$$$
54758653
     RDKit          3D

 33 33  0  0  0  0  0  0  0  0999 V2000
   -0.1986    4.4493   -2.1583 C   0  0  0  0  0  0  0  0  0  0  0  0
    0.3560    3.2082   -1.5389 C   0  0  0  0  0  0  0  0  0  0  0  0
    1.6036    3.0237   -1.5232 O   0  0  0  0  0  0  0  0  0  0  0  0
   -0.5328    2.2248   -0.9899 N   0  0  0  0  0  0  0  0  0  0  0  0
   -0.0427    1.0094   -0.3262 C   0  0  2  0  0  0  0  0  0  0  0  0
   -1.1636   -0.0668   -0.1995 C   0  0  1  0  0  0  0  0  0  0  0  0
   -1.1625   -0.8905   -1.3362 O   0  0  0  0  0  0  0  0  0  0  0  0
   -1.0572   -0.8599    0.9794 O   0  0  0  0  0  0  0  0  0  0  0  0
    0.2885   -1.2064    1.2550 C   0  0  2  0  0  0  0  0  0  0  0  0
    0.3078   -2.3020    2.3262 C   0  0  0  0  0  0  0  0  0  0  0  0
   -0.3631   -3.4386    1.8347 O   0  0  0  0  0  0  0  0  0  0  0  0
   -0.3477   -4.6355    3.0483 P   0  0  0  0  0  5  0  0  0  0  0  0
   -1.0430   -5.8725    2.5284 O   0  0  0  0  0  0  0  0  0  0  0  0
    1.2458   -5.0301    3.4590 O   0  0  0  0  0  1  0  0  0  0  0  0
   -1.1636   -4.0802    4.4227 O   0  0  0  0  0  1  0  0  0  0  0  0
    1.0853    0.0474    1.7186 C   0  0  1  0  0  0  0  0  0  0  0  0
    2.4377   -0.0971    1.3631 O   0  0  0  0  0  0  0  0  0  0  0  0
    0.5275    1.3349    1.0688 C   0  0  2  0  0  0  0  0  0  0  0  0
   -0.4813    1.8717    1.8900 O   0  0  0  0  0  0  0  0  0  0  0  0
   -0.8778    4.9532   -1.4380 H   0  0  0  0  0  0  0  0  0  0  0  0
    0.6201    5.1505   -2.4306 H   0  0  0  0  0  0  0  0  0  0  0  0
   -0.7681    4.1832   -3.0741 H   0  0  0  0  0  0  0  0  0  0  0  0
   -1.5598    2.3833   -1.1008 H   0  0  0  0  0  0  0  0  0  0  0  0
    0.7808    0.5813   -0.9431 H   0  0  0  0  0  0  0  0  0  0  0  0
   -2.1480    0.4492   -0.1382 H   0  0  0  0  0  0  0  0  0  0  0  0
   -1.9578   -1.4796   -1.2583 H   0  0  0  0  0  0  0  0  0  0  0  0
    0.7669   -1.6354    0.3413 H   0  0  0  0  0  0  0  0  0  0  0  0
    1.3679   -2.5496    2.5611 H   0  0  0  0  0  0  0  0  0  0  0  0
   -0.1964   -1.9117    3.2402 H   0  0  0  0  0  0  0  0  0  0  0  0
    1.0075    0.1690    2.8262 H   0  0  0  0  0  0  0  0  0  0  0  0
    2.8551   -0.6872    2.0432 H   0  0  0  0  0  0  0  0  0  0  0  0
    1.3585    2.0735    0.9756 H   0  0  0  0  0  0  0  0  0  0  0  0
   -0.5706    2.8311    1.6505 H   0  0  0  0  0  0  0  0  0  0  0  0
  1  2  1  0
  2  3  2  0
  2  4  1  0
  4  5  1  0
  5  6  1  0
  6  7  1  0
  6  8  1  0
  8  9  1  0
  9 10  1  0
 10 11  1  0
 11 12  1  0
 12 13  2  0
 12 14  1  0
 12 15  1  0
  9 16  1  0
 16 17  1  0
 16 18  1  0
 18 19  1  0
 18  5  1  0
  1 20  1  0
  1 21  1  0
  1 22  1  0
  4 23  1  0
  5 24  1  6
  6 25  1  1
  7 26  1  0
  9 27  1  6
 10 28  1  0
 10 29  1  0
 16 30  1  1
 17 31  1  0
 18 32  1  6
 19 33  1  0
M  CHG  2  14  -1  15  -1
M  END
>  <UniqueID>  (42) 
41

>  <SMILES>  (42) 
CC(=O)N[C@@H]1[C@@H](O)O[C@H](COP(=O)([O-])[O-])[C@@H](O)[C@@H]1O

>  <Energy>  (42) 
33.71299713468176

>  <Genealogy>  (42) 
CC(=O)N[C@@H]1[C@@H](O)O[C@H](COP(=O)([O-])[O-])[C@@H](O)[C@@H]1O (chirality)
CC(=O)N[C@@H]1[C@@H](O)O[C@H](COP(=O)([O-])[O-])[C@@H](O)[C@@H]1O (3D coordinates assigned)
CC(=O)N[C@@H]1[C@@H](O)O[C@H](COP(=O)([O-])[O-])[C@@H](O)[C@@H]1O (nonaromatic ring conformer: 33.71299713468176 kcal/mol)

$$$$
54758653
     RDKit          3D

 33 33  0  0  0  0  0  0  0  0999 V2000
   -0.1959    2.0957   -3.0370 C   0  0  0  0  0  0  0  0  0  0  0  0
    0.0104    3.0453   -1.8963 C   0  0  0  0  0  0  0  0  0  0  0  0
    0.0350    4.2827   -2.1330 O   0  0  0  0  0  0  0  0  0  0  0  0
    0.1904    2.5899   -0.5449 N   0  0  0  0  0  0  0  0  0  0  0  0
    0.0781    1.1896   -0.1156 C   0  0  2  0  0  0  0  0  0  0  0  0
   -1.2439    0.9656    0.6772 C   0  0  1  0  0  0  0  0  0  0  0  0
   -2.2775    0.5770   -0.1904 O   0  0  0  0  0  0  0  0  0  0  0  0
   -1.1254    0.0110    1.7253 O   0  0  0  0  0  0  0  0  0  0  0  0
   -0.3329   -1.0964    1.3374 C   0  0  2  0  0  0  0  0  0  0  0  0
   -0.5369   -2.2248    2.3552 C   0  0  0  0  0  0  0  0  0  0  0  0
    0.1796   -3.3672    1.9471 O   0  0  0  0  0  0  0  0  0  0  0  0
   -0.0118   -4.5765    3.1339 P   0  0  0  0  0  5  0  0  0  0  0  0
    0.6489   -4.1452    4.4240 O   0  0  0  0  0  0  0  0  0  0  0  0
   -1.6541   -4.8757    3.4117 O   0  0  0  0  0  1  0  0  0  0  0  0
    0.7208   -5.9995    2.5888 O   0  0  0  0  0  1  0  0  0  0  0  0
    1.1598   -0.6779    1.2443 C   0  0  1  0  0  0  0  0  0  0  0  0
    1.8253   -1.5615    0.3773 O   0  0  0  0  0  0  0  0  0  0  0  0
    1.3047    0.7804    0.7263 C   0  0  2  0  0  0  0  0  0  0  0  0
    1.5215    1.6775    1.7908 O   0  0  0  0  0  0  0  0  0  0  0  0
    0.6835    1.4251   -3.1313 H   0  0  0  0  0  0  0  0  0  0  0  0
   -1.1121    1.4931   -2.8674 H   0  0  0  0  0  0  0  0  0  0  0  0
   -0.3155    2.6535   -3.9902 H   0  0  0  0  0  0  0  0  0  0  0  0
    0.3093    3.3210    0.1930 H   0  0  0  0  0  0  0  0  0  0  0  0
    0.0723    0.5156   -0.9987 H   0  0  0  0  0  0  0  0  0  0  0  0
   -1.5301    1.9248    1.1675 H   0  0  0  0  0  0  0  0  0  0  0  0
   -2.5324    1.3831   -0.7111 H   0  0  0  0  0  0  0  0  0  0  0  0
   -0.6782   -1.4850    0.3488 H   0  0  0  0  0  0  0  0  0  0  0  0
   -0.1978   -1.8694    3.3557 H   0  0  0  0  0  0  0  0  0  0  0  0
   -1.6266   -2.4503    2.4002 H   0  0  0  0  0  0  0  0  0  0  0  0
    1.6228   -0.7411    2.2585 H   0  0  0  0  0  0  0  0  0  0  0  0
    2.7951   -1.4855    0.5765 H   0  0  0  0  0  0  0  0  0  0  0  0
    2.2001    0.8421    0.0689 H   0  0  0  0  0  0  0  0  0  0  0  0
    0.7685    1.5889    2.4301 H   0  0  0  0  0  0  0  0  0  0  0  0
  1  2  1  0
  2  3  2  0
  2  4  1  0
  4  5  1  0
  5  6  1  0
  6  7  1  0
  6  8  1  0
  8  9  1  0
  9 10  1  0
 10 11  1  0
 11 12  1  0
 12 13  2  0
 12 14  1  0
 12 15  1  0
  9 16  1  0
 16 17  1  0
 16 18  1  0
 18 19  1  0
 18  5  1  0
  1 20  1  0
  1 21  1  0
  1 22  1  0
  4 23  1  0
  5 24  1  6
  6 25  1  1
  7 26  1  0
  9 27  1  6
 10 28  1  0
 10 29  1  0
 16 30  1  1
 17 31  1  0
 18 32  1  6
 19 33  1  0
M  CHG  2  14  -1  15  -1
M  END
>  <UniqueID>  (43) 
42

>  <SMILES>  (43) 
CC(=O)N[C@@H]1[C@@H](O)O[C@H](COP(=O)([O-])[O-])[C@@H](O)[C@@H]1O

>  <Energy>  (43) 
36.71246702001537

>  <Genealogy>  (43) 
CC(=O)N[C@@H]1[C@@H](O)O[C@H](COP(=O)([O-])[O-])[C@@H](O)[C@@H]1O (chirality)
CC(=O)N[C@@H]1[C@@H](O)O[C@H](COP(=O)([O-])[O-])[C@@H](O)[C@@H]1O (3D coordinates assigned)
CC(=O)N[C@@H]1[C@@H](O)O[C@H](COP(=O)([O-])[O-])[C@@H](O)[C@@H]1O (nonaromatic ring conformer: 36.71246702001537 kcal/mol)

$$$$
54758613
     RDKit          3D

 33 33  0  0  0  0  0  0  0  0999 V2000
   -4.6759   -1.6371    0.6789 H   0  0  0  0  0  0  0  0  0  0  0  0
   -3.7877   -1.1749    0.5259 O   0  0  0  0  0  0  0  0  0  0  0  0
   -3.7112    0.0292   -0.1737 C   0  0  0  0  0  0  0  0  0  0  0  0
   -2.5697    0.6267   -0.3444 N   0  0  0  0  0  0  0  0  0  0  0  0
   -1.2793    0.1113    0.1209 C   0  0  1  0  0  0  0  0  0  0  0  0
   -1.4063   -0.4189    1.0926 H   0  0  0  0  0  0  0  0  0  0  0  0
   -0.6828   -0.8610   -0.9225 C   0  0  2  0  0  0  0  0  0  0  0  0
   -0.6265   -0.3485   -1.9142 H   0  0  0  0  0  0  0  0  0  0  0  0
   -1.5216   -1.9764   -1.0490 O   0  0  0  0  0  0  0  0  0  0  0  0
   -1.1656   -2.5116   -1.8055 H   0  0  0  0  0  0  0  0  0  0  0  0
    0.6018   -1.3045   -0.5144 O   0  0  0  0  0  0  0  0  0  0  0  0
    1.5151   -0.2210   -0.4792 C   0  0  2  0  0  0  0  0  0  0  0  0
    1.5345    0.3033   -1.4645 H   0  0  0  0  0  0  0  0  0  0  0  0
    2.9268   -0.7751   -0.2487 C   0  0  0  0  0  0  0  0  0  0  0  0
    2.9571   -1.3026    0.7313 H   0  0  0  0  0  0  0  0  0  0  0  0
    3.1431   -1.5087   -1.0575 H   0  0  0  0  0  0  0  0  0  0  0  0
    3.8632    0.2763   -0.2882 O   0  0  0  0  0  0  0  0  0  0  0  0
    5.4027   -0.3600    0.0226 S   0  0  0  0  0  6  0  0  0  0  0  0
    5.4521   -0.9545    1.4027 O   0  0  0  0  0  0  0  0  0  0  0  0
    5.7514   -1.4107   -0.9949 O   0  0  0  0  0  0  0  0  0  0  0  0
    6.5283    0.8825   -0.0736 O   0  0  0  0  0  1  0  0  0  0  0  0
    1.1077    0.7803    0.6253 C   0  0  2  0  0  0  0  0  0  0  0  0
    1.8108    1.6467    0.6053 H   0  0  0  0  0  0  0  0  0  0  0  0
    1.1509    0.1475    1.8812 O   0  0  0  0  0  0  0  0  0  0  0  0
    1.2874    0.8589    2.5600 H   0  0  0  0  0  0  0  0  0  0  0  0
   -0.3142    1.2937    0.3370 C   0  0  2  0  0  0  0  0  0  0  0  0
   -0.2723    1.9075   -0.5955 H   0  0  0  0  0  0  0  0  0  0  0  0
   -0.7520    2.0925    1.4069 O   0  0  0  0  0  0  0  0  0  0  0  0
   -1.4790    2.6715    1.0579 H   0  0  0  0  0  0  0  0  0  0  0  0
   -4.9587    0.6650   -0.6964 C   0  0  0  0  0  0  0  0  0  0  0  0
   -5.6382   -0.1146   -1.0996 H   0  0  0  0  0  0  0  0  0  0  0  0
   -4.7215    1.3833   -1.5101 H   0  0  0  0  0  0  0  0  0  0  0  0
   -5.4705    1.2041    0.1275 H   0  0  0  0  0  0  0  0  0  0  0  0
  1  2  1  0
  2  3  1  0
  3  4  2  0
  4  5  1  0
  5  6  1  1
  5  7  1  0
  7  8  1  6
  7  9  1  0
  9 10  1  0
  7 11  1  0
 11 12  1  0
 12 13  1  6
 12 14  1  0
 14 15  1  0
 14 16  1  0
 14 17  1  0
 17 18  1  0
 18 19  2  0
 18 20  2  0
 18 21  1  0
 12 22  1  0
 22 23  1  1
 22 24  1  0
 24 25  1  0
 22 26  1  0
 26 27  1  6
 26 28  1  0
 28 29  1  0
  3 30  1  0
 30 31  1  0
 30 32  1  0
 30 33  1  0
 26  5  1  0
M  CHG  1  21  -1
M  END
>  <UniqueID>  (44) 
43

>  <SMILES>  (44) 
C/C(O)=N\[C@H]1[C@H](O)O[C@H](COS(=O)(=O)[O-])[C@H](O)[C@@H]1O

>  <Energy>  (44) 
28.051671830119

>  <Genealogy>  (44) 
CC(O)=N[C@H]1[C@H](O)O[C@H](COS(=O)(=O)[O-])[C@H](O)[C@@H]1O (tautomer)
C/C(O)=N\[C@H]1[C@H](O)O[C@H](COS(=O)(=O)[O-])[C@H](O)[C@@H]1O (cis-trans isomerization)
C/C(O)=N\[C@H]1[C@H](O)O[C@H](COS(=O)(=O)[O-])[C@H](O)[C@@H]1O (3D coordinates assigned)
C/C(O)=N\[C@H]1[C@H](O)O[C@H](COS(=O)(=O)[O-])[C@H](O)[C@@H]1O (nonaromatic ring conformer: 28.051671830119 kcal/mol)

$$$$
54758613
     RDKit          3D

 33 33  0  0  0  0  0  0  0  0999 V2000
   -4.1342   -1.1173   -3.1919 H   0  0  0  0  0  0  0  0  0  0  0  0
   -3.3241   -1.0665   -2.5860 O   0  0  0  0  0  0  0  0  0  0  0  0
   -3.1551   -1.9621   -1.5304 C   0  0  0  0  0  0  0  0  0  0  0  0
   -2.1224   -1.8767   -0.7458 N   0  0  0  0  0  0  0  0  0  0  0  0
   -1.0611   -0.8739   -0.8687 C   0  0  1  0  0  0  0  0  0  0  0  0
   -0.8988   -0.6167   -1.9407 H   0  0  0  0  0  0  0  0  0  0  0  0
   -1.4314    0.4086   -0.0834 C   0  0  2  0  0  0  0  0  0  0  0  0
   -1.6486    0.1490    0.9836 H   0  0  0  0  0  0  0  0  0  0  0  0
   -2.5676    1.0025   -0.6548 O   0  0  0  0  0  0  0  0  0  0  0  0
   -3.3628    0.6048   -0.2125 H   0  0  0  0  0  0  0  0  0  0  0  0
   -0.3727    1.3501   -0.1423 O   0  0  0  0  0  0  0  0  0  0  0  0
    0.7823    0.8471    0.5090 C   0  0  2  0  0  0  0  0  0  0  0  0
    0.5359    0.5384    1.5530 H   0  0  0  0  0  0  0  0  0  0  0  0
    1.8239    1.9680    0.6337 C   0  0  0  0  0  0  0  0  0  0  0  0
    2.7569    1.5435    1.0683 H   0  0  0  0  0  0  0  0  0  0  0  0
    1.4183    2.7338    1.3329 H   0  0  0  0  0  0  0  0  0  0  0  0
    2.0719    2.5454   -0.6265 O   0  0  0  0  0  0  0  0  0  0  0  0
    3.2260    3.7700   -0.4357 S   0  0  0  0  0  6  0  0  0  0  0  0
    2.6804    4.8652    0.4378 O   0  0  0  0  0  0  0  0  0  0  0  0
    3.5540    4.3406   -1.7860 O   0  0  0  0  0  0  0  0  0  0  0  0
    4.6314    3.1489    0.2462 O   0  0  0  0  0  1  0  0  0  0  0  0
    1.3393   -0.3783   -0.2499 C   0  0  2  0  0  0  0  0  0  0  0  0
    2.2161   -0.7781    0.3130 H   0  0  0  0  0  0  0  0  0  0  0  0
    1.7245   -0.0074   -1.5508 O   0  0  0  0  0  0  0  0  0  0  0  0
    2.4037   -0.6663   -1.8506 H   0  0  0  0  0  0  0  0  0  0  0  0
    0.2461   -1.4631   -0.3107 C   0  0  2  0  0  0  0  0  0  0  0  0
    0.0523   -1.8340    0.7246 H   0  0  0  0  0  0  0  0  0  0  0  0
    0.6612   -2.5349   -1.1180 O   0  0  0  0  0  0  0  0  0  0  0  0
    1.3498   -3.0307   -0.6024 H   0  0  0  0  0  0  0  0  0  0  0  0
   -4.1843   -3.0166   -1.2798 C   0  0  0  0  0  0  0  0  0  0  0  0
   -3.7698   -3.8278   -0.6438 H   0  0  0  0  0  0  0  0  0  0  0  0
   -4.5144   -3.4559   -2.2442 H   0  0  0  0  0  0  0  0  0  0  0  0
   -5.0581   -2.5633   -0.7675 H   0  0  0  0  0  0  0  0  0  0  0  0
  1  2  1  0
  2  3  1  0
  3  4  2  0
  4  5  1  0
  5  6  1  6
  5  7  1  0
  7  8  1  1
  7  9  1  0
  9 10  1  0
  7 11  1  0
 11 12  1  0
 12 13  1  1
 12 14  1  0
 14 15  1  0
 14 16  1  0
 14 17  1  0
 17 18  1  0
 18 19  2  0
 18 20  2  0
 18 21  1  0
 12 22  1  0
 22 23  1  1
 22 24  1  0
 24 25  1  0
 22 26  1  0
 26 27  1  1
 26 28  1  0
 28 29  1  0
  3 30  1  0
 30 31  1  0
 30 32  1  0
 30 33  1  0
 26  5  1  0
M  CHG  1  21  -1
M  END
>  <UniqueID>  (45) 
44

>  <SMILES>  (45) 
C/C(O)=N/[C@H]1[C@H](O)O[C@H](COS(=O)(=O)[O-])[C@H](O)[C@@H]1O

>  <Energy>  (45) 
28.678367483200336

>  <Genealogy>  (45) 
CC(O)=N[C@H]1[C@H](O)O[C@H](COS(=O)(=O)[O-])[C@H](O)[C@@H]1O (tautomer)
C/C(O)=N/[C@H]1[C@H](O)O[C@H](COS(=O)(=O)[O-])[C@H](O)[C@@H]1O (cis-trans isomerization)
C/C(O)=N/[C@H]1[C@H](O)O[C@H](COS(=O)(=O)[O-])[C@H](O)[C@@H]1O (3D coordinates assigned)
C/C(O)=N/[C@H]1[C@H](O)O[C@H](COS(=O)(=O)[O-])[C@H](O)[C@@H]1O (nonaromatic ring conformer: 28.678367483200336 kcal/mol)

$$$$
54758613
     RDKit          3D

 33 33  0  0  0  0  0  0  0  0999 V2000
   -4.3585   -1.9548    0.4587 H   0  0  0  0  0  0  0  0  0  0  0  0
   -4.3695   -1.9700   -0.5545 O   0  0  0  0  0  0  0  0  0  0  0  0
   -3.2275   -1.6683   -1.2908 C   0  0  0  0  0  0  0  0  0  0  0  0
   -2.1254   -1.3762   -0.6588 N   0  0  0  0  0  0  0  0  0  0  0  0
   -0.8369   -1.0161   -1.2626 C   0  0  1  0  0  0  0  0  0  0  0  0
   -0.7073   -1.5615   -2.2234 H   0  0  0  0  0  0  0  0  0  0  0  0
   -0.7828    0.5088   -1.5160 C   0  0  2  0  0  0  0  0  0  0  0  0
   -1.7062    0.7943   -2.0667 H   0  0  0  0  0  0  0  0  0  0  0  0
    0.3164    0.8606   -2.3169 O   0  0  0  0  0  0  0  0  0  0  0  0
    0.1319    0.5162   -3.2298 H   0  0  0  0  0  0  0  0  0  0  0  0
   -0.7953    1.2656   -0.3129 O   0  0  0  0  0  0  0  0  0  0  0  0
    0.2547    0.9424    0.5936 C   0  0  2  0  0  0  0  0  0  0  0  0
   -0.0134    1.4451    1.5495 H   0  0  0  0  0  0  0  0  0  0  0  0
    1.6061    1.5691    0.1897 C   0  0  0  0  0  0  0  0  0  0  0  0
    2.0756    0.9889   -0.6297 H   0  0  0  0  0  0  0  0  0  0  0  0
    2.2861    1.5304    1.0700 H   0  0  0  0  0  0  0  0  0  0  0  0
    1.4015    2.9088   -0.1939 O   0  0  0  0  0  0  0  0  0  0  0  0
    2.8801    3.5573   -0.7093 S   0  0  0  0  0  6  0  0  0  0  0  0
    3.9083    3.4552    0.3831 O   0  0  0  0  0  0  0  0  0  0  0  0
    3.3673    2.8329   -1.9334 O   0  0  0  0  0  0  0  0  0  0  0  0
    2.6539    5.1769   -1.0911 O   0  0  0  0  0  1  0  0  0  0  0  0
    0.3154   -0.5677    0.9337 C   0  0  2  0  0  0  0  0  0  0  0  0
   -0.6020   -0.8018    1.5247 H   0  0  0  0  0  0  0  0  0  0  0  0
    1.4423   -0.8472    1.7253 O   0  0  0  0  0  0  0  0  0  0  0  0
    1.2959   -1.7431    2.1276 H   0  0  0  0  0  0  0  0  0  0  0  0
    0.2981   -1.4523   -0.3279 C   0  0  2  0  0  0  0  0  0  0  0  0
    0.1053   -2.5088   -0.0226 H   0  0  0  0  0  0  0  0  0  0  0  0
    1.5250   -1.3899   -1.0107 O   0  0  0  0  0  0  0  0  0  0  0  0
    2.1560   -1.9878   -0.5313 H   0  0  0  0  0  0  0  0  0  0  0  0
   -3.3097   -1.7229   -2.7888 C   0  0  0  0  0  0  0  0  0  0  0  0
   -4.3590   -1.9034   -3.1032 H   0  0  0  0  0  0  0  0  0  0  0  0
   -2.9752   -0.7662   -3.2374 H   0  0  0  0  0  0  0  0  0  0  0  0
   -2.6830   -2.5556   -3.1707 H   0  0  0  0  0  0  0  0  0  0  0  0
  1  2  1  0
  2  3  1  0
  3  4  2  0
  4  5  1  0
  5  6  1  6
  5  7  1  0
  7  8  1  6
  7  9  1  0
  9 10  1  0
  7 11  1  0
 11 12  1  0
 12 13  1  1
 12 14  1  0
 14 15  1  0
 14 16  1  0
 14 17  1  0
 17 18  1  0
 18 19  2  0
 18 20  2  0
 18 21  1  0
 12 22  1  0
 22 23  1  1
 22 24  1  0
 24 25  1  0
 22 26  1  0
 26 27  1  1
 26 28  1  0
 28 29  1  0
  3 30  1  0
 30 31  1  0
 30 32  1  0
 30 33  1  0
 26  5  1  0
M  CHG  1  21  -1
M  END
>  <UniqueID>  (46) 
45

>  <SMILES>  (46) 
C/C(O)=N/[C@H]1[C@H](O)O[C@H](COS(=O)(=O)[O-])[C@H](O)[C@@H]1O

>  <Energy>  (46) 
38.073749055344344

>  <Genealogy>  (46) 
CC(O)=N[C@H]1[C@H](O)O[C@H](COS(=O)(=O)[O-])[C@H](O)[C@@H]1O (tautomer)
C/C(O)=N/[C@H]1[C@H](O)O[C@H](COS(=O)(=O)[O-])[C@H](O)[C@@H]1O (cis-trans isomerization)
C/C(O)=N/[C@H]1[C@H](O)O[C@H](COS(=O)(=O)[O-])[C@H](O)[C@@H]1O (3D coordinates assigned)
C/C(O)=N/[C@H]1[C@H](O)O[C@H](COS(=O)(=O)[O-])[C@H](O)[C@@H]1O (nonaromatic ring conformer: 38.073749055344344 kcal/mol)

$$$$
52948856
     RDKit          3D

 74 77  0  0  0  0  0  0  0  0999 V2000
   -4.8161    1.2199   -3.9679 C   0  0  0  0  0  0  0  0  0  0  0  0
   -4.3142   -0.0924   -3.8378 O   0  0  0  0  0  0  0  0  0  0  0  0
   -3.1837   -0.2835   -4.6719 C   0  0  0  0  0  0  0  0  0  0  0  0
   -1.8971   -0.3667   -3.8339 C   0  0  1  0  0  0  0  0  0  0  0  0
   -1.7044    0.8750   -3.1785 O   0  0  0  0  0  0  0  0  0  0  0  0
   -0.4469    0.9127   -2.5252 C   0  0  1  0  0  0  0  0  0  0  0  0
   -0.2844    2.1904   -1.9406 O   0  0  0  0  0  0  0  0  0  0  0  0
    0.2841    3.0961   -2.8650 C   0  0  0  0  0  0  0  0  0  0  0  0
    0.4236    4.4690   -2.2073 C   0  0  0  0  0  0  0  0  0  0  0  0
    1.3041    4.3924   -0.9859 C   0  0  0  0  0  0  0  0  0  0  0  0
    0.7408    4.1768    0.2822 C   0  0  0  0  0  0  0  0  0  0  0  0
    1.5628    4.0410    1.4034 C   0  0  0  0  0  0  0  0  0  0  0  0
    2.9517    4.1017    1.2659 C   0  0  0  0  0  0  0  0  0  0  0  0
    3.5208    4.3082    0.0068 C   0  0  0  0  0  0  0  0  0  0  0  0
    2.7011    4.4531   -1.1168 C   0  0  0  0  0  0  0  0  0  0  0  0
   -0.4051   -0.1252   -1.3909 C   0  0  2  0  0  0  0  0  0  0  0  0
    0.9123   -0.0458   -0.7192 N   0  0  0  0  0  0  0  0  0  0  0  0
    0.7788    0.1618    0.7279 C   0  0  0  0  0  0  0  0  0  0  0  0
    2.1661    0.2836    1.3716 C   0  0  0  0  0  0  0  0  0  0  0  0
    2.0765    0.6113    2.8661 C   0  0  0  0  0  0  0  0  0  0  0  0
    1.5476   -0.5266    3.6141 N   0  0  0  0  0  0  0  0  0  0  0  0
   -0.6745   -1.5363   -1.9607 C   0  0  1  0  0  0  0  0  0  0  0  0
   -0.8352   -2.4386   -0.8769 O   0  0  0  0  0  0  0  0  0  0  0  0
    0.0048   -3.5644   -1.0198 C   0  0  0  0  0  0  0  0  0  0  0  0
   -0.1154   -4.4135    0.2110 C   0  0  0  0  0  0  0  0  0  0  0  0
   -1.0118   -5.4936    0.2463 C   0  0  0  0  0  0  0  0  0  0  0  0
   -1.1436   -6.2671    1.4037 C   0  0  0  0  0  0  0  0  0  0  0  0
   -0.3901   -5.9610    2.5458 C   0  0  0  0  0  0  0  0  0  0  0  0
   -0.5102   -6.7346    3.7115 C   0  0  0  0  0  0  0  0  0  0  0  0
    0.2439   -6.4177    4.8451 C   0  0  0  0  0  0  0  0  0  0  0  0
    1.1220   -5.3298    4.8235 C   0  0  0  0  0  0  0  0  0  0  0  0
    1.2515   -4.5519    3.6686 C   0  0  0  0  0  0  0  0  0  0  0  0
    0.4999   -4.8595    2.5240 C   0  0  0  0  0  0  0  0  0  0  0  0
    0.6250   -4.0888    1.3587 C   0  0  0  0  0  0  0  0  0  0  0  0
   -1.9630   -1.5182   -2.8017 C   0  0  2  0  0  0  0  0  0  0  0  0
   -2.1020   -2.7457   -3.4725 O   0  0  0  0  0  0  0  0  0  0  0  0
   -5.6389    1.3586   -3.2370 H   0  0  0  0  0  0  0  0  0  0  0  0
   -5.2338    1.3797   -4.9871 H   0  0  0  0  0  0  0  0  0  0  0  0
   -4.0356    1.9810   -3.7424 H   0  0  0  0  0  0  0  0  0  0  0  0
   -3.3210   -1.2375   -5.2244 H   0  0  0  0  0  0  0  0  0  0  0  0
   -3.0594    0.5010   -5.4582 H   0  0  0  0  0  0  0  0  0  0  0  0
   -1.0627   -0.5589   -4.5490 H   0  0  0  0  0  0  0  0  0  0  0  0
    0.3812    0.6767   -3.2424 H   0  0  0  0  0  0  0  0  0  0  0  0
   -0.3687    3.1993   -3.7621 H   0  0  0  0  0  0  0  0  0  0  0  0
    1.2967    2.7522   -3.1823 H   0  0  0  0  0  0  0  0  0  0  0  0
   -0.5834    4.8476   -1.9301 H   0  0  0  0  0  0  0  0  0  0  0  0
    0.8552    5.1862   -2.9387 H   0  0  0  0  0  0  0  0  0  0  0  0
   -0.3331    4.1074    0.4004 H   0  0  0  0  0  0  0  0  0  0  0  0
    1.1226    3.8838    2.3771 H   0  0  0  0  0  0  0  0  0  0  0  0
    3.5854    3.9868    2.1345 H   0  0  0  0  0  0  0  0  0  0  0  0
    4.5979    4.3523   -0.1006 H   0  0  0  0  0  0  0  0  0  0  0  0
    3.1522    4.6008   -2.0902 H   0  0  0  0  0  0  0  0  0  0  0  0
   -1.2368    0.1251   -0.6889 H   0  0  0  0  0  0  0  0  0  0  0  0
    1.4782   -0.9100   -0.8869 H   0  0  0  0  0  0  0  0  0  0  0  0
    0.2155    1.1049    0.9125 H   0  0  0  0  0  0  0  0  0  0  0  0
    0.2231   -0.6899    1.1864 H   0  0  0  0  0  0  0  0  0  0  0  0
    2.7295   -0.6668    1.2350 H   0  0  0  0  0  0  0  0  0  0  0  0
    2.7329    1.0951    0.8620 H   0  0  0  0  0  0  0  0  0  0  0  0
    1.4175    1.4931    3.0208 H   0  0  0  0  0  0  0  0  0  0  0  0
    3.0896    0.8711    3.2430 H   0  0  0  0  0  0  0  0  0  0  0  0
    1.3996   -0.2148    4.6015 H   0  0  0  0  0  0  0  0  0  0  0  0
    2.2832   -1.2708    3.6475 H   0  0  0  0  0  0  0  0  0  0  0  0
    0.1731   -1.7971   -2.6428 H   0  0  0  0  0  0  0  0  0  0  0  0
   -0.2871   -4.1536   -1.9182 H   0  0  0  0  0  0  0  0  0  0  0  0
    1.0707   -3.2618   -1.1362 H   0  0  0  0  0  0  0  0  0  0  0  0
   -1.6108   -5.7388   -0.6226 H   0  0  0  0  0  0  0  0  0  0  0  0
   -1.8370   -7.1014    1.4067 H   0  0  0  0  0  0  0  0  0  0  0  0
   -1.1850   -7.5818    3.7458 H   0  0  0  0  0  0  0  0  0  0  0  0
    0.1472   -7.0173    5.7415 H   0  0  0  0  0  0  0  0  0  0  0  0
    1.7064   -5.0894    5.7023 H   0  0  0  0  0  0  0  0  0  0  0  0
    1.9416   -3.7171    3.6696 H   0  0  0  0  0  0  0  0  0  0  0  0
    1.2998   -3.2396    1.3401 H   0  0  0  0  0  0  0  0  0  0  0  0
   -2.8327   -1.3411   -2.1227 H   0  0  0  0  0  0  0  0  0  0  0  0
   -2.6321   -3.3427   -2.8801 H   0  0  0  0  0  0  0  0  0  0  0  0
  1  2  1  0
  2  3  1  0
  3  4  1  0
  4  5  1  0
  5  6  1  0
  6  7  1  0
  7  8  1  0
  8  9  1  0
  9 10  1  0
 10 11  2  0
 11 12  1  0
 12 13  2  0
 13 14  1  0
 14 15  2  0
  6 16  1  0
 16 17  1  0
 17 18  1  0
 18 19  1  0
 19 20  1  0
 20 21  1  0
 16 22  1  0
 22 23  1  0
 23 24  1  0
 24 25  1  0
 25 26  2  0
 26 27  1  0
 27 28  2  0
 28 29  1  0
 29 30  2  0
 30 31  1  0
 31 32  2  0
 32 33  1  0
 33 34  2  0
 22 35  1  0
 35 36  1  0
 35  4  1  0
 15 10  1  0
 34 25  1  0
 33 28  1  0
  1 37  1  0
  1 38  1  0
  1 39  1  0
  3 40  1  0
  3 41  1  0
  4 42  1  6
  6 43  1  6
  8 44  1  0
  8 45  1  0
  9 46  1  0
  9 47  1  0
 11 48  1  0
 12 49  1  0
 13 50  1  0
 14 51  1  0
 15 52  1  0
 16 53  1  1
 17 54  1  0
 18 55  1  0
 18 56  1  0
 19 57  1  0
 19 58  1  0
 20 59  1  0
 20 60  1  0
 21 61  1  0
 21 62  1  0
 22 63  1  6
 24 64  1  0
 24 65  1  0
 26 66  1  0
 27 67  1  0
 29 68  1  0
 30 69  1  0
 31 70  1  0
 32 71  1  0
 34 72  1  0
 35 73  1  1
 36 74  1  0
M  END
>  <UniqueID>  (47) 
46

>  <SMILES>  (47) 
COC[C@H]1O[C@@H](OCCc2ccccc2)[C@H](NCCCN)[C@@H](OCc2ccc3ccccc3c2)[C@@H]1O

>  <Energy>  (47) 
74.59169927397244

>  <Genealogy>  (47) 
COC[C@H]1O[C@@H](OCCc2ccccc2)[C@H](NCCCN)[C@@H](OCc2ccc3ccccc3c2)[C@@H]1O (chirality)
COC[C@H]1O[C@@H](OCCc2ccccc2)[C@H](NCCCN)[C@@H](OCc2ccc3ccccc3c2)[C@@H]1O (3D coordinates assigned)
COC[C@H]1O[C@@H](OCCc2ccccc2)[C@H](NCCCN)[C@@H](OCc2ccc3ccccc3c2)[C@@H]1O (nonaromatic ring conformer: 74.59169927397244 kcal/mol)

$$$$
52948856
     RDKit          3D

 75 78  0  0  0  0  0  0  0  0999 V2000
   -1.0061   -5.9790    2.6244 C   0  0  0  0  0  0  0  0  0  0  0  0
   -0.3699   -4.9436    1.9083 O   0  0  0  0  0  0  0  0  0  0  0  0
   -1.2812   -3.8826    1.7078 C   0  0  0  0  0  0  0  0  0  0  0  0
   -0.5183   -2.6328    1.2491 C   0  0  1  0  0  0  0  0  0  0  0  0
    0.2677   -2.9708    0.1199 O   0  0  0  0  0  0  0  0  0  0  0  0
    1.1169   -1.8978   -0.2531 C   0  0  1  0  0  0  0  0  0  0  0  0
    1.8861   -2.3350   -1.3594 O   0  0  0  0  0  0  0  0  0  0  0  0
    3.2368   -2.5493   -1.0076 C   0  0  0  0  0  0  0  0  0  0  0  0
    4.0430   -2.8283   -2.2752 C   0  0  0  0  0  0  0  0  0  0  0  0
    4.0050   -1.6388   -3.2010 C   0  0  0  0  0  0  0  0  0  0  0  0
    2.9539   -1.4896   -4.1240 C   0  0  0  0  0  0  0  0  0  0  0  0
    2.8799   -0.3497   -4.9304 C   0  0  0  0  0  0  0  0  0  0  0  0
    3.8494    0.6493   -4.8201 C   0  0  0  0  0  0  0  0  0  0  0  0
    4.8932    0.5117   -3.9022 C   0  0  0  0  0  0  0  0  0  0  0  0
    4.9702   -0.6247   -3.0903 C   0  0  0  0  0  0  0  0  0  0  0  0
    0.2771   -0.6720   -0.7086 C   0  0  2  0  0  0  0  0  0  0  0  0
    1.1583    0.4491   -1.1270 N   0  0  0  0  0  4  0  0  0  0  0  0
    0.4665    1.3925   -2.0216 C   0  0  0  0  0  0  0  0  0  0  0  0
    1.3763    2.5784   -2.3712 C   0  0  0  0  0  0  0  0  0  0  0  0
    0.6960    3.5267   -3.3606 C   0  0  0  0  0  0  0  0  0  0  0  0
    1.5863    4.6351   -3.6882 N   0  0  0  0  0  0  0  0  0  0  0  0
   -0.7118   -0.2558    0.4190 C   0  0  2  0  0  0  0  0  0  0  0  0
    0.0005    0.2841    1.5290 O   0  0  0  0  0  0  0  0  0  0  0  0
   -0.3119    1.6471    1.7520 C   0  0  0  0  0  0  0  0  0  0  0  0
   -1.6228    1.7829    2.4792 C   0  0  0  0  0  0  0  0  0  0  0  0
   -2.7468    2.3145    1.8262 C   0  0  0  0  0  0  0  0  0  0  0  0
   -3.9816    2.3759    2.4763 C   0  0  0  0  0  0  0  0  0  0  0  0
   -4.1112    1.9017    3.7895 C   0  0  0  0  0  0  0  0  0  0  0  0
   -5.3510    1.9437    4.4475 C   0  0  0  0  0  0  0  0  0  0  0  0
   -5.4688    1.4563    5.7525 C   0  0  0  0  0  0  0  0  0  0  0  0
   -4.3552    0.9229    6.4070 C   0  0  0  0  0  0  0  0  0  0  0  0
   -3.1159    0.8760    5.7639 C   0  0  0  0  0  0  0  0  0  0  0  0
   -2.9820    1.3656    4.4553 C   0  0  0  0  0  0  0  0  0  0  0  0
   -1.7446    1.3139    3.7957 C   0  0  0  0  0  0  0  0  0  0  0  0
   -1.4990   -1.4971    0.8820 C   0  0  2  0  0  0  0  0  0  0  0  0
   -2.3032   -1.1791    1.9886 O   0  0  0  0  0  0  0  0  0  0  0  0
   -1.1545   -5.6816    3.6877 H   0  0  0  0  0  0  0  0  0  0  0  0
   -0.3511   -6.8735    2.6058 H   0  0  0  0  0  0  0  0  0  0  0  0
   -1.9801   -6.2712    2.1661 H   0  0  0  0  0  0  0  0  0  0  0  0
   -1.8280   -3.6329    2.6481 H   0  0  0  0  0  0  0  0  0  0  0  0
   -2.0188   -4.1718    0.9246 H   0  0  0  0  0  0  0  0  0  0  0  0
    0.1323   -2.3187    2.1000 H   0  0  0  0  0  0  0  0  0  0  0  0
    1.7459   -1.5880    0.6207 H   0  0  0  0  0  0  0  0  0  0  0  0
    3.6767   -1.6556   -0.5082 H   0  0  0  0  0  0  0  0  0  0  0  0
    3.3152   -3.4276   -0.3295 H   0  0  0  0  0  0  0  0  0  0  0  0
    3.6286   -3.7222   -2.7875 H   0  0  0  0  0  0  0  0  0  0  0  0
    5.0924   -3.0663   -1.9983 H   0  0  0  0  0  0  0  0  0  0  0  0
    2.1853   -2.2475   -4.2097 H   0  0  0  0  0  0  0  0  0  0  0  0
    2.0636   -0.2371   -5.6330 H   0  0  0  0  0  0  0  0  0  0  0  0
    3.7853    1.5340   -5.4399 H   0  0  0  0  0  0  0  0  0  0  0  0
    5.6388    1.2905   -3.8123 H   0  0  0  0  0  0  0  0  0  0  0  0
    5.7737   -0.7118   -2.3701 H   0  0  0  0  0  0  0  0  0  0  0  0
   -0.3284   -1.0097   -1.5834 H   0  0  0  0  0  0  0  0  0  0  0  0
    1.5349    0.9525   -0.2917 H   0  0  0  0  0  0  0  0  0  0  0  0
    1.9798    0.0778   -1.6565 H   0  0  0  0  0  0  0  0  0  0  0  0
   -0.4544    1.7864   -1.5423 H   0  0  0  0  0  0  0  0  0  0  0  0
    0.1705    0.8698   -2.9608 H   0  0  0  0  0  0  0  0  0  0  0  0
    2.3234    2.2041   -2.8186 H   0  0  0  0  0  0  0  0  0  0  0  0
    1.6228    3.1348   -1.4379 H   0  0  0  0  0  0  0  0  0  0  0  0
   -0.2473    3.9196   -2.9210 H   0  0  0  0  0  0  0  0  0  0  0  0
    0.4482    2.9733   -4.2908 H   0  0  0  0  0  0  0  0  0  0  0  0
    1.6714    5.2508   -2.8467 H   0  0  0  0  0  0  0  0  0  0  0  0
    1.1235    5.2077   -4.4295 H   0  0  0  0  0  0  0  0  0  0  0  0
   -1.4647    0.4452   -0.0133 H   0  0  0  0  0  0  0  0  0  0  0  0
    0.4878    2.0816    2.3900 H   0  0  0  0  0  0  0  0  0  0  0  0
   -0.2944    2.2415    0.8107 H   0  0  0  0  0  0  0  0  0  0  0  0
   -2.6704    2.6663    0.8059 H   0  0  0  0  0  0  0  0  0  0  0  0
   -4.8357    2.7835    1.9481 H   0  0  0  0  0  0  0  0  0  0  0  0
   -6.2268    2.3461    3.9511 H   0  0  0  0  0  0  0  0  0  0  0  0
   -6.4257    1.4880    6.2568 H   0  0  0  0  0  0  0  0  0  0  0  0
   -4.4530    0.5443    7.4159 H   0  0  0  0  0  0  0  0  0  0  0  0
   -2.2636    0.4587    6.2883 H   0  0  0  0  0  0  0  0  0  0  0  0
   -0.8786    0.8909    4.2945 H   0  0  0  0  0  0  0  0  0  0  0  0
   -2.1422   -1.8489    0.0383 H   0  0  0  0  0  0  0  0  0  0  0  0
   -3.1275   -0.7579    1.6345 H   0  0  0  0  0  0  0  0  0  0  0  0
  1  2  1  0
  2  3  1  0
  3  4  1  0
  4  5  1  0
  5  6  1  0
  6  7  1  0
  7  8  1  0
  8  9  1  0
  9 10  1  0
 10 11  2  0
 11 12  1  0
 12 13  2  0
 13 14  1  0
 14 15  2  0
  6 16  1  0
 16 17  1  0
 17 18  1  0
 18 19  1  0
 19 20  1  0
 20 21  1  0
 16 22  1  0
 22 23  1  0
 23 24  1  0
 24 25  1  0
 25 26  2  0
 26 27  1  0
 27 28  2  0
 28 29  1  0
 29 30  2  0
 30 31  1  0
 31 32  2  0
 32 33  1  0
 33 34  2  0
 22 35  1  0
 35 36  1  0
 35  4  1  0
 15 10  1  0
 34 25  1  0
 33 28  1  0
  1 37  1  0
  1 38  1  0
  1 39  1  0
  3 40  1  0
  3 41  1  0
  4 42  1  1
  6 43  1  1
  8 44  1  0
  8 45  1  0
  9 46  1  0
  9 47  1  0
 11 48  1  0
 12 49  1  0
 13 50  1  0
 14 51  1  0
 15 52  1  0
 16 53  1  6
 17 54  1  0
 17 55  1  0
 18 56  1  0
 18 57  1  0
 19 58  1  0
 19 59  1  0
 20 60  1  0
 20 61  1  0
 21 62  1  0
 21 63  1  0
 22 64  1  6
 24 65  1  0
 24 66  1  0
 26 67  1  0
 27 68  1  0
 29 69  1  0
 30 70  1  0
 31 71  1  0
 32 72  1  0
 34 73  1  0
 35 74  1  6
 36 75  1  0
M  CHG  1  17   1
M  END
>  <UniqueID>  (48) 
47

>  <SMILES>  (48) 
COC[C@H]1O[C@@H](OCCc2ccccc2)[C@H]([NH2+]CCCN)[C@H](OCc2ccc3ccccc3c2)[C@@H]1O

>  <Energy>  (48) 
77.47568370971426

>  <Genealogy>  (48) 
COC[C@H]1OC(OCCc2ccccc2)[C@H]([NH2+]CCCN)C(OCc2ccc3ccccc3c2)[C@@H]1O (protonated)
COC[C@H]1O[C@@H](OCCc2ccccc2)[C@H]([NH2+]CCCN)[C@H](OCc2ccc3ccccc3c2)[C@@H]1O (chirality)
COC[C@H]1O[C@@H](OCCc2ccccc2)[C@H]([NH2+]CCCN)[C@H](OCc2ccc3ccccc3c2)[C@@H]1O (3D coordinates assigned)
COC[C@H]1O[C@@H](OCCc2ccccc2)[C@H]([NH2+]CCCN)[C@H](OCc2ccc3ccccc3c2)[C@@H]1O (nonaromatic ring conformer: 77.47568370971426 kcal/mol)

$$$$
52948856
     RDKit          3D

 75 78  0  0  0  0  0  0  0  0999 V2000
   -1.4926   -7.5929   -0.2327 C   0  0  0  0  0  0  0  0  0  0  0  0
   -1.3024   -6.2659    0.2028 O   0  0  0  0  0  0  0  0  0  0  0  0
   -0.7494   -5.5017   -0.8489 C   0  0  0  0  0  0  0  0  0  0  0  0
   -0.5490   -4.0491   -0.3939 C   0  0  1  0  0  0  0  0  0  0  0  0
    0.2187   -3.3850   -1.3830 O   0  0  0  0  0  0  0  0  0  0  0  0
    0.5776   -2.0812   -0.9532 C   0  0  1  0  0  0  0  0  0  0  0  0
    1.4577   -1.5066   -1.9027 O   0  0  0  0  0  0  0  0  0  0  0  0
    2.7351   -2.1211   -1.8682 C   0  0  0  0  0  0  0  0  0  0  0  0
    3.6193   -1.5980   -0.7216 C   0  0  0  0  0  0  0  0  0  0  0  0
    3.5321   -0.1016   -0.5620 C   0  0  0  0  0  0  0  0  0  0  0  0
    4.1077    0.7478   -1.5213 C   0  0  0  0  0  0  0  0  0  0  0  0
    4.0215    2.1359   -1.3750 C   0  0  0  0  0  0  0  0  0  0  0  0
    3.3571    2.6848   -0.2746 C   0  0  0  0  0  0  0  0  0  0  0  0
    2.7773    1.8469    0.6812 C   0  0  0  0  0  0  0  0  0  0  0  0
    2.8673    0.4588    0.5428 C   0  0  0  0  0  0  0  0  0  0  0  0
   -0.6970   -1.2025   -0.8492 C   0  0  2  0  0  0  0  0  0  0  0  0
   -0.3546    0.2038   -0.5091 N   0  0  0  0  0  4  0  0  0  0  0  0
   -1.4278    1.1664   -0.8349 C   0  0  0  0  0  0  0  0  0  0  0  0
   -1.4237    1.5915   -2.3217 C   0  0  0  0  0  0  0  0  0  0  0  0
   -0.5907    2.8536   -2.5896 C   0  0  0  0  0  0  0  0  0  0  0  0
    0.8329    2.6002   -2.3960 N   0  0  0  0  0  0  0  0  0  0  0  0
   -1.6621   -1.8468    0.1879 C   0  0  2  0  0  0  0  0  0  0  0  0
   -1.0816   -1.7845    1.4867 O   0  0  0  0  0  0  0  0  0  0  0  0
   -2.0216   -1.4040    2.4755 C   0  0  0  0  0  0  0  0  0  0  0  0
   -2.0980    0.0950    2.5793 C   0  0  0  0  0  0  0  0  0  0  0  0
   -3.2526    0.7792    2.1695 C   0  0  0  0  0  0  0  0  0  0  0  0
   -3.2982    2.1752    2.2045 C   0  0  0  0  0  0  0  0  0  0  0  0
   -2.1864    2.9064    2.6465 C   0  0  0  0  0  0  0  0  0  0  0  0
   -2.2137    4.3094    2.6653 C   0  0  0  0  0  0  0  0  0  0  0  0
   -1.0953    5.0268    3.0992 C   0  0  0  0  0  0  0  0  0  0  0  0
    0.0543    4.3516    3.5184 C   0  0  0  0  0  0  0  0  0  0  0  0
    0.0935    2.9546    3.5068 C   0  0  0  0  0  0  0  0  0  0  0  0
   -1.0214    2.2224    3.0706 C   0  0  0  0  0  0  0  0  0  0  0  0
   -0.9885    0.8208    3.0401 C   0  0  0  0  0  0  0  0  0  0  0  0
   -1.9032   -3.3227   -0.1998 C   0  0  2  0  0  0  0  0  0  0  0  0
   -2.6603   -3.9661    0.7930 O   0  0  0  0  0  0  0  0  0  0  0  0
   -2.2104   -7.6399   -1.0812 H   0  0  0  0  0  0  0  0  0  0  0  0
   -0.5264   -8.0676   -0.5135 H   0  0  0  0  0  0  0  0  0  0  0  0
   -1.9239   -8.1805    0.6034 H   0  0  0  0  0  0  0  0  0  0  0  0
    0.2470   -5.9128   -1.1337 H   0  0  0  0  0  0  0  0  0  0  0  0
   -1.4111   -5.5142   -1.7460 H   0  0  0  0  0  0  0  0  0  0  0  0
    0.0089   -4.0811    0.5719 H   0  0  0  0  0  0  0  0  0  0  0  0
    1.0641   -2.1082    0.0502 H   0  0  0  0  0  0  0  0  0  0  0  0
    3.2428   -1.8870   -2.8279 H   0  0  0  0  0  0  0  0  0  0  0  0
    2.6704   -3.2319   -1.8207 H   0  0  0  0  0  0  0  0  0  0  0  0
    4.6751   -1.8794   -0.9258 H   0  0  0  0  0  0  0  0  0  0  0  0
    3.3446   -2.1087    0.2260 H   0  0  0  0  0  0  0  0  0  0  0  0
    4.6217    0.3345   -2.3801 H   0  0  0  0  0  0  0  0  0  0  0  0
    4.4650    2.7866   -2.1174 H   0  0  0  0  0  0  0  0  0  0  0  0
    3.2857    3.7593   -0.1665 H   0  0  0  0  0  0  0  0  0  0  0  0
    2.2576    2.2729    1.5287 H   0  0  0  0  0  0  0  0  0  0  0  0
    2.4100   -0.1766    1.2912 H   0  0  0  0  0  0  0  0  0  0  0  0
   -1.1939   -1.2326   -1.8453 H   0  0  0  0  0  0  0  0  0  0  0  0
    0.5094    0.4991   -1.0130 H   0  0  0  0  0  0  0  0  0  0  0  0
   -0.1282    0.2779    0.5070 H   0  0  0  0  0  0  0  0  0  0  0  0
   -1.3220    2.0673   -0.1902 H   0  0  0  0  0  0  0  0  0  0  0  0
   -2.4240    0.7445   -0.5931 H   0  0  0  0  0  0  0  0  0  0  0  0
   -2.4713    1.8160   -2.6192 H   0  0  0  0  0  0  0  0  0  0  0  0
   -1.0739    0.7664   -2.9772 H   0  0  0  0  0  0  0  0  0  0  0  0
   -0.7680    3.1884   -3.6360 H   0  0  0  0  0  0  0  0  0  0  0  0
   -0.9187    3.6727   -1.9127 H   0  0  0  0  0  0  0  0  0  0  0  0
    1.3410    3.5004   -2.5523 H   0  0  0  0  0  0  0  0  0  0  0  0
    1.1543    1.9432   -3.1437 H   0  0  0  0  0  0  0  0  0  0  0  0
   -2.6435   -1.3237    0.1224 H   0  0  0  0  0  0  0  0  0  0  0  0
   -3.0264   -1.8578    2.3145 H   0  0  0  0  0  0  0  0  0  0  0  0
   -1.6705   -1.8015    3.4512 H   0  0  0  0  0  0  0  0  0  0  0  0
   -4.1132    0.2326    1.8044 H   0  0  0  0  0  0  0  0  0  0  0  0
   -4.1967    2.6825    1.8739 H   0  0  0  0  0  0  0  0  0  0  0  0
   -3.0959    4.8492    2.3427 H   0  0  0  0  0  0  0  0  0  0  0  0
   -1.1194    6.1090    3.1102 H   0  0  0  0  0  0  0  0  0  0  0  0
    0.9174    4.9125    3.8528 H   0  0  0  0  0  0  0  0  0  0  0  0
    0.9935    2.4480    3.8346 H   0  0  0  0  0  0  0  0  0  0  0  0
   -0.0932    0.2915    3.3469 H   0  0  0  0  0  0  0  0  0  0  0  0
   -2.4563   -3.3505   -1.1695 H   0  0  0  0  0  0  0  0  0  0  0  0
   -3.6035   -3.6864    0.6597 H   0  0  0  0  0  0  0  0  0  0  0  0
  1  2  1  0
  2  3  1  0
  3  4  1  0
  4  5  1  0
  5  6  1  0
  6  7  1  0
  7  8  1  0
  8  9  1  0
  9 10  1  0
 10 11  2  0
 11 12  1  0
 12 13  2  0
 13 14  1  0
 14 15  2  0
  6 16  1  0
 16 17  1  0
 17 18  1  0
 18 19  1  0
 19 20  1  0
 20 21  1  0
 16 22  1  0
 22 23  1  0
 23 24  1  0
 24 25  1  0
 25 26  2  0
 26 27  1  0
 27 28  2  0
 28 29  1  0
 29 30  2  0
 30 31  1  0
 31 32  2  0
 32 33  1  0
 33 34  2  0
 22 35  1  0
 35 36  1  0
 35  4  1  0
 15 10  1  0
 34 25  1  0
 33 28  1  0
  1 37  1  0
  1 38  1  0
  1 39  1  0
  3 40  1  0
  3 41  1  0
  4 42  1  1
  6 43  1  1
  8 44  1  0
  8 45  1  0
  9 46  1  0
  9 47  1  0
 11 48  1  0
 12 49  1  0
 13 50  1  0
 14 51  1  0
 15 52  1  0
 16 53  1  6
 17 54  1  0
 17 55  1  0
 18 56  1  0
 18 57  1  0
 19 58  1  0
 19 59  1  0
 20 60  1  0
 20 61  1  0
 21 62  1  0
 21 63  1  0
 22 64  1  1
 24 65  1  0
 24 66  1  0
 26 67  1  0
 27 68  1  0
 29 69  1  0
 30 70  1  0
 31 71  1  0
 32 72  1  0
 34 73  1  0
 35 74  1  6
 36 75  1  0
M  CHG  1  17   1
M  END
>  <UniqueID>  (49) 
48

>  <SMILES>  (49) 
COC[C@H]1O[C@@H](OCCc2ccccc2)[C@H]([NH2+]CCCN)[C@H](OCc2ccc3ccccc3c2)[C@@H]1O

>  <Energy>  (49) 
79.65555230917285

>  <Genealogy>  (49) 
COC[C@H]1OC(OCCc2ccccc2)[C@H]([NH2+]CCCN)C(OCc2ccc3ccccc3c2)[C@@H]1O (protonated)
COC[C@H]1O[C@@H](OCCc2ccccc2)[C@H]([NH2+]CCCN)[C@H](OCc2ccc3ccccc3c2)[C@@H]1O (chirality)
COC[C@H]1O[C@@H](OCCc2ccccc2)[C@H]([NH2+]CCCN)[C@H](OCc2ccc3ccccc3c2)[C@@H]1O (3D coordinates assigned)
COC[C@H]1O[C@@H](OCCc2ccccc2)[C@H]([NH2+]CCCN)[C@H](OCc2ccc3ccccc3c2)[C@@H]1O (nonaromatic ring conformer: 79.65555230917285 kcal/mol)

$$$$
52944904
     RDKit          3D

 73 76  0  0  0  0  0  0  0  0999 V2000
    0.2064   -2.3273    5.8742 C   0  0  0  0  0  0  0  0  0  0  0  0
   -0.9902   -2.5960    5.1765 O   0  0  0  0  0  0  0  0  0  0  0  0
   -1.7202   -1.4010    4.9648 C   0  0  0  0  0  0  0  0  0  0  0  0
   -1.4113   -0.8219    3.5742 C   0  0  1  0  0  0  0  0  0  0  0  0
   -1.6785   -1.8249    2.6048 O   0  0  0  0  0  0  0  0  0  0  0  0
   -1.3269   -1.4112    1.2930 C   0  0  2  0  0  0  0  0  0  0  0  0
    0.0661   -1.1269    1.2249 O   0  0  0  0  0  0  0  0  0  0  0  0
    0.7184   -1.9478    0.2814 C   0  0  0  0  0  0  0  0  0  0  0  0
    2.1529   -1.4568    0.1067 C   0  0  0  0  0  0  0  0  0  0  0  0
    2.8710   -2.2814   -0.9277 C   0  0  0  0  0  0  0  0  0  0  0  0
    3.5421   -3.4581   -0.5541 C   0  0  0  0  0  0  0  0  0  0  0  0
    4.1701   -4.2475   -1.5227 C   0  0  0  0  0  0  0  0  0  0  0  0
    4.1221   -3.8748   -2.8686 C   0  0  0  0  0  0  0  0  0  0  0  0
    3.4462   -2.7117   -3.2491 C   0  0  0  0  0  0  0  0  0  0  0  0
    2.8182   -1.9182   -2.2842 C   0  0  0  0  0  0  0  0  0  0  0  0
   -2.1655   -0.1719    0.8642 C   0  0  2  0  0  0  0  0  0  0  0  0
   -1.8380    0.2916   -0.5055 N   0  0  0  0  0  4  0  0  0  0  0  0
   -2.3979   -0.5786   -1.5550 C   0  0  0  0  0  0  0  0  0  0  0  0
   -2.0612   -0.0538   -2.9643 C   0  0  0  0  0  0  0  0  0  0  0  0
   -0.6620   -0.2969   -3.3208 N   0  0  0  0  0  4  0  0  0  0  0  0
   -1.9742    0.9741    1.8890 C   0  0  2  0  0  0  0  0  0  0  0  0
   -0.6358    1.4562    1.8268 O   0  0  0  0  0  0  0  0  0  0  0  0
   -0.5778    2.8684    1.7544 C   0  0  0  0  0  0  0  0  0  0  0  0
   -0.7007    3.3216    0.3251 C   0  0  0  0  0  0  0  0  0  0  0  0
   -1.8365    4.0256   -0.1035 C   0  0  0  0  0  0  0  0  0  0  0  0
   -1.9915    4.3660   -1.4499 C   0  0  0  0  0  0  0  0  0  0  0  0
   -1.0148    3.9996   -2.3874 C   0  0  0  0  0  0  0  0  0  0  0  0
   -1.1717    4.3149   -3.7460 C   0  0  0  0  0  0  0  0  0  0  0  0
   -0.1956    3.9339   -4.6718 C   0  0  0  0  0  0  0  0  0  0  0  0
    0.9412    3.2385   -4.2503 C   0  0  0  0  0  0  0  0  0  0  0  0
    1.1109    2.9210   -2.9000 C   0  0  0  0  0  0  0  0  0  0  0  0
    0.1377    3.2961   -1.9605 C   0  0  0  0  0  0  0  0  0  0  0  0
    0.2891    2.9680   -0.6055 C   0  0  0  0  0  0  0  0  0  0  0  0
   -2.2636    0.4393    3.3043 C   0  0  2  0  0  0  0  0  0  0  0  0
   -1.9736    1.4271    4.2604 O   0  0  0  0  0  0  0  0  0  0  0  0
   -0.0102   -2.0061    6.9162 H   0  0  0  0  0  0  0  0  0  0  0  0
    0.8241   -1.5631    5.3536 H   0  0  0  0  0  0  0  0  0  0  0  0
    0.8035   -3.2602    5.9252 H   0  0  0  0  0  0  0  0  0  0  0  0
   -2.8007   -1.6552    5.0110 H   0  0  0  0  0  0  0  0  0  0  0  0
   -1.5491   -0.6370    5.7598 H   0  0  0  0  0  0  0  0  0  0  0  0
   -0.3332   -0.5453    3.5665 H   0  0  0  0  0  0  0  0  0  0  0  0
   -1.6302   -2.2574    0.6341 H   0  0  0  0  0  0  0  0  0  0  0  0
    0.2139   -1.8985   -0.7094 H   0  0  0  0  0  0  0  0  0  0  0  0
    0.7292   -3.0014    0.6407 H   0  0  0  0  0  0  0  0  0  0  0  0
    2.6861   -1.5156    1.0811 H   0  0  0  0  0  0  0  0  0  0  0  0
    2.1412   -0.3875   -0.2017 H   0  0  0  0  0  0  0  0  0  0  0  0
    3.5751   -3.7644    0.4845 H   0  0  0  0  0  0  0  0  0  0  0  0
    4.6881   -5.1519   -1.2301 H   0  0  0  0  0  0  0  0  0  0  0  0
    4.6050   -4.4899   -3.6168 H   0  0  0  0  0  0  0  0  0  0  0  0
    3.4056   -2.4278   -4.2923 H   0  0  0  0  0  0  0  0  0  0  0  0
    2.2905   -1.0241   -2.5933 H   0  0  0  0  0  0  0  0  0  0  0  0
   -3.2412   -0.4633    0.9018 H   0  0  0  0  0  0  0  0  0  0  0  0
   -0.8026    0.3693   -0.6139 H   0  0  0  0  0  0  0  0  0  0  0  0
   -2.2540    1.2414   -0.6444 H   0  0  0  0  0  0  0  0  0  0  0  0
   -2.0243   -1.6184   -1.4614 H   0  0  0  0  0  0  0  0  0  0  0  0
   -3.5056   -0.6116   -1.4574 H   0  0  0  0  0  0  0  0  0  0  0  0
   -2.7136   -0.5746   -3.6990 H   0  0  0  0  0  0  0  0  0  0  0  0
   -2.2833    1.0343   -3.0321 H   0  0  0  0  0  0  0  0  0  0  0  0
   -0.4381   -1.3155   -3.2393 H   0  0  0  0  0  0  0  0  0  0  0  0
   -0.5074    0.0017   -4.3111 H   0  0  0  0  0  0  0  0  0  0  0  0
   -0.0215    0.2560   -2.7083 H   0  0  0  0  0  0  0  0  0  0  0  0
   -2.7376    1.7556    1.6534 H   0  0  0  0  0  0  0  0  0  0  0  0
   -1.3256    3.3617    2.4169 H   0  0  0  0  0  0  0  0  0  0  0  0
    0.4143    3.1891    2.1353 H   0  0  0  0  0  0  0  0  0  0  0  0
   -2.6131    4.2933    0.6023 H   0  0  0  0  0  0  0  0  0  0  0  0
   -2.8804    4.9019   -1.7603 H   0  0  0  0  0  0  0  0  0  0  0  0
   -2.0487    4.8501   -4.0915 H   0  0  0  0  0  0  0  0  0  0  0  0
   -0.3203    4.1785   -5.7189 H   0  0  0  0  0  0  0  0  0  0  0  0
    1.6923    2.9440   -4.9718 H   0  0  0  0  0  0  0  0  0  0  0  0
    1.9966    2.3775   -2.5922 H   0  0  0  0  0  0  0  0  0  0  0  0
    1.1588    2.4107   -0.2750 H   0  0  0  0  0  0  0  0  0  0  0  0
   -3.3422    0.1583    3.3702 H   0  0  0  0  0  0  0  0  0  0  0  0
   -2.7190    2.0819    4.2287 H   0  0  0  0  0  0  0  0  0  0  0  0
  1  2  1  0
  2  3  1  0
  3  4  1  0
  4  5  1  0
  5  6  1  0
  6  7  1  0
  7  8  1  0
  8  9  1  0
  9 10  1  0
 10 11  2  0
 11 12  1  0
 12 13  2  0
 13 14  1  0
 14 15  2  0
  6 16  1  0
 16 17  1  0
 17 18  1  0
 18 19  1  0
 19 20  1  0
 16 21  1  0
 21 22  1  0
 22 23  1  0
 23 24  1  0
 24 25  2  0
 25 26  1  0
 26 27  2  0
 27 28  1  0
 28 29  2  0
 29 30  1  0
 30 31  2  0
 31 32  1  0
 32 33  2  0
 21 34  1  0
 34 35  1  0
 34  4  1  0
 15 10  1  0
 33 24  1  0
 32 27  1  0
  1 36  1  0
  1 37  1  0
  1 38  1  0
  3 39  1  0
  3 40  1  0
  4 41  1  1
  6 42  1  6
  8 43  1  0
  8 44  1  0
  9 45  1  0
  9 46  1  0
 11 47  1  0
 12 48  1  0
 13 49  1  0
 14 50  1  0
 15 51  1  0
 16 52  1  6
 17 53  1  0
 17 54  1  0
 18 55  1  0
 18 56  1  0
 19 57  1  0
 19 58  1  0
 20 59  1  0
 20 60  1  0
 20 61  1  0
 21 62  1  6
 23 63  1  0
 23 64  1  0
 25 65  1  0
 26 66  1  0
 28 67  1  0
 29 68  1  0
 30 69  1  0
 31 70  1  0
 33 71  1  0
 34 72  1  6
 35 73  1  0
M  CHG  2  17   1  20   1
M  END
>  <UniqueID>  (50) 
49

>  <SMILES>  (50) 
COC[C@H]1O[C@H](OCCc2ccccc2)[C@H]([NH2+]CC[NH3+])[C@H](OCc2ccc3ccccc3c2)[C@@H]1O

>  <Energy>  (50) 
78.81814493699972

>  <Genealogy>  (50) 
COC[C@H]1OC(OCCc2ccccc2)[C@H]([NH2+]CC[NH3+])C(OCc2ccc3ccccc3c2)[C@@H]1O (protonated)
COC[C@H]1O[C@H](OCCc2ccccc2)[C@H]([NH2+]CC[NH3+])[C@H](OCc2ccc3ccccc3c2)[C@@H]1O (chirality)
COC[C@H]1O[C@H](OCCc2ccccc2)[C@H]([NH2+]CC[NH3+])[C@H](OCc2ccc3ccccc3c2)[C@@H]1O (3D coordinates assigned)
COC[C@H]1O[C@H](OCCc2ccccc2)[C@H]([NH2+]CC[NH3+])[C@H](OCc2ccc3ccccc3c2)[C@@H]1O (nonaromatic ring conformer: 78.81814493699972 kcal/mol)

$$$$
52944904
     RDKit          3D

 72 75  0  0  0  0  0  0  0  0999 V2000
   -4.6184    1.4611    2.4772 C   0  0  0  0  0  0  0  0  0  0  0  0
   -3.3959    1.4078    3.1790 O   0  0  0  0  0  0  0  0  0  0  0  0
   -2.9448    0.0701    3.2904 C   0  0  0  0  0  0  0  0  0  0  0  0
   -1.9479   -0.2609    2.1664 C   0  0  1  0  0  0  0  0  0  0  0  0
   -0.9387    0.7390    2.1591 O   0  0  0  0  0  0  0  0  0  0  0  0
   -0.0222    0.5704    1.0880 C   0  0  2  0  0  0  0  0  0  0  0  0
   -0.7107    0.6469   -0.1581 O   0  0  0  0  0  0  0  0  0  0  0  0
   -0.0906    1.5231   -1.0837 C   0  0  0  0  0  0  0  0  0  0  0  0
   -0.8427    2.8538   -1.1612 C   0  0  0  0  0  0  0  0  0  0  0  0
   -0.7598    3.6157    0.1342 C   0  0  0  0  0  0  0  0  0  0  0  0
   -1.8372    3.6046    1.0356 C   0  0  0  0  0  0  0  0  0  0  0  0
   -1.7380    4.2722    2.2600 C   0  0  0  0  0  0  0  0  0  0  0  0
   -0.5640    4.9526    2.5935 C   0  0  0  0  0  0  0  0  0  0  0  0
    0.5127    4.9677    1.7024 C   0  0  0  0  0  0  0  0  0  0  0  0
    0.4178    4.3009    0.4770 C   0  0  0  0  0  0  0  0  0  0  0  0
    0.7357   -0.7814    1.2422 C   0  0  2  0  0  0  0  0  0  0  0  0
    1.7473   -1.0036    0.1817 N   0  0  0  0  0  4  0  0  0  0  0  0
    2.9765   -0.2183    0.3964 C   0  0  0  0  0  0  0  0  0  0  0  0
    3.9664   -0.4076   -0.7616 C   0  0  0  0  0  0  0  0  0  0  0  0
    4.4247   -1.7919   -0.8339 N   0  0  0  0  0  0  0  0  0  0  0  0
   -0.2783   -1.9504    1.2923 C   0  0  2  0  0  0  0  0  0  0  0  0
   -0.9191   -2.0848    0.0282 O   0  0  0  0  0  0  0  0  0  0  0  0
   -0.9575   -3.4307   -0.4093 C   0  0  0  0  0  0  0  0  0  0  0  0
    0.3269   -3.7928   -1.1040 C   0  0  0  0  0  0  0  0  0  0  0  0
    1.1832   -4.7630   -0.5607 C   0  0  0  0  0  0  0  0  0  0  0  0
    2.4085   -5.0462   -1.1696 C   0  0  0  0  0  0  0  0  0  0  0  0
    2.7988   -4.3546   -2.3251 C   0  0  0  0  0  0  0  0  0  0  0  0
    4.0377   -4.6141   -2.9311 C   0  0  0  0  0  0  0  0  0  0  0  0
    4.4237   -3.9026   -4.0707 C   0  0  0  0  0  0  0  0  0  0  0  0
    3.5784   -2.9311   -4.6133 C   0  0  0  0  0  0  0  0  0  0  0  0
    2.3400   -2.6665   -4.0220 C   0  0  0  0  0  0  0  0  0  0  0  0
    1.9399   -3.3742   -2.8783 C   0  0  0  0  0  0  0  0  0  0  0  0
    0.7044   -3.1093   -2.2701 C   0  0  0  0  0  0  0  0  0  0  0  0
   -1.3272   -1.6631    2.3809 C   0  0  2  0  0  0  0  0  0  0  0  0
   -2.3240   -2.6541    2.3377 O   0  0  0  0  0  0  0  0  0  0  0  0
   -4.5264    1.0143    1.4630 H   0  0  0  0  0  0  0  0  0  0  0  0
   -5.4275    0.9582    3.0519 H   0  0  0  0  0  0  0  0  0  0  0  0
   -4.9066    2.5253    2.3513 H   0  0  0  0  0  0  0  0  0  0  0  0
   -3.7780   -0.6726    3.3099 H   0  0  0  0  0  0  0  0  0  0  0  0
   -2.4237   -0.0249    4.2673 H   0  0  0  0  0  0  0  0  0  0  0  0
   -2.5172   -0.2513    1.2099 H   0  0  0  0  0  0  0  0  0  0  0  0
    0.7155    1.3914    1.2214 H   0  0  0  0  0  0  0  0  0  0  0  0
   -0.1491    1.0450   -2.0842 H   0  0  0  0  0  0  0  0  0  0  0  0
    0.9937    1.6962   -0.9035 H   0  0  0  0  0  0  0  0  0  0  0  0
   -1.9033    2.6599   -1.4338 H   0  0  0  0  0  0  0  0  0  0  0  0
   -0.4047    3.4694   -1.9762 H   0  0  0  0  0  0  0  0  0  0  0  0
   -2.7473    3.0712    0.7937 H   0  0  0  0  0  0  0  0  0  0  0  0
   -2.5694    4.2572    2.9527 H   0  0  0  0  0  0  0  0  0  0  0  0
   -0.4870    5.4655    3.5431 H   0  0  0  0  0  0  0  0  0  0  0  0
    1.4228    5.4920    1.9635 H   0  0  0  0  0  0  0  0  0  0  0  0
    1.2629    4.3096   -0.2004 H   0  0  0  0  0  0  0  0  0  0  0  0
    1.2502   -0.7627    2.2319 H   0  0  0  0  0  0  0  0  0  0  0  0
    1.3439   -0.7890   -0.7584 H   0  0  0  0  0  0  0  0  0  0  0  0
    2.0247   -2.0122    0.1911 H   0  0  0  0  0  0  0  0  0  0  0  0
    3.4662   -0.5247    1.3480 H   0  0  0  0  0  0  0  0  0  0  0  0
    2.7471    0.8641    0.4674 H   0  0  0  0  0  0  0  0  0  0  0  0
    4.8380    0.2681   -0.6142 H   0  0  0  0  0  0  0  0  0  0  0  0
    3.4744   -0.1290   -1.7194 H   0  0  0  0  0  0  0  0  0  0  0  0
    5.0340   -1.9802   -0.0049 H   0  0  0  0  0  0  0  0  0  0  0  0
    5.0342   -1.8811   -1.6787 H   0  0  0  0  0  0  0  0  0  0  0  0
    0.2883   -2.8641    1.5979 H   0  0  0  0  0  0  0  0  0  0  0  0
   -1.2014   -4.1398    0.4153 H   0  0  0  0  0  0  0  0  0  0  0  0
   -1.7855   -3.5288   -1.1422 H   0  0  0  0  0  0  0  0  0  0  0  0
    0.9097   -5.2911    0.3442 H   0  0  0  0  0  0  0  0  0  0  0  0
    3.0560   -5.7952   -0.7297 H   0  0  0  0  0  0  0  0  0  0  0  0
    4.7081   -5.3595   -2.5204 H   0  0  0  0  0  0  0  0  0  0  0  0
    5.3819   -4.1023   -4.5326 H   0  0  0  0  0  0  0  0  0  0  0  0
    3.8838   -2.3817   -5.4944 H   0  0  0  0  0  0  0  0  0  0  0  0
    1.6985   -1.9082   -4.4548 H   0  0  0  0  0  0  0  0  0  0  0  0
    0.0476   -2.3509   -2.6814 H   0  0  0  0  0  0  0  0  0  0  0  0
   -0.8058   -1.6823    3.3693 H   0  0  0  0  0  0  0  0  0  0  0  0
   -2.6216   -2.8129    3.2707 H   0  0  0  0  0  0  0  0  0  0  0  0
  1  2  1  0
  2  3  1  0
  3  4  1  0
  4  5  1  0
  5  6  1  0
  6  7  1  0
  7  8  1  0
  8  9  1  0
  9 10  1  0
 10 11  2  0
 11 12  1  0
 12 13  2  0
 13 14  1  0
 14 15  2  0
  6 16  1  0
 16 17  1  0
 17 18  1  0
 18 19  1  0
 19 20  1  0
 16 21  1  0
 21 22  1  0
 22 23  1  0
 23 24  1  0
 24 25  2  0
 25 26  1  0
 26 27  2  0
 27 28  1  0
 28 29  2  0
 29 30  1  0
 30 31  2  0
 31 32  1  0
 32 33  2  0
 21 34  1  0
 34 35  1  0
 34  4  1  0
 15 10  1  0
 33 24  1  0
 32 27  1  0
  1 36  1  0
  1 37  1  0
  1 38  1  0
  3 39  1  0
  3 40  1  0
  4 41  1  6
  6 42  1  6
  8 43  1  0
  8 44  1  0
  9 45  1  0
  9 46  1  0
 11 47  1  0
 12 48  1  0
 13 49  1  0
 14 50  1  0
 15 51  1  0
 16 52  1  1
 17 53  1  0
 17 54  1  0
 18 55  1  0
 18 56  1  0
 19 57  1  0
 19 58  1  0
 20 59  1  0
 20 60  1  0
 21 61  1  1
 23 62  1  0
 23 63  1  0
 25 64  1  0
 26 65  1  0
 28 66  1  0
 29 67  1  0
 30 68  1  0
 31 69  1  0
 33 70  1  0
 34 71  1  1
 35 72  1  0
M  CHG  1  17   1
M  END
>  <UniqueID>  (51) 
50

>  <SMILES>  (51) 
COC[C@H]1O[C@H](OCCc2ccccc2)[C@H]([NH2+]CCN)[C@H](OCc2ccc3ccccc3c2)[C@@H]1O

>  <Energy>  (51) 
79.32839560801101

>  <Genealogy>  (51) 
COC[C@H]1OC(OCCc2ccccc2)[C@H]([NH2+]CCN)C(OCc2ccc3ccccc3c2)[C@@H]1O (protonated)
COC[C@H]1O[C@H](OCCc2ccccc2)[C@H]([NH2+]CCN)[C@H](OCc2ccc3ccccc3c2)[C@@H]1O (chirality)
COC[C@H]1O[C@H](OCCc2ccccc2)[C@H]([NH2+]CCN)[C@H](OCc2ccc3ccccc3c2)[C@@H]1O (3D coordinates assigned)
COC[C@H]1O[C@H](OCCc2ccccc2)[C@H]([NH2+]CCN)[C@H](OCc2ccc3ccccc3c2)[C@@H]1O (nonaromatic ring conformer: 79.32839560801101 kcal/mol)

$$$$
52944904
     RDKit          3D

 73 76  0  0  0  0  0  0  0  0999 V2000
   -0.3152   -2.8418   -3.9546 C   0  0  0  0  0  0  0  0  0  0  0  0
    0.7486   -2.2117   -3.2777 O   0  0  0  0  0  0  0  0  0  0  0  0
    0.6259   -0.8003   -3.3527 C   0  0  0  0  0  0  0  0  0  0  0  0
    0.3089   -0.2093   -1.9690 C   0  0  1  0  0  0  0  0  0  0  0  0
   -0.9584   -0.6884   -1.5565 O   0  0  0  0  0  0  0  0  0  0  0  0
   -1.3805   -0.0440   -0.3683 C   0  0  1  0  0  0  0  0  0  0  0  0
   -2.6831   -0.5093   -0.0612 O   0  0  0  0  0  0  0  0  0  0  0  0
   -3.6610    0.4330   -0.4455 C   0  0  0  0  0  0  0  0  0  0  0  0
   -5.0443   -0.1665   -0.2068 C   0  0  0  0  0  0  0  0  0  0  0  0
   -6.1217    0.8521   -0.4671 C   0  0  0  0  0  0  0  0  0  0  0  0
   -6.6432    1.0212   -1.7609 C   0  0  0  0  0  0  0  0  0  0  0  0
   -7.6257    1.9871   -2.0037 C   0  0  0  0  0  0  0  0  0  0  0  0
   -8.0860    2.7955   -0.9604 C   0  0  0  0  0  0  0  0  0  0  0  0
   -7.5611    2.6434    0.3262 C   0  0  0  0  0  0  0  0  0  0  0  0
   -6.5789    1.6782    0.5733 C   0  0  0  0  0  0  0  0  0  0  0  0
   -0.4384   -0.4170    0.8059 C   0  0  2  0  0  0  0  0  0  0  0  0
   -0.8868    0.2197    2.0771 N   0  0  0  0  0  4  0  0  0  0  0  0
   -1.6579   -0.6990    2.9384 C   0  0  0  0  0  0  0  0  0  0  0  0
   -0.7382   -1.6327    3.7487 C   0  0  0  0  0  0  0  0  0  0  0  0
   -1.5228   -2.5415    4.5850 N   0  0  0  0  0  4  0  0  0  0  0  0
    1.0133   -0.0066    0.4516 C   0  0  1  0  0  0  0  0  0  0  0  0
    1.8954   -0.5493    1.4269 O   0  0  0  0  0  0  0  0  0  0  0  0
    2.6615    0.4478    2.0794 C   0  0  0  0  0  0  0  0  0  0  0  0
    3.9150    0.7468    1.3040 C   0  0  0  0  0  0  0  0  0  0  0  0
    4.0797    1.9842    0.6621 C   0  0  0  0  0  0  0  0  0  0  0  0
    5.2382    2.2513   -0.0723 C   0  0  0  0  0  0  0  0  0  0  0  0
    6.2471    1.2825   -0.1782 C   0  0  0  0  0  0  0  0  0  0  0  0
    7.4173    1.5408   -0.9098 C   0  0  0  0  0  0  0  0  0  0  0  0
    8.4126    0.5640   -1.0091 C   0  0  0  0  0  0  0  0  0  0  0  0
    8.2489   -0.6730   -0.3818 C   0  0  0  0  0  0  0  0  0  0  0  0
    7.0893   -0.9422    0.3509 C   0  0  0  0  0  0  0  0  0  0  0  0
    6.0830    0.0295    0.4598 C   0  0  0  0  0  0  0  0  0  0  0  0
    4.9169   -0.2297    1.1950 C   0  0  0  0  0  0  0  0  0  0  0  0
    1.3911   -0.5801   -0.9269 C   0  0  2  0  0  0  0  0  0  0  0  0
    2.6332   -0.0538   -1.3209 O   0  0  0  0  0  0  0  0  0  0  0  0
   -1.2985   -2.5444   -3.5256 H   0  0  0  0  0  0  0  0  0  0  0  0
   -0.2785   -2.6167   -5.0436 H   0  0  0  0  0  0  0  0  0  0  0  0
   -0.2131   -3.9401   -3.8310 H   0  0  0  0  0  0  0  0  0  0  0  0
    1.5914   -0.3869   -3.7143 H   0  0  0  0  0  0  0  0  0  0  0  0
   -0.1433   -0.4440   -4.0810 H   0  0  0  0  0  0  0  0  0  0  0  0
    0.2821    0.8998   -2.0941 H   0  0  0  0  0  0  0  0  0  0  0  0
   -1.3439    1.0699   -0.4982 H   0  0  0  0  0  0  0  0  0  0  0  0
   -3.5570    1.3560    0.1706 H   0  0  0  0  0  0  0  0  0  0  0  0
   -3.5600    0.6890   -1.5261 H   0  0  0  0  0  0  0  0  0  0  0  0
   -5.1125   -0.5289    0.8433 H   0  0  0  0  0  0  0  0  0  0  0  0
   -5.1846   -1.0496   -0.8681 H   0  0  0  0  0  0  0  0  0  0  0  0
   -6.2891    0.4064   -2.5792 H   0  0  0  0  0  0  0  0  0  0  0  0
   -8.0288    2.1112   -3.0010 H   0  0  0  0  0  0  0  0  0  0  0  0
   -8.8494    3.5389   -1.1498 H   0  0  0  0  0  0  0  0  0  0  0  0
   -7.9155    3.2714    1.1334 H   0  0  0  0  0  0  0  0  0  0  0  0
   -6.1753    1.5737    1.5738 H   0  0  0  0  0  0  0  0  0  0  0  0
   -0.4489   -1.5283    0.8949 H   0  0  0  0  0  0  0  0  0  0  0  0
   -0.0802    0.5880    2.6304 H   0  0  0  0  0  0  0  0  0  0  0  0
   -1.4857    1.0543    1.8725 H   0  0  0  0  0  0  0  0  0  0  0  0
   -2.2647   -0.1003    3.6547 H   0  0  0  0  0  0  0  0  0  0  0  0
   -2.3728   -1.3012    2.3367 H   0  0  0  0  0  0  0  0  0  0  0  0
   -0.0969   -2.2314    3.0654 H   0  0  0  0  0  0  0  0  0  0  0  0
   -0.0705   -1.0229    4.3976 H   0  0  0  0  0  0  0  0  0  0  0  0
   -0.8706   -3.1667    5.1116 H   0  0  0  0  0  0  0  0  0  0  0  0
   -2.0972   -1.9951    5.2685 H   0  0  0  0  0  0  0  0  0  0  0  0
   -2.1462   -3.1316    3.9862 H   0  0  0  0  0  0  0  0  0  0  0  0
    1.0506    1.1081    0.3758 H   0  0  0  0  0  0  0  0  0  0  0  0
    2.9565    0.0502    3.0732 H   0  0  0  0  0  0  0  0  0  0  0  0
    2.0823    1.3735    2.3000 H   0  0  0  0  0  0  0  0  0  0  0  0
    3.3087    2.7427    0.7276 H   0  0  0  0  0  0  0  0  0  0  0  0
    5.3449    3.2148   -0.5567 H   0  0  0  0  0  0  0  0  0  0  0  0
    7.5621    2.4944   -1.4044 H   0  0  0  0  0  0  0  0  0  0  0  0
    9.3126    0.7670   -1.5744 H   0  0  0  0  0  0  0  0  0  0  0  0
    9.0221   -1.4248   -0.4633 H   0  0  0  0  0  0  0  0  0  0  0  0
    6.9788   -1.9070    0.8313 H   0  0  0  0  0  0  0  0  0  0  0  0
    4.7830   -1.1898    1.6820 H   0  0  0  0  0  0  0  0  0  0  0  0
    1.4450   -1.6926   -0.8332 H   0  0  0  0  0  0  0  0  0  0  0  0
    3.1402   -0.7877   -1.7569 H   0  0  0  0  0  0  0  0  0  0  0  0
  1  2  1  0
  2  3  1  0
  3  4  1  0
  4  5  1  0
  5  6  1  0
  6  7  1  0
  7  8  1  0
  8  9  1  0
  9 10  1  0
 10 11  2  0
 11 12  1  0
 12 13  2  0
 13 14  1  0
 14 15  2  0
  6 16  1  0
 16 17  1  0
 17 18  1  0
 18 19  1  0
 19 20  1  0
 16 21  1  0
 21 22  1  0
 22 23  1  0
 23 24  1  0
 24 25  2  0
 25 26  1  0
 26 27  2  0
 27 28  1  0
 28 29  2  0
 29 30  1  0
 30 31  2  0
 31 32  1  0
 32 33  2  0
 21 34  1  0
 34 35  1  0
 34  4  1  0
 15 10  1  0
 33 24  1  0
 32 27  1  0
  1 36  1  0
  1 37  1  0
  1 38  1  0
  3 39  1  0
  3 40  1  0
  4 41  1  6
  6 42  1  6
  8 43  1  0
  8 44  1  0
  9 45  1  0
  9 46  1  0
 11 47  1  0
 12 48  1  0
 13 49  1  0
 14 50  1  0
 15 51  1  0
 16 52  1  1
 17 53  1  0
 17 54  1  0
 18 55  1  0
 18 56  1  0
 19 57  1  0
 19 58  1  0
 20 59  1  0
 20 60  1  0
 20 61  1  0
 21 62  1  6
 23 63  1  0
 23 64  1  0
 25 65  1  0
 26 66  1  0
 28 67  1  0
 29 68  1  0
 30 69  1  0
 31 70  1  0
 33 71  1  0
 34 72  1  1
 35 73  1  0
M  CHG  2  17   1  20   1
M  END
>  <UniqueID>  (52) 
51

>  <SMILES>  (52) 
COC[C@H]1O[C@@H](OCCc2ccccc2)[C@H]([NH2+]CC[NH3+])[C@@H](OCc2ccc3ccccc3c2)[C@@H]1O

>  <Energy>  (52) 
84.5942877099844

>  <Genealogy>  (52) 
COC[C@H]1OC(OCCc2ccccc2)[C@H]([NH2+]CC[NH3+])C(OCc2ccc3ccccc3c2)[C@@H]1O (protonated)
COC[C@H]1O[C@@H](OCCc2ccccc2)[C@H]([NH2+]CC[NH3+])[C@@H](OCc2ccc3ccccc3c2)[C@@H]1O (chirality)
COC[C@H]1O[C@@H](OCCc2ccccc2)[C@H]([NH2+]CC[NH3+])[C@@H](OCc2ccc3ccccc3c2)[C@@H]1O (3D coordinates assigned)
COC[C@H]1O[C@@H](OCCc2ccccc2)[C@H]([NH2+]CC[NH3+])[C@@H](OCc2ccc3ccccc3c2)[C@@H]1O (nonaromatic ring conformer: 84.5942877099844 kcal/mol)

$$$$
52944903
     RDKit          3D

 68 71  0  0  0  0  0  0  0  0999 V2000
    3.7625   -2.3261   -2.6809 C   0  0  0  0  0  0  0  0  0  0  0  0
    2.3682   -2.5370   -2.6796 O   0  0  0  0  0  0  0  0  0  0  0  0
    1.9054   -2.7872   -1.3634 C   0  0  0  0  0  0  0  0  0  0  0  0
    0.8861   -1.7191   -0.9435 C   0  0  1  0  0  0  0  0  0  0  0  0
    1.4781   -0.4407   -1.1127 O   0  0  0  0  0  0  0  0  0  0  0  0
    0.6579    0.5921   -0.5866 C   0  0  2  0  0  0  0  0  0  0  0  0
    0.4701    0.4275    0.8150 O   0  0  0  0  0  0  0  0  0  0  0  0
    1.4852    1.0795    1.5581 C   0  0  0  0  0  0  0  0  0  0  0  0
    2.8376    0.4444    1.3439 C   0  0  0  0  0  0  0  0  0  0  0  0
    3.8478    1.1463    0.6665 C   0  0  0  0  0  0  0  0  0  0  0  0
    5.0736    0.5348    0.3907 C   0  0  0  0  0  0  0  0  0  0  0  0
    5.3016   -0.7930    0.7770 C   0  0  0  0  0  0  0  0  0  0  0  0
    6.5118   -1.4307    0.4656 C   0  0  0  0  0  0  0  0  0  0  0  0
    6.7165   -2.7633    0.8348 C   0  0  0  0  0  0  0  0  0  0  0  0
    5.7225   -3.4646    1.5221 C   0  0  0  0  0  0  0  0  0  0  0  0
    4.5142   -2.8396    1.8418 C   0  0  0  0  0  0  0  0  0  0  0  0
    4.2914   -1.5044    1.4701 C   0  0  0  0  0  0  0  0  0  0  0  0
    3.0666   -0.8781    1.7531 C   0  0  0  0  0  0  0  0  0  0  0  0
   -0.7067    0.6549   -1.3215 C   0  0  2  0  0  0  0  0  0  0  0  0
   -1.5755    1.6847   -0.7135 N   0  0  0  0  0  0  0  0  0  0  0  0
   -2.5200    2.2479   -1.6896 C   0  0  0  0  0  0  0  0  0  0  0  0
   -3.6005    3.0616   -0.9738 C   0  0  0  0  0  0  0  0  0  0  0  0
   -3.0201    4.2321   -0.3208 N   0  0  0  0  0  0  0  0  0  0  0  0
   -1.4037   -0.7255   -1.2966 C   0  0  2  0  0  0  0  0  0  0  0  0
   -1.8391   -1.0171    0.0244 O   0  0  0  0  0  0  0  0  0  0  0  0
   -3.2475   -1.0230    0.1136 C   0  0  0  0  0  0  0  0  0  0  0  0
   -3.6373   -1.0045    1.5618 C   0  0  0  0  0  0  0  0  0  0  0  0
   -4.1092   -2.1666    2.1938 C   0  0  0  0  0  0  0  0  0  0  0  0
   -4.4415   -2.1428    3.5524 C   0  0  0  0  0  0  0  0  0  0  0  0
   -4.2957   -0.9638    4.2894 C   0  0  0  0  0  0  0  0  0  0  0  0
   -3.8162    0.1935    3.6693 C   0  0  0  0  0  0  0  0  0  0  0  0
   -3.4835    0.1738    2.3110 C   0  0  0  0  0  0  0  0  0  0  0  0
   -0.4198   -1.8158   -1.7593 C   0  0  2  0  0  0  0  0  0  0  0  0
   -0.9997   -3.0844   -1.5909 O   0  0  0  0  0  0  0  0  0  0  0  0
    4.0909   -2.1357   -3.7236 H   0  0  0  0  0  0  0  0  0  0  0  0
    4.0310   -1.4365   -2.0667 H   0  0  0  0  0  0  0  0  0  0  0  0
    4.2989   -3.2292   -2.3156 H   0  0  0  0  0  0  0  0  0  0  0  0
    1.4317   -3.7926   -1.3407 H   0  0  0  0  0  0  0  0  0  0  0  0
    2.7115   -2.8195   -0.5922 H   0  0  0  0  0  0  0  0  0  0  0  0
    0.6612   -1.9113    0.1313 H   0  0  0  0  0  0  0  0  0  0  0  0
    1.1649    1.5585   -0.8211 H   0  0  0  0  0  0  0  0  0  0  0  0
    1.2318    0.9922    2.6350 H   0  0  0  0  0  0  0  0  0  0  0  0
    1.4984    2.1714    1.3376 H   0  0  0  0  0  0  0  0  0  0  0  0
    3.6819    2.1644    0.3361 H   0  0  0  0  0  0  0  0  0  0  0  0
    5.8354    1.0926   -0.1408 H   0  0  0  0  0  0  0  0  0  0  0  0
    7.2913   -0.9048   -0.0731 H   0  0  0  0  0  0  0  0  0  0  0  0
    7.6454   -3.2553    0.5819 H   0  0  0  0  0  0  0  0  0  0  0  0
    5.8871   -4.4969    1.8018 H   0  0  0  0  0  0  0  0  0  0  0  0
    3.7500   -3.4032    2.3641 H   0  0  0  0  0  0  0  0  0  0  0  0
    2.2805   -1.4247    2.2628 H   0  0  0  0  0  0  0  0  0  0  0  0
   -0.4862    0.9142   -2.3840 H   0  0  0  0  0  0  0  0  0  0  0  0
   -0.9841    2.4776   -0.3705 H   0  0  0  0  0  0  0  0  0  0  0  0
   -1.9822    2.8948   -2.4173 H   0  0  0  0  0  0  0  0  0  0  0  0
   -3.0274    1.4394   -2.2573 H   0  0  0  0  0  0  0  0  0  0  0  0
   -4.0981    2.4212   -0.2128 H   0  0  0  0  0  0  0  0  0  0  0  0
   -4.3696    3.3841   -1.7112 H   0  0  0  0  0  0  0  0  0  0  0  0
   -2.7296    4.9099   -1.0631 H   0  0  0  0  0  0  0  0  0  0  0  0
   -3.7790    4.6954    0.2297 H   0  0  0  0  0  0  0  0  0  0  0  0
   -2.2325   -0.7189   -2.0458 H   0  0  0  0  0  0  0  0  0  0  0  0
   -3.6968   -0.1280   -0.3731 H   0  0  0  0  0  0  0  0  0  0  0  0
   -3.6503   -1.9308   -0.3869 H   0  0  0  0  0  0  0  0  0  0  0  0
   -4.2204   -3.0890    1.6380 H   0  0  0  0  0  0  0  0  0  0  0  0
   -4.8103   -3.0392    4.0354 H   0  0  0  0  0  0  0  0  0  0  0  0
   -4.5510   -0.9489    5.3407 H   0  0  0  0  0  0  0  0  0  0  0  0
   -3.6982    1.1056    4.2404 H   0  0  0  0  0  0  0  0  0  0  0  0
   -3.1016    1.0737    1.8440 H   0  0  0  0  0  0  0  0  0  0  0  0
   -0.1776   -1.6520   -2.8364 H   0  0  0  0  0  0  0  0  0  0  0  0
   -1.6745   -3.1875   -2.3121 H   0  0  0  0  0  0  0  0  0  0  0  0
  1  2  1  0
  2  3  1  0
  3  4  1  0
  4  5  1  0
  5  6  1  0
  6  7  1  0
  7  8  1  0
  8  9  1  0
  9 10  2  0
 10 11  1  0
 11 12  2  0
 12 13  1  0
 13 14  2  0
 14 15  1  0
 15 16  2  0
 16 17  1  0
 17 18  2  0
  6 19  1  0
 19 20  1  0
 20 21  1  0
 21 22  1  0
 22 23  1  0
 19 24  1  0
 24 25  1  0
 25 26  1  0
 26 27  1  0
 27 28  2  0
 28 29  1  0
 29 30  2  0
 30 31  1  0
 31 32  2  0
 24 33  1  0
 33 34  1  0
 33  4  1  0
 18  9  1  0
 32 27  1  0
 17 12  1  0
  1 35  1  0
  1 36  1  0
  1 37  1  0
  3 38  1  0
  3 39  1  0
  4 40  1  1
  6 41  1  1
  8 42  1  0
  8 43  1  0
 10 44  1  0
 11 45  1  0
 13 46  1  0
 14 47  1  0
 15 48  1  0
 16 49  1  0
 18 50  1  0
 19 51  1  6
 20 52  1  0
 21 53  1  0
 21 54  1  0
 22 55  1  0
 22 56  1  0
 23 57  1  0
 23 58  1  0
 24 59  1  6
 26 60  1  0
 26 61  1  0
 28 62  1  0
 29 63  1  0
 30 64  1  0
 31 65  1  0
 32 66  1  0
 33 67  1  6
 34 68  1  0
M  END
>  <UniqueID>  (53) 
52

>  <SMILES>  (53) 
COC[C@H]1O[C@H](OCc2ccc3ccccc3c2)[C@H](NCCN)[C@H](OCc2ccccc2)[C@@H]1O

>  <Energy>  (53) 
76.17060365009463

>  <Genealogy>  (53) 
COC[C@H]1O[C@H](OCc2ccc3ccccc3c2)[C@H](NCCN)[C@H](OCc2ccccc2)[C@@H]1O (chirality)
COC[C@H]1O[C@H](OCc2ccc3ccccc3c2)[C@H](NCCN)[C@H](OCc2ccccc2)[C@@H]1O (3D coordinates assigned)
COC[C@H]1O[C@H](OCc2ccc3ccccc3c2)[C@H](NCCN)[C@H](OCc2ccccc2)[C@@H]1O (nonaromatic ring conformer: 76.17060365009463 kcal/mol)

$$$$
52944903
     RDKit          3D

 68 71  0  0  0  0  0  0  0  0999 V2000
   -2.4057   -1.2214    2.9134 C   0  0  0  0  0  0  0  0  0  0  0  0
   -2.0607   -1.9266    1.7404 O   0  0  0  0  0  0  0  0  0  0  0  0
   -0.6815   -1.7711    1.4571 C   0  0  0  0  0  0  0  0  0  0  0  0
   -0.4519   -0.6534    0.4242 C   0  0  1  0  0  0  0  0  0  0  0  0
    0.9365   -0.3936    0.3717 O   0  0  0  0  0  0  0  0  0  0  0  0
    1.2048    0.7577   -0.4094 C   0  0  1  0  0  0  0  0  0  0  0  0
    2.5907    1.0473   -0.3059 O   0  0  0  0  0  0  0  0  0  0  0  0
    2.8634    1.8901    0.8021 C   0  0  0  0  0  0  0  0  0  0  0  0
    2.5625    1.2095    2.1161 C   0  0  0  0  0  0  0  0  0  0  0  0
    3.3668    0.1481    2.5571 C   0  0  0  0  0  0  0  0  0  0  0  0
    3.0244   -0.5700    3.7061 C   0  0  0  0  0  0  0  0  0  0  0  0
    1.8639   -0.2431    4.4223 C   0  0  0  0  0  0  0  0  0  0  0  0
    1.4922   -0.9783    5.5588 C   0  0  0  0  0  0  0  0  0  0  0  0
    0.3227   -0.6537    6.2524 C   0  0  0  0  0  0  0  0  0  0  0  0
   -0.4799    0.4062    5.8216 C   0  0  0  0  0  0  0  0  0  0  0  0
   -0.1195    1.1481    4.6938 C   0  0  0  0  0  0  0  0  0  0  0  0
    1.0498    0.8299    3.9857 C   0  0  0  0  0  0  0  0  0  0  0  0
    1.4078    1.5512    2.8384 C   0  0  0  0  0  0  0  0  0  0  0  0
    0.8583    0.4696   -1.8898 C   0  0  2  0  0  0  0  0  0  0  0  0
    1.0927    1.6614   -2.7376 N   0  0  0  0  0  0  0  0  0  0  0  0
    1.7837    1.3151   -3.9880 C   0  0  0  0  0  0  0  0  0  0  0  0
    1.6712    2.4566   -5.0103 C   0  0  0  0  0  0  0  0  0  0  0  0
    2.3902    3.6582   -4.5874 N   0  0  0  0  0  0  0  0  0  0  0  0
   -0.6291    0.0588   -1.9931 C   0  0  1  0  0  0  0  0  0  0  0  0
   -0.8980   -0.4229   -3.3028 O   0  0  0  0  0  0  0  0  0  0  0  0
   -1.7096    0.4732   -4.0397 C   0  0  0  0  0  0  0  0  0  0  0  0
   -3.1653    0.2217   -3.7511 C   0  0  0  0  0  0  0  0  0  0  0  0
   -3.8985    1.1099   -2.9470 C   0  0  0  0  0  0  0  0  0  0  0  0
   -5.2392    0.8464   -2.6500 C   0  0  0  0  0  0  0  0  0  0  0  0
   -5.8543   -0.3055   -3.1482 C   0  0  0  0  0  0  0  0  0  0  0  0
   -5.1291   -1.1962   -3.9450 C   0  0  0  0  0  0  0  0  0  0  0  0
   -3.7882   -0.9367   -4.2429 C   0  0  0  0  0  0  0  0  0  0  0  0
   -0.9527   -1.0585   -0.9804 C   0  0  2  0  0  0  0  0  0  0  0  0
   -2.3403   -1.2749   -0.9441 O   0  0  0  0  0  0  0  0  0  0  0  0
   -2.1268   -0.1478    2.8438 H   0  0  0  0  0  0  0  0  0  0  0  0
   -1.9294   -1.6845    3.8053 H   0  0  0  0  0  0  0  0  0  0  0  0
   -3.5050   -1.2782    3.0502 H   0  0  0  0  0  0  0  0  0  0  0  0
   -0.3016   -2.7308    1.0455 H   0  0  0  0  0  0  0  0  0  0  0  0
   -0.0652   -1.5750    2.3678 H   0  0  0  0  0  0  0  0  0  0  0  0
   -1.0034    0.2497    0.7767 H   0  0  0  0  0  0  0  0  0  0  0  0
    0.5818    1.6265   -0.0757 H   0  0  0  0  0  0  0  0  0  0  0  0
    2.3239    2.8606    0.7080 H   0  0  0  0  0  0  0  0  0  0  0  0
    3.9440    2.1450    0.7805 H   0  0  0  0  0  0  0  0  0  0  0  0
    4.2470   -0.1382    1.9950 H   0  0  0  0  0  0  0  0  0  0  0  0
    3.6535   -1.3930    4.0223 H   0  0  0  0  0  0  0  0  0  0  0  0
    2.0996   -1.8055    5.9053 H   0  0  0  0  0  0  0  0  0  0  0  0
    0.0360   -1.2263    7.1250 H   0  0  0  0  0  0  0  0  0  0  0  0
   -1.3855    0.6518    6.3616 H   0  0  0  0  0  0  0  0  0  0  0  0
   -0.7568    1.9631    4.3726 H   0  0  0  0  0  0  0  0  0  0  0  0
    0.7727    2.3557    2.4873 H   0  0  0  0  0  0  0  0  0  0  0  0
    1.4908   -0.3927   -2.2112 H   0  0  0  0  0  0  0  0  0  0  0  0
    1.6862    2.3610   -2.2342 H   0  0  0  0  0  0  0  0  0  0  0  0
    2.8543    1.0884   -3.7849 H   0  0  0  0  0  0  0  0  0  0  0  0
    1.3243    0.4122   -4.4468 H   0  0  0  0  0  0  0  0  0  0  0  0
    2.0958    2.1118   -5.9772 H   0  0  0  0  0  0  0  0  0  0  0  0
    0.6013    2.7035   -5.1815 H   0  0  0  0  0  0  0  0  0  0  0  0
    3.3562    3.3898   -4.2851 H   0  0  0  0  0  0  0  0  0  0  0  0
    1.8995    4.0822   -3.7669 H   0  0  0  0  0  0  0  0  0  0  0  0
   -1.2516    0.9426   -1.7058 H   0  0  0  0  0  0  0  0  0  0  0  0
   -1.5289    0.2894   -5.1202 H   0  0  0  0  0  0  0  0  0  0  0  0
   -1.4333    1.5404   -3.8738 H   0  0  0  0  0  0  0  0  0  0  0  0
   -3.4331    2.0020   -2.5472 H   0  0  0  0  0  0  0  0  0  0  0  0
   -5.7997    1.5333   -2.0288 H   0  0  0  0  0  0  0  0  0  0  0  0
   -6.8920   -0.5087   -2.9164 H   0  0  0  0  0  0  0  0  0  0  0  0
   -5.6049   -2.0900   -4.3268 H   0  0  0  0  0  0  0  0  0  0  0  0
   -3.2328   -1.6383   -4.8532 H   0  0  0  0  0  0  0  0  0  0  0  0
   -0.4230   -1.9924   -1.2884 H   0  0  0  0  0  0  0  0  0  0  0  0
   -2.5550   -1.8983   -1.6870 H   0  0  0  0  0  0  0  0  0  0  0  0
  1  2  1  0
  2  3  1  0
  3  4  1  0
  4  5  1  0
  5  6  1  0
  6  7  1  0
  7  8  1  0
  8  9  1  0
  9 10  2  0
 10 11  1  0
 11 12  2  0
 12 13  1  0
 13 14  2  0
 14 15  1  0
 15 16  2  0
 16 17  1  0
 17 18  2  0
  6 19  1  0
 19 20  1  0
 20 21  1  0
 21 22  1  0
 22 23  1  0
 19 24  1  0
 24 25  1  0
 25 26  1  0
 26 27  1  0
 27 28  2  0
 28 29  1  0
 29 30  2  0
 30 31  1  0
 31 32  2  0
 24 33  1  0
 33 34  1  0
 33  4  1  0
 18  9  1  0
 32 27  1  0
 17 12  1  0
  1 35  1  0
  1 36  1  0
  1 37  1  0
  3 38  1  0
  3 39  1  0
  4 40  1  1
  6 41  1  1
  8 42  1  0
  8 43  1  0
 10 44  1  0
 11 45  1  0
 13 46  1  0
 14 47  1  0
 15 48  1  0
 16 49  1  0
 18 50  1  0
 19 51  1  6
 20 52  1  0
 21 53  1  0
 21 54  1  0
 22 55  1  0
 22 56  1  0
 23 57  1  0
 23 58  1  0
 24 59  1  1
 26 60  1  0
 26 61  1  0
 28 62  1  0
 29 63  1  0
 30 64  1  0
 31 65  1  0
 32 66  1  0
 33 67  1  6
 34 68  1  0
M  END
>  <UniqueID>  (54) 
53

>  <SMILES>  (54) 
COC[C@H]1O[C@@H](OCc2ccc3ccccc3c2)[C@H](NCCN)[C@@H](OCc2ccccc2)[C@@H]1O

>  <Energy>  (54) 
77.29569135841591

>  <Genealogy>  (54) 
COC[C@H]1O[C@@H](OCc2ccc3ccccc3c2)[C@H](NCCN)[C@@H](OCc2ccccc2)[C@@H]1O (chirality)
COC[C@H]1O[C@@H](OCc2ccc3ccccc3c2)[C@H](NCCN)[C@@H](OCc2ccccc2)[C@@H]1O (3D coordinates assigned)
COC[C@H]1O[C@@H](OCc2ccc3ccccc3c2)[C@H](NCCN)[C@@H](OCc2ccccc2)[C@@H]1O (nonaromatic ring conformer: 77.29569135841591 kcal/mol)

$$$$
52944903
     RDKit          3D

 69 72  0  0  0  0  0  0  0  0999 V2000
    2.1904    4.3056    4.1742 C   0  0  0  0  0  0  0  0  0  0  0  0
    1.9919    3.2146    3.3041 O   0  0  0  0  0  0  0  0  0  0  0  0
    0.6157    3.0986    3.0040 C   0  0  0  0  0  0  0  0  0  0  0  0
    0.3798    1.8974    2.0781 C   0  0  1  0  0  0  0  0  0  0  0  0
    1.1266    2.0920    0.8922 O   0  0  0  0  0  0  0  0  0  0  0  0
    0.8034    1.1072   -0.0733 C   0  0  1  0  0  0  0  0  0  0  0  0
    1.5044    1.4213   -1.2623 O   0  0  0  0  0  0  0  0  0  0  0  0
    0.7336    2.2457   -2.1146 C   0  0  0  0  0  0  0  0  0  0  0  0
   -0.0908    1.3928   -3.0408 C   0  0  0  0  0  0  0  0  0  0  0  0
    0.5364    0.6724   -4.0687 C   0  0  0  0  0  0  0  0  0  0  0  0
   -0.2053   -0.1730   -4.8969 C   0  0  0  0  0  0  0  0  0  0  0  0
   -1.5861   -0.3167   -4.7021 C   0  0  0  0  0  0  0  0  0  0  0  0
   -2.3396   -1.1717   -5.5214 C   0  0  0  0  0  0  0  0  0  0  0  0
   -3.7151   -1.3096   -5.3140 C   0  0  0  0  0  0  0  0  0  0  0  0
   -4.3471   -0.5982   -4.2905 C   0  0  0  0  0  0  0  0  0  0  0  0
   -3.6080    0.2562   -3.4672 C   0  0  0  0  0  0  0  0  0  0  0  0
   -2.2263    0.4043   -3.6649 C   0  0  0  0  0  0  0  0  0  0  0  0
   -1.4732    1.2541   -2.8410 C   0  0  0  0  0  0  0  0  0  0  0  0
    1.2423   -0.3023    0.4170 C   0  0  2  0  0  0  0  0  0  0  0  0
    0.9079   -1.3493   -0.5879 N   0  0  0  0  0  4  0  0  0  0  0  0
    2.0250   -1.6239   -1.5095 C   0  0  0  0  0  0  0  0  0  0  0  0
    1.6290   -2.6815   -2.5471 C   0  0  0  0  0  0  0  0  0  0  0  0
    2.7200   -2.8924   -3.4929 N   0  0  0  0  0  0  0  0  0  0  0  0
    0.5592   -0.6026    1.7810 C   0  0  1  0  0  0  0  0  0  0  0  0
    1.1316   -1.7768    2.3453 O   0  0  0  0  0  0  0  0  0  0  0  0
    0.1742   -2.8030    2.5463 C   0  0  0  0  0  0  0  0  0  0  0  0
   -0.5273   -2.6312    3.8653 C   0  0  0  0  0  0  0  0  0  0  0  0
    0.1616   -2.8740    5.0648 C   0  0  0  0  0  0  0  0  0  0  0  0
   -0.4763   -2.6804    6.2939 C   0  0  0  0  0  0  0  0  0  0  0  0
   -1.8025   -2.2411    6.3333 C   0  0  0  0  0  0  0  0  0  0  0  0
   -2.4931   -1.9939    5.1436 C   0  0  0  0  0  0  0  0  0  0  0  0
   -1.8591   -2.1861    3.9123 C   0  0  0  0  0  0  0  0  0  0  0  0
    0.7935    0.5721    2.7517 C   0  0  2  0  0  0  0  0  0  0  0  0
    0.0327    0.3840    3.9181 O   0  0  0  0  0  0  0  0  0  0  0  0
    1.6690    4.1460    5.1443 H   0  0  0  0  0  0  0  0  0  0  0  0
    3.2754    4.3948    4.3872 H   0  0  0  0  0  0  0  0  0  0  0  0
    1.8604    5.2603    3.7073 H   0  0  0  0  0  0  0  0  0  0  0  0
    0.2558    4.0127    2.4779 H   0  0  0  0  0  0  0  0  0  0  0  0
    0.0128    2.9672    3.9321 H   0  0  0  0  0  0  0  0  0  0  0  0
   -0.7134    1.8754    1.8538 H   0  0  0  0  0  0  0  0  0  0  0  0
   -0.3028    1.0754   -0.2427 H   0  0  0  0  0  0  0  0  0  0  0  0
    0.1054    2.9794   -1.5555 H   0  0  0  0  0  0  0  0  0  0  0  0
    1.4314    2.8562   -2.7260 H   0  0  0  0  0  0  0  0  0  0  0  0
    1.6053    0.7578   -4.2208 H   0  0  0  0  0  0  0  0  0  0  0  0
    0.3018   -0.7223   -5.6812 H   0  0  0  0  0  0  0  0  0  0  0  0
   -1.8659   -1.7318   -6.3190 H   0  0  0  0  0  0  0  0  0  0  0  0
   -4.2928   -1.9700   -5.9479 H   0  0  0  0  0  0  0  0  0  0  0  0
   -5.4124   -0.7094   -4.1343 H   0  0  0  0  0  0  0  0  0  0  0  0
   -4.1146    0.7985   -2.6778 H   0  0  0  0  0  0  0  0  0  0  0  0
   -1.9580    1.7994   -2.0392 H   0  0  0  0  0  0  0  0  0  0  0  0
    2.3427   -0.2758    0.5993 H   0  0  0  0  0  0  0  0  0  0  0  0
    0.6833   -2.2524   -0.1141 H   0  0  0  0  0  0  0  0  0  0  0  0
    0.0595   -1.0723   -1.1363 H   0  0  0  0  0  0  0  0  0  0  0  0
    2.9040   -1.9968   -0.9366 H   0  0  0  0  0  0  0  0  0  0  0  0
    2.3288   -0.7039   -2.0487 H   0  0  0  0  0  0  0  0  0  0  0  0
    1.3805   -3.6392   -2.0370 H   0  0  0  0  0  0  0  0  0  0  0  0
    0.7294   -2.3358   -3.1014 H   0  0  0  0  0  0  0  0  0  0  0  0
    2.3800   -3.5535   -4.2282 H   0  0  0  0  0  0  0  0  0  0  0  0
    3.4973   -3.3805   -2.9914 H   0  0  0  0  0  0  0  0  0  0  0  0
   -0.5424   -0.6782    1.6053 H   0  0  0  0  0  0  0  0  0  0  0  0
    0.7146   -3.7730    2.5636 H   0  0  0  0  0  0  0  0  0  0  0  0
   -0.5543   -2.8913    1.7081 H   0  0  0  0  0  0  0  0  0  0  0  0
    1.1926   -3.2050    5.0467 H   0  0  0  0  0  0  0  0  0  0  0  0
    0.0588   -2.8672    7.2160 H   0  0  0  0  0  0  0  0  0  0  0  0
   -2.2942   -2.0900    7.2855 H   0  0  0  0  0  0  0  0  0  0  0  0
   -3.5190   -1.6502    5.1755 H   0  0  0  0  0  0  0  0  0  0  0  0
   -2.4032   -1.9814    2.9985 H   0  0  0  0  0  0  0  0  0  0  0  0
    1.8832    0.6226    2.9947 H   0  0  0  0  0  0  0  0  0  0  0  0
    0.6344   -0.0142    4.5992 H   0  0  0  0  0  0  0  0  0  0  0  0
  1  2  1  0
  2  3  1  0
  3  4  1  0
  4  5  1  0
  5  6  1  0
  6  7  1  0
  7  8  1  0
  8  9  1  0
  9 10  2  0
 10 11  1  0
 11 12  2  0
 12 13  1  0
 13 14  2  0
 14 15  1  0
 15 16  2  0
 16 17  1  0
 17 18  2  0
  6 19  1  0
 19 20  1  0
 20 21  1  0
 21 22  1  0
 22 23  1  0
 19 24  1  0
 24 25  1  0
 25 26  1  0
 26 27  1  0
 27 28  2  0
 28 29  1  0
 29 30  2  0
 30 31  1  0
 31 32  2  0
 24 33  1  0
 33 34  1  0
 33  4  1  0
 18  9  1  0
 32 27  1  0
 17 12  1  0
  1 35  1  0
  1 36  1  0
  1 37  1  0
  3 38  1  0
  3 39  1  0
  4 40  1  6
  6 41  1  6
  8 42  1  0
  8 43  1  0
 10 44  1  0
 11 45  1  0
 13 46  1  0
 14 47  1  0
 15 48  1  0
 16 49  1  0
 18 50  1  0
 19 51  1  1
 20 52  1  0
 20 53  1  0
 21 54  1  0
 21 55  1  0
 22 56  1  0
 22 57  1  0
 23 58  1  0
 23 59  1  0
 24 60  1  6
 26 61  1  0
 26 62  1  0
 28 63  1  0
 29 64  1  0
 30 65  1  0
 31 66  1  0
 32 67  1  0
 33 68  1  1
 34 69  1  0
M  CHG  1  20   1
M  END
>  <UniqueID>  (55) 
54

>  <SMILES>  (55) 
COC[C@H]1O[C@@H](OCc2ccc3ccccc3c2)[C@H]([NH2+]CCN)[C@@H](OCc2ccccc2)[C@@H]1O

>  <Energy>  (55) 
77.75381224744022

>  <Genealogy>  (55) 
COC[C@H]1OC(OCc2ccc3ccccc3c2)[C@H]([NH2+]CCN)C(OCc2ccccc2)[C@@H]1O (protonated)
COC[C@H]1O[C@@H](OCc2ccc3ccccc3c2)[C@H]([NH2+]CCN)[C@@H](OCc2ccccc2)[C@@H]1O (chirality)
COC[C@H]1O[C@@H](OCc2ccc3ccccc3c2)[C@H]([NH2+]CCN)[C@@H](OCc2ccccc2)[C@@H]1O (3D coordinates assigned)
COC[C@H]1O[C@@H](OCc2ccc3ccccc3c2)[C@H]([NH2+]CCN)[C@@H](OCc2ccccc2)[C@@H]1O (nonaromatic ring conformer: 77.75381224744022 kcal/mol)

$$$$
51351654
     RDKit          3D

 28 28  0  0  0  0  0  0  0  0999 V2000
   -4.9897    0.8308    0.1388 O   0  0  0  0  0  0  0  0  0  0  0  0
   -3.6972    0.5905   -0.5884 S   0  0  0  0  0  6  0  0  0  0  0  0
   -3.5194    1.6485   -1.6409 O   0  0  0  0  0  0  0  0  0  0  0  0
   -3.7482   -0.9217   -1.3188 O   0  0  0  0  0  1  0  0  0  0  0  0
   -2.3800    0.6645    0.5441 N   0  0  0  0  0  0  0  0  0  0  0  0
   -1.0903    0.3501   -0.1060 C   0  0  1  0  0  0  0  0  0  0  0  0
   -0.0857    1.4740    0.2052 C   0  0  2  0  0  0  0  0  0  0  0  0
   -0.5915    2.6849   -0.2882 O   0  0  0  0  0  0  0  0  0  0  0  0
    1.1572    1.2095   -0.4229 O   0  0  0  0  0  0  0  0  0  0  0  0
    1.7639    0.0563    0.1360 C   0  0  2  0  0  0  0  0  0  0  0  0
    3.1723   -0.0883   -0.4597 C   0  0  0  0  0  0  0  0  0  0  0  0
    3.9343    1.0596   -0.1992 O   0  0  0  0  0  0  0  0  0  0  0  0
    0.9118   -1.1974   -0.1654 C   0  0  1  0  0  0  0  0  0  0  0  0
    1.4987   -2.3220    0.4397 O   0  0  0  0  0  0  0  0  0  0  0  0
   -0.5142   -0.9984    0.3831 C   0  0  2  0  0  0  0  0  0  0  0  0
   -1.3444   -2.0440   -0.0530 O   0  0  0  0  0  0  0  0  0  0  0  0
   -2.5957   -0.0050    1.3183 H   0  0  0  0  0  0  0  0  0  0  0  0
   -1.1926    0.2993   -1.2154 H   0  0  0  0  0  0  0  0  0  0  0  0
    0.0393    1.5676    1.3120 H   0  0  0  0  0  0  0  0  0  0  0  0
    0.0278    3.3953    0.0238 H   0  0  0  0  0  0  0  0  0  0  0  0
    1.8800    0.1706    1.2400 H   0  0  0  0  0  0  0  0  0  0  0  0
    3.0997   -0.2194   -1.5607 H   0  0  0  0  0  0  0  0  0  0  0  0
    3.6845   -0.9857   -0.0434 H   0  0  0  0  0  0  0  0  0  0  0  0
    4.2003    1.0134    0.7563 H   0  0  0  0  0  0  0  0  0  0  0  0
    0.8616   -1.3347   -1.2728 H   0  0  0  0  0  0  0  0  0  0  0  0
    1.2027   -3.1162   -0.0771 H   0  0  0  0  0  0  0  0  0  0  0  0
   -0.4686   -0.9831    1.4995 H   0  0  0  0  0  0  0  0  0  0  0  0
   -1.2163   -2.7990    0.5786 H   0  0  0  0  0  0  0  0  0  0  0  0
  1  2  2  0
  2  3  2  0
  2  4  1  0
  2  5  1  0
  5  6  1  0
  6  7  1  0
  7  8  1  0
  7  9  1  0
  9 10  1  0
 10 11  1  0
 11 12  1  0
 10 13  1  0
 13 14  1  0
 13 15  1  0
 15 16  1  0
 15  6  1  0
  5 17  1  0
  6 18  1  6
  7 19  1  1
  8 20  1  0
 10 21  1  1
 11 22  1  0
 11 23  1  0
 12 24  1  0
 13 25  1  6
 14 26  1  0
 15 27  1  1
 16 28  1  0
M  CHG  1   4  -1
M  END
>  <UniqueID>  (56) 
55

>  <SMILES>  (56) 
O=S(=O)([O-])N[C@H]1[C@H](O)O[C@H](CO)[C@@H](O)[C@@H]1O

>  <Energy>  (56) 
24.290237107415418

>  <Genealogy>  (56) 
O=S(=O)([O-])N[C@H]1[C@H](O)O[C@H](CO)[C@@H](O)[C@@H]1O (chirality)
O=S(=O)([O-])N[C@H]1[C@H](O)O[C@H](CO)[C@@H](O)[C@@H]1O (3D coordinates assigned)
O=S(=O)([O-])N[C@H]1[C@H](O)O[C@H](CO)[C@@H](O)[C@@H]1O (nonaromatic ring conformer: 24.290237107415418 kcal/mol)

$$$$
51351654
     RDKit          3D

 28 28  0  0  0  0  0  0  0  0999 V2000
   -3.1358    2.6489   -1.2796 O   0  0  0  0  0  0  0  0  0  0  0  0
   -3.0738    1.1488   -1.3513 S   0  0  0  0  0  6  0  0  0  0  0  0
   -4.4624    0.5913   -1.2186 O   0  0  0  0  0  0  0  0  0  0  0  0
   -2.4383    0.6898   -2.8373 O   0  0  0  0  0  1  0  0  0  0  0  0
   -2.0892    0.5408   -0.0519 N   0  0  0  0  0  0  0  0  0  0  0  0
   -0.6684    0.8988   -0.2495 C   0  0  1  0  0  0  0  0  0  0  0  0
    0.0289    1.2306    1.0926 C   0  0  1  0  0  0  0  0  0  0  0  0
   -0.6144    2.3102    1.7182 O   0  0  0  0  0  0  0  0  0  0  0  0
   -0.0109    0.1174    1.9685 O   0  0  0  0  0  0  0  0  0  0  0  0
    0.7264   -0.9927    1.4702 C   0  0  2  0  0  0  0  0  0  0  0  0
    2.2528   -0.7712    1.5667 C   0  0  0  0  0  0  0  0  0  0  0  0
    2.9314   -1.9991    1.5265 O   0  0  0  0  0  0  0  0  0  0  0  0
    0.2358   -1.4557    0.0683 C   0  0  1  0  0  0  0  0  0  0  0  0
   -1.0022   -2.1093    0.1990 O   0  0  0  0  0  0  0  0  0  0  0  0
    0.0745   -0.2790   -0.9145 C   0  0  2  0  0  0  0  0  0  0  0  0
    1.3379    0.1348   -1.3695 O   0  0  0  0  0  0  0  0  0  0  0  0
   -2.4684    0.9732    0.8209 H   0  0  0  0  0  0  0  0  0  0  0  0
   -0.5735    1.7970   -0.9021 H   0  0  0  0  0  0  0  0  0  0  0  0
    1.0834    1.5358    0.9015 H   0  0  0  0  0  0  0  0  0  0  0  0
   -0.4027    3.1221    1.1866 H   0  0  0  0  0  0  0  0  0  0  0  0
    0.5143   -1.8311    2.1701 H   0  0  0  0  0  0  0  0  0  0  0  0
    2.4795   -0.2885    2.5410 H   0  0  0  0  0  0  0  0  0  0  0  0
    2.6306   -0.0918    0.7723 H   0  0  0  0  0  0  0  0  0  0  0  0
    3.1520   -2.1782    0.5755 H   0  0  0  0  0  0  0  0  0  0  0  0
    0.9691   -2.1711   -0.3716 H   0  0  0  0  0  0  0  0  0  0  0  0
   -0.8143   -3.0229    0.5398 H   0  0  0  0  0  0  0  0  0  0  0  0
   -0.5114   -0.6458   -1.7884 H   0  0  0  0  0  0  0  0  0  0  0  0
    1.1867    0.6799   -2.1857 H   0  0  0  0  0  0  0  0  0  0  0  0
  1  2  2  0
  2  3  2  0
  2  4  1  0
  2  5  1  0
  5  6  1  0
  6  7  1  0
  7  8  1  0
  7  9  1  0
  9 10  1  0
 10 11  1  0
 11 12  1  0
 10 13  1  0
 13 14  1  0
 13 15  1  0
 15 16  1  0
 15  6  1  0
  5 17  1  0
  6 18  1  6
  7 19  1  6
  8 20  1  0
 10 21  1  1
 11 22  1  0
 11 23  1  0
 12 24  1  0
 13 25  1  6
 14 26  1  0
 15 27  1  6
 16 28  1  0
M  CHG  1   4  -1
M  END
>  <UniqueID>  (57) 
56

>  <SMILES>  (57) 
O=S(=O)([O-])N[C@H]1[C@@H](O)O[C@H](CO)[C@@H](O)[C@@H]1O

>  <Energy>  (57) 
30.90853081946046

>  <Genealogy>  (57) 
O=S(=O)([O-])N[C@H]1[C@@H](O)O[C@H](CO)[C@@H](O)[C@@H]1O (chirality)
O=S(=O)([O-])N[C@H]1[C@@H](O)O[C@H](CO)[C@@H](O)[C@@H]1O (3D coordinates assigned)
O=S(=O)([O-])N[C@H]1[C@@H](O)O[C@H](CO)[C@@H](O)[C@@H]1O (nonaromatic ring conformer: 30.90853081946046 kcal/mol)

$$$$
51351654
     RDKit          3D

 28 28  0  0  0  0  0  0  0  0999 V2000
   -3.3625    0.6538    0.0929 O   0  0  0  0  0  0  0  0  0  0  0  0
   -2.9611    1.3423   -1.1798 S   0  0  0  0  0  6  0  0  0  0  0  0
   -3.9275    2.4615   -1.4444 O   0  0  0  0  0  0  0  0  0  0  0  0
   -3.0492    0.2511   -2.4542 O   0  0  0  0  0  1  0  0  0  0  0  0
   -1.3509    2.0137   -1.0726 N   0  0  0  0  0  0  0  0  0  0  0  0
   -0.2908    1.1409   -0.5143 C   0  0  1  0  0  0  0  0  0  0  0  0
   -0.1419    1.3234    1.0110 C   0  0  1  0  0  0  0  0  0  0  0  0
   -1.3121    0.9721    1.7008 O   0  0  0  0  0  0  0  0  0  0  0  0
    0.9726    0.5913    1.4988 O   0  0  0  0  0  0  0  0  0  0  0  0
    0.8205   -0.8046    1.2796 C   0  0  2  0  0  0  0  0  0  0  0  0
    1.9926   -1.5301    1.9575 C   0  0  0  0  0  0  0  0  0  0  0  0
    1.9995   -1.2658    3.3350 O   0  0  0  0  0  0  0  0  0  0  0  0
    0.7807   -1.1195   -0.2364 C   0  0  1  0  0  0  0  0  0  0  0  0
    0.5867   -2.4976   -0.4399 O   0  0  0  0  0  0  0  0  0  0  0  0
   -0.3769   -0.3518   -0.9001 C   0  0  2  0  0  0  0  0  0  0  0  0
   -0.2874   -0.4764   -2.2965 O   0  0  0  0  0  0  0  0  0  0  0  0
   -1.0793    2.2777   -2.0479 H   0  0  0  0  0  0  0  0  0  0  0  0
    0.6751    1.5078   -0.9362 H   0  0  0  0  0  0  0  0  0  0  0  0
    0.0605    2.4035    1.1927 H   0  0  0  0  0  0  0  0  0  0  0  0
   -1.1658    1.2261    2.6491 H   0  0  0  0  0  0  0  0  0  0  0  0
   -0.1136   -1.1792    1.7591 H   0  0  0  0  0  0  0  0  0  0  0  0
    2.9596   -1.2231    1.4955 H   0  0  0  0  0  0  0  0  0  0  0  0
    1.8859   -2.6270    1.8218 H   0  0  0  0  0  0  0  0  0  0  0  0
    2.4550   -0.3922    3.4578 H   0  0  0  0  0  0  0  0  0  0  0  0
    1.7387   -0.7825   -0.7035 H   0  0  0  0  0  0  0  0  0  0  0  0
    1.4806   -2.9011   -0.5938 H   0  0  0  0  0  0  0  0  0  0  0  0
   -1.3333   -0.7869   -0.5321 H   0  0  0  0  0  0  0  0  0  0  0  0
   -0.6457   -1.3724   -2.5300 H   0  0  0  0  0  0  0  0  0  0  0  0
  1  2  2  0
  2  3  2  0
  2  4  1  0
  2  5  1  0
  5  6  1  0
  6  7  1  0
  7  8  1  0
  7  9  1  0
  9 10  1  0
 10 11  1  0
 11 12  1  0
 10 13  1  0
 13 14  1  0
 13 15  1  0
 15 16  1  0
 15  6  1  0
  5 17  1  0
  6 18  1  6
  7 19  1  6
  8 20  1  0
 10 21  1  1
 11 22  1  0
 11 23  1  0
 12 24  1  0
 13 25  1  6
 14 26  1  0
 15 27  1  1
 16 28  1  0
M  CHG  1   4  -1
M  END
>  <UniqueID>  (58) 
57

>  <SMILES>  (58) 
O=S(=O)([O-])N[C@H]1[C@@H](O)O[C@H](CO)[C@@H](O)[C@@H]1O

>  <Energy>  (58) 
32.80598567198766

>  <Genealogy>  (58) 
O=S(=O)([O-])N[C@H]1[C@@H](O)O[C@H](CO)[C@@H](O)[C@@H]1O (chirality)
O=S(=O)([O-])N[C@H]1[C@@H](O)O[C@H](CO)[C@@H](O)[C@@H]1O (3D coordinates assigned)
O=S(=O)([O-])N[C@H]1[C@@H](O)O[C@H](CO)[C@@H](O)[C@@H]1O (nonaromatic ring conformer: 32.80598567198766 kcal/mol)

$$$$
49859685
     RDKit          3D

 33 33  0  0  0  0  0  0  0  0999 V2000
   -3.1620    0.1793    3.3478 C   0  0  0  0  0  0  0  0  0  0  0  0
   -2.3296    0.8078    2.2785 C   0  0  0  0  0  0  0  0  0  0  0  0
   -2.1871    2.0603    2.2564 O   0  0  0  0  0  0  0  0  0  0  0  0
   -1.7316   -0.0112    1.2640 N   0  0  0  0  0  0  0  0  0  0  0  0
   -0.8620    0.5410    0.2179 C   0  0  1  0  0  0  0  0  0  0  0  0
    0.5233    0.8975    0.8040 C   0  0  1  0  0  0  0  0  0  0  0  0
    1.0719   -0.2262    1.4696 O   0  0  0  0  0  0  0  0  0  0  0  0
    2.3022    0.2908    2.5336 P   0  0  0  0  0  5  0  0  0  0  0  0
    2.9388   -0.9217    3.1725 O   0  0  0  0  0  0  0  0  0  0  0  0
    1.6429    1.2693    3.7463 O   0  0  0  0  0  1  0  0  0  0  0  0
    3.4887    1.1558    1.6926 O   0  0  0  0  0  1  0  0  0  0  0  0
    1.3959    1.3813   -0.2103 O   0  0  0  0  0  0  0  0  0  0  0  0
    1.6327    0.4022   -1.2105 C   0  0  2  0  0  0  0  0  0  0  0  0
    2.7094    0.9321   -2.1657 C   0  0  0  0  0  0  0  0  0  0  0  0
    3.0385   -0.0441   -3.1155 O   0  0  0  0  0  0  0  0  0  0  0  0
    0.3243    0.0642   -1.9589 C   0  0  2  0  0  0  0  0  0  0  0  0
   -0.1653    1.2123   -2.6077 O   0  0  0  0  0  0  0  0  0  0  0  0
   -0.7104   -0.4585   -0.9448 C   0  0  2  0  0  0  0  0  0  0  0  0
   -1.9554   -0.6483   -1.5668 O   0  0  0  0  0  0  0  0  0  0  0  0
   -3.3673    0.9077    4.1609 H   0  0  0  0  0  0  0  0  0  0  0  0
   -4.1248   -0.1618    2.9140 H   0  0  0  0  0  0  0  0  0  0  0  0
   -2.6246   -0.6922    3.7768 H   0  0  0  0  0  0  0  0  0  0  0  0
   -1.9434   -1.0353    1.2709 H   0  0  0  0  0  0  0  0  0  0  0  0
   -1.3279    1.4690   -0.1850 H   0  0  0  0  0  0  0  0  0  0  0  0
    0.3446    1.7328    1.5188 H   0  0  0  0  0  0  0  0  0  0  0  0
    2.0462   -0.5279   -0.7558 H   0  0  0  0  0  0  0  0  0  0  0  0
    2.3514    1.8547   -2.6753 H   0  0  0  0  0  0  0  0  0  0  0  0
    3.6169    1.1908   -1.5752 H   0  0  0  0  0  0  0  0  0  0  0  0
    3.7303    0.3623   -3.6995 H   0  0  0  0  0  0  0  0  0  0  0  0
    0.5331   -0.7397   -2.7039 H   0  0  0  0  0  0  0  0  0  0  0  0
   -0.7441    0.8999   -3.3512 H   0  0  0  0  0  0  0  0  0  0  0  0
   -0.3485   -1.4321   -0.5356 H   0  0  0  0  0  0  0  0  0  0  0  0
   -1.8711   -1.4597   -2.1327 H   0  0  0  0  0  0  0  0  0  0  0  0
  1  2  1  0
  2  3  2  0
  2  4  1  0
  4  5  1  0
  5  6  1  0
  6  7  1  0
  7  8  1  0
  8  9  2  0
  8 10  1  0
  8 11  1  0
  6 12  1  0
 12 13  1  0
 13 14  1  0
 14 15  1  0
 13 16  1  0
 16 17  1  0
 16 18  1  0
 18 19  1  0
 18  5  1  0
  1 20  1  0
  1 21  1  0
  1 22  1  0
  4 23  1  0
  5 24  1  6
  6 25  1  1
 13 26  1  1
 14 27  1  0
 14 28  1  0
 15 29  1  0
 16 30  1  6
 17 31  1  0
 18 32  1  1
 19 33  1  0
M  CHG  2  10  -1  11  -1
M  END
>  <UniqueID>  (59) 
58

>  <SMILES>  (59) 
CC(=O)N[C@H]1[C@@H](OP(=O)([O-])[O-])O[C@H](CO)[C@H](O)[C@@H]1O

>  <Energy>  (59) 
26.98632751234508

>  <Genealogy>  (59) 
CC(=O)N[C@H]1[C@@H](OP(=O)([O-])[O-])O[C@H](CO)[C@H](O)[C@@H]1O (3D coordinates assigned)
CC(=O)N[C@H]1[C@@H](OP(=O)([O-])[O-])O[C@H](CO)[C@H](O)[C@@H]1O (nonaromatic ring conformer: 26.98632751234508 kcal/mol)

$$$$
49859685
     RDKit          3D

 33 33  0  0  0  0  0  0  0  0999 V2000
   -3.5116   -0.7424    2.2492 C   0  0  0  0  0  0  0  0  0  0  0  0
   -2.5401    0.2773    1.7516 C   0  0  0  0  0  0  0  0  0  0  0  0
   -2.8442    1.5002    1.7945 O   0  0  0  0  0  0  0  0  0  0  0  0
   -1.2574   -0.1369    1.2614 N   0  0  0  0  0  0  0  0  0  0  0  0
   -0.2696    0.8174    0.7389 C   0  0  1  0  0  0  0  0  0  0  0  0
    1.1455    0.1936    0.7285 C   0  0  1  0  0  0  0  0  0  0  0  0
    1.4519   -0.2682    2.0324 O   0  0  0  0  0  0  0  0  0  0  0  0
    2.4881    0.8284    2.8361 P   0  0  0  0  0  5  0  0  0  0  0  0
    1.8484    2.1962    2.9165 O   0  0  0  0  0  0  0  0  0  0  0  0
    2.7785    0.2620    4.4023 O   0  0  0  0  0  1  0  0  0  0  0  0
    3.9599    0.9404    2.0091 O   0  0  0  0  0  1  0  0  0  0  0  0
    1.1907   -0.9261   -0.1430 O   0  0  0  0  0  0  0  0  0  0  0  0
    0.9355   -0.5833   -1.4999 C   0  0  2  0  0  0  0  0  0  0  0  0
    2.1300    0.1554   -2.1447 C   0  0  0  0  0  0  0  0  0  0  0  0
    2.0735    0.0392   -3.5402 O   0  0  0  0  0  0  0  0  0  0  0  0
   -0.4456    0.1089   -1.6767 C   0  0  2  0  0  0  0  0  0  0  0  0
   -0.6248    0.5676   -2.9922 O   0  0  0  0  0  0  0  0  0  0  0  0
   -0.6551    1.2657   -0.6809 C   0  0  2  0  0  0  0  0  0  0  0  0
    0.1113    2.3881   -1.0401 O   0  0  0  0  0  0  0  0  0  0  0  0
   -4.5119   -0.2852    2.4051 H   0  0  0  0  0  0  0  0  0  0  0  0
   -3.6055   -1.5628    1.5074 H   0  0  0  0  0  0  0  0  0  0  0  0
   -3.1490   -1.1593    3.2116 H   0  0  0  0  0  0  0  0  0  0  0  0
   -1.0219   -1.1549    1.3020 H   0  0  0  0  0  0  0  0  0  0  0  0
   -0.2503    1.7099    1.4021 H   0  0  0  0  0  0  0  0  0  0  0  0
    1.8739    0.9593    0.3719 H   0  0  0  0  0  0  0  0  0  0  0  0
    0.8586   -1.5522   -2.0415 H   0  0  0  0  0  0  0  0  0  0  0  0
    2.1431    1.2289   -1.8651 H   0  0  0  0  0  0  0  0  0  0  0  0
    3.0746   -0.3081   -1.7813 H   0  0  0  0  0  0  0  0  0  0  0  0
    2.8676    0.5208   -3.8904 H   0  0  0  0  0  0  0  0  0  0  0  0
   -1.2313   -0.6519   -1.4538 H   0  0  0  0  0  0  0  0  0  0  0  0
   -0.7671   -0.2353   -3.5588 H   0  0  0  0  0  0  0  0  0  0  0  0
   -1.7345    1.5474   -0.6845 H   0  0  0  0  0  0  0  0  0  0  0  0
   -0.3827    2.8613   -1.7595 H   0  0  0  0  0  0  0  0  0  0  0  0
  1  2  1  0
  2  3  2  0
  2  4  1  0
  4  5  1  0
  5  6  1  0
  6  7  1  0
  7  8  1  0
  8  9  2  0
  8 10  1  0
  8 11  1  0
  6 12  1  0
 12 13  1  0
 13 14  1  0
 14 15  1  0
 13 16  1  0
 16 17  1  0
 16 18  1  0
 18 19  1  0
 18  5  1  0
  1 20  1  0
  1 21  1  0
  1 22  1  0
  4 23  1  0
  5 24  1  1
  6 25  1  6
 13 26  1  6
 14 27  1  0
 14 28  1  0
 15 29  1  0
 16 30  1  1
 17 31  1  0
 18 32  1  1
 19 33  1  0
M  CHG  2  10  -1  11  -1
M  END
>  <UniqueID>  (60) 
59

>  <SMILES>  (60) 
CC(=O)N[C@H]1[C@@H](OP(=O)([O-])[O-])O[C@H](CO)[C@H](O)[C@@H]1O

>  <Energy>  (60) 
33.819782301335124

>  <Genealogy>  (60) 
CC(=O)N[C@H]1[C@@H](OP(=O)([O-])[O-])O[C@H](CO)[C@H](O)[C@@H]1O (3D coordinates assigned)
CC(=O)N[C@H]1[C@@H](OP(=O)([O-])[O-])O[C@H](CO)[C@H](O)[C@@H]1O (nonaromatic ring conformer: 33.819782301335124 kcal/mol)

$$$$
49859685
     RDKit          3D

 33 33  0  0  0  0  0  0  0  0999 V2000
   -1.6261   -1.9516    4.6623 H   0  0  0  0  0  0  0  0  0  0  0  0
   -1.2716   -1.4406    3.8629 O   0  0  0  0  0  0  0  0  0  0  0  0
   -1.1174   -2.0588    2.6222 C   0  0  0  0  0  0  0  0  0  0  0  0
   -0.6471   -1.3975    1.6071 N   0  0  0  0  0  0  0  0  0  0  0  0
   -0.2659    0.0178    1.6459 C   0  0  1  0  0  0  0  0  0  0  0  0
    0.3279    0.1956    2.5726 H   0  0  0  0  0  0  0  0  0  0  0  0
    0.6484    0.3494    0.4372 C   0  0  1  0  0  0  0  0  0  0  0  0
    1.6903    0.1550    0.7840 H   0  0  0  0  0  0  0  0  0  0  0  0
    0.3307   -0.4707   -0.6768 O   0  0  0  0  0  0  0  0  0  0  0  0
    1.6510   -0.5015   -1.7602 P   0  0  0  0  0  5  0  0  0  0  0  0
    2.0088    0.9004   -2.2006 O   0  0  0  0  0  0  0  0  0  0  0  0
    1.2215   -1.4118   -3.1187 O   0  0  0  0  0  1  0  0  0  0  0  0
    2.9916   -1.2207   -1.0195 O   0  0  0  0  0  1  0  0  0  0  0  0
    0.5425    1.7266    0.1104 O   0  0  0  0  0  0  0  0  0  0  0  0
   -0.7205    2.0543   -0.4640 C   0  0  2  0  0  0  0  0  0  0  0  0
   -0.7180    1.7265   -1.5285 H   0  0  0  0  0  0  0  0  0  0  0  0
   -0.8347    3.5882   -0.4791 C   0  0  0  0  0  0  0  0  0  0  0  0
    0.1327    4.0203   -0.8214 H   0  0  0  0  0  0  0  0  0  0  0  0
   -1.0398    3.9678    0.5467 H   0  0  0  0  0  0  0  0  0  0  0  0
   -1.8467    3.9952   -1.3591 O   0  0  0  0  0  0  0  0  0  0  0  0
   -1.8809    4.9852   -1.3011 H   0  0  0  0  0  0  0  0  0  0  0  0
   -1.9197    1.3526    0.2629 C   0  0  2  0  0  0  0  0  0  0  0  0
   -2.1672    0.4170   -0.2948 H   0  0  0  0  0  0  0  0  0  0  0  0
   -3.0666    2.1639    0.3176 O   0  0  0  0  0  0  0  0  0  0  0  0
   -3.5148    2.0872   -0.5652 H   0  0  0  0  0  0  0  0  0  0  0  0
   -1.5239    0.9278    1.6826 C   0  0  2  0  0  0  0  0  0  0  0  0
   -2.3866    0.3765    2.1256 H   0  0  0  0  0  0  0  0  0  0  0  0
   -1.2680    2.0727    2.4570 O   0  0  0  0  0  0  0  0  0  0  0  0
   -1.3214    1.7938    3.4084 H   0  0  0  0  0  0  0  0  0  0  0  0
   -1.4662   -3.5033    2.4635 C   0  0  0  0  0  0  0  0  0  0  0  0
   -0.6753   -4.1265    2.9306 H   0  0  0  0  0  0  0  0  0  0  0  0
   -1.5542   -3.7722    1.3888 H   0  0  0  0  0  0  0  0  0  0  0  0
   -2.4360   -3.7108    2.9622 H   0  0  0  0  0  0  0  0  0  0  0  0
  1  2  1  0
  2  3  1  0
  3  4  2  0
  4  5  1  0
  5  6  1  1
  5  7  1  0
  7  8  1  1
  7  9  1  0
  9 10  1  0
 10 11  2  0
 10 12  1  0
 10 13  1  0
  7 14  1  0
 14 15  1  0
 15 16  1  6
 15 17  1  0
 17 18  1  0
 17 19  1  0
 17 20  1  0
 20 21  1  0
 15 22  1  0
 22 23  1  6
 22 24  1  0
 24 25  1  0
 22 26  1  0
 26 27  1  1
 26 28  1  0
 28 29  1  0
  3 30  1  0
 30 31  1  0
 30 32  1  0
 30 33  1  0
 26  5  1  0
M  CHG  2  12  -1  13  -1
M  END
>  <UniqueID>  (61) 
60

>  <SMILES>  (61) 
C/C(O)=N/[C@H]1[C@@H](OP(=O)([O-])[O-])O[C@H](CO)[C@H](O)[C@@H]1O

>  <Energy>  (61) 
39.201428957159955

>  <Genealogy>  (61) 
CC(O)=N[C@H]1[C@@H](OP(=O)([O-])[O-])O[C@H](CO)[C@H](O)[C@@H]1O (tautomer)
C/C(O)=N/[C@H]1[C@@H](OP(=O)([O-])[O-])O[C@H](CO)[C@H](O)[C@@H]1O (cis-trans isomerization)
C/C(O)=N/[C@H]1[C@@H](OP(=O)([O-])[O-])O[C@H](CO)[C@H](O)[C@@H]1O (3D coordinates assigned)
C/C(O)=N/[C@H]1[C@@H](OP(=O)([O-])[O-])O[C@H](CO)[C@H](O)[C@@H]1O (nonaromatic ring conformer: 39.201428957159955 kcal/mol)

$$$$
49802606
     RDKit          3D

 30 30  0  0  0  0  0  0  0  0999 V2000
   -3.5307    1.7480   -1.8618 H   0  0  0  0  0  0  0  0  0  0  0  0
   -2.7259    1.2480   -1.5031 O   0  0  0  0  0  0  0  0  0  0  0  0
   -2.8399   -0.0503   -1.0043 C   0  0  0  0  0  0  0  0  0  0  0  0
   -1.7903   -0.6836   -0.5714 N   0  0  0  0  0  0  0  0  0  0  0  0
   -0.4402   -0.1171   -0.5244 C   0  0  1  0  0  0  0  0  0  0  0  0
   -0.2299    0.4142   -1.4807 H   0  0  0  0  0  0  0  0  0  0  0  0
   -0.3063    0.8902    0.6458 C   0  0  1  0  0  0  0  0  0  0  0  0
   -0.9501    1.7700    0.4169 H   0  0  0  0  0  0  0  0  0  0  0  0
   -0.7238    0.3249    1.8662 O   0  0  0  0  0  0  0  0  0  0  0  0
   -1.7162    0.3597    1.8803 H   0  0  0  0  0  0  0  0  0  0  0  0
    1.0220    1.3805    0.7546 O   0  0  0  0  0  0  0  0  0  0  0  0
    1.9456    0.3354    1.0219 C   0  0  2  0  0  0  0  0  0  0  0  0
    1.6635   -0.2117    1.9516 H   0  0  0  0  0  0  0  0  0  0  0  0
    3.3322    0.9444    1.2786 C   0  0  0  0  0  0  0  0  0  0  0  0
    4.0745    0.1303    1.4202 H   0  0  0  0  0  0  0  0  0  0  0  0
    3.6623    1.5544    0.4064 H   0  0  0  0  0  0  0  0  0  0  0  0
    3.3147    1.7259    2.4420 O   0  0  0  0  0  0  0  0  0  0  0  0
    2.9166    2.6003    2.1924 H   0  0  0  0  0  0  0  0  0  0  0  0
    1.9925   -0.6654   -0.1523 C   0  0  2  0  0  0  0  0  0  0  0  0
    2.6905   -1.4952    0.1139 H   0  0  0  0  0  0  0  0  0  0  0  0
    2.4364   -0.0128   -1.3173 O   0  0  0  0  0  0  0  0  0  0  0  0
    2.8115   -0.7114   -1.9145 H   0  0  0  0  0  0  0  0  0  0  0  0
    0.5875   -1.2524   -0.3694 C   0  0  2  0  0  0  0  0  0  0  0  0
    0.3286   -1.8658    0.5271 H   0  0  0  0  0  0  0  0  0  0  0  0
    0.5902   -2.0670   -1.5138 O   0  0  0  0  0  0  0  0  0  0  0  0
   -0.1729   -2.6952   -1.4239 H   0  0  0  0  0  0  0  0  0  0  0  0
   -4.1713   -0.7386   -1.0110 C   0  0  0  0  0  0  0  0  0  0  0  0
   -5.1550    0.1392   -0.5940 F   0  0  0  0  0  0  0  0  0  0  0  0
   -4.4561   -1.1671   -2.2944 F   0  0  0  0  0  0  0  0  0  0  0  0
   -4.1601   -1.8317   -0.1613 F   0  0  0  0  0  0  0  0  0  0  0  0
  1  2  1  0
  2  3  1  0
  3  4  2  0
  4  5  1  0
  5  6  1  6
  5  7  1  0
  7  8  1  6
  7  9  1  0
  9 10  1  0
  7 11  1  0
 11 12  1  0
 12 13  1  1
 12 14  1  0
 14 15  1  0
 14 16  1  0
 14 17  1  0
 17 18  1  0
 12 19  1  0
 19 20  1  1
 19 21  1  0
 21 22  1  0
 19 23  1  0
 23 24  1  1
 23 25  1  0
 25 26  1  0
  3 27  1  0
 27 28  1  0
 27 29  1  0
 27 30  1  0
 23  5  1  0
M  END
>  <UniqueID>  (62) 
61

>  <SMILES>  (62) 
OC[C@H]1O[C@H](O)[C@H](/N=C(/O)C(F)(F)F)[C@@H](O)[C@H]1O

>  <Energy>  (62) 
26.52584351485195

>  <Genealogy>  (62) 
OC[C@H]1OC(O)[C@H](N=C(O)C(F)(F)F)[C@@H](O)[C@H]1O (tautomer)
OC[C@H]1O[C@H](O)[C@H](N=C(O)C(F)(F)F)[C@@H](O)[C@H]1O (chirality)
OC[C@H]1O[C@H](O)[C@H](/N=C(/O)C(F)(F)F)[C@@H](O)[C@H]1O (cis-trans isomerization)
OC[C@H]1O[C@H](O)[C@H](/N=C(/O)C(F)(F)F)[C@@H](O)[C@H]1O (3D coordinates assigned)
OC[C@H]1O[C@H](O)[C@H](/N=C(/O)C(F)(F)F)[C@@H](O)[C@H]1O (nonaromatic ring conformer: 26.52584351485195 kcal/mol)

$$$$
49802606
     RDKit          3D

 30 30  0  0  0  0  0  0  0  0999 V2000
   -2.1433   -2.5680   -2.5774 H   0  0  0  0  0  0  0  0  0  0  0  0
   -1.5638   -2.0260   -1.9477 O   0  0  0  0  0  0  0  0  0  0  0  0
   -0.4172   -2.5716   -1.3700 C   0  0  0  0  0  0  0  0  0  0  0  0
    0.3096   -1.8686   -0.5525 N   0  0  0  0  0  0  0  0  0  0  0  0
    0.0446   -0.4755   -0.1830 C   0  0  1  0  0  0  0  0  0  0  0  0
   -1.0544   -0.3192   -0.0990 H   0  0  0  0  0  0  0  0  0  0  0  0
    0.6598   -0.1870    1.2058 C   0  0  1  0  0  0  0  0  0  0  0  0
    0.0984   -0.7955    1.9527 H   0  0  0  0  0  0  0  0  0  0  0  0
    2.0216   -0.5450    1.2549 O   0  0  0  0  0  0  0  0  0  0  0  0
    2.0625   -1.5240    1.4146 H   0  0  0  0  0  0  0  0  0  0  0  0
    0.4880    1.1728    1.5776 O   0  0  0  0  0  0  0  0  0  0  0  0
    1.1563    2.0474    0.6802 C   0  0  2  0  0  0  0  0  0  0  0  0
    2.2401    1.7925    0.6264 H   0  0  0  0  0  0  0  0  0  0  0  0
    1.0961    3.4807    1.2271 C   0  0  0  0  0  0  0  0  0  0  0  0
    1.7055    3.5346    2.1571 H   0  0  0  0  0  0  0  0  0  0  0  0
    1.5318    4.1867    0.4846 H   0  0  0  0  0  0  0  0  0  0  0  0
   -0.2248    3.8462    1.5196 O   0  0  0  0  0  0  0  0  0  0  0  0
   -0.1843    4.7791    1.8557 H   0  0  0  0  0  0  0  0  0  0  0  0
    0.5654    1.9451   -0.7487 C   0  0  2  0  0  0  0  0  0  0  0  0
    1.1969    2.5583   -1.4286 H   0  0  0  0  0  0  0  0  0  0  0  0
   -0.7474    2.4507   -0.8216 O   0  0  0  0  0  0  0  0  0  0  0  0
   -1.3000    1.9770   -0.1482 H   0  0  0  0  0  0  0  0  0  0  0  0
    0.6289    0.4840   -1.2403 C   0  0  2  0  0  0  0  0  0  0  0  0
    1.6991    0.2103   -1.4017 H   0  0  0  0  0  0  0  0  0  0  0  0
   -0.0728    0.3515   -2.4493 O   0  0  0  0  0  0  0  0  0  0  0  0
    0.4876    0.7713   -3.1533 H   0  0  0  0  0  0  0  0  0  0  0  0
   -0.0359   -3.9884   -1.6774 C   0  0  0  0  0  0  0  0  0  0  0  0
   -1.0029   -4.8408   -1.1789 F   0  0  0  0  0  0  0  0  0  0  0  0
    0.0537   -4.1542   -3.0469 F   0  0  0  0  0  0  0  0  0  0  0  0
    1.1846   -4.3065   -1.1061 F   0  0  0  0  0  0  0  0  0  0  0  0
  1  2  1  0
  2  3  1  0
  3  4  2  0
  4  5  1  0
  5  6  1  1
  5  7  1  0
  7  8  1  1
  7  9  1  0
  9 10  1  0
  7 11  1  0
 11 12  1  0
 12 13  1  6
 12 14  1  0
 14 15  1  0
 14 16  1  0
 14 17  1  0
 17 18  1  0
 12 19  1  0
 19 20  1  6
 19 21  1  0
 21 22  1  0
 19 23  1  0
 23 24  1  6
 23 25  1  0
 25 26  1  0
  3 27  1  0
 27 28  1  0
 27 29  1  0
 27 30  1  0
 23  5  1  0
M  END
>  <UniqueID>  (63) 
62

>  <SMILES>  (63) 
OC[C@H]1O[C@H](O)[C@H](/N=C(\O)C(F)(F)F)[C@@H](O)[C@H]1O

>  <Energy>  (63) 
28.910352009297572

>  <Genealogy>  (63) 
OC[C@H]1OC(O)[C@H](N=C(O)C(F)(F)F)[C@@H](O)[C@H]1O (tautomer)
OC[C@H]1O[C@H](O)[C@H](N=C(O)C(F)(F)F)[C@@H](O)[C@H]1O (chirality)
OC[C@H]1O[C@H](O)[C@H](/N=C(\O)C(F)(F)F)[C@@H](O)[C@H]1O (cis-trans isomerization)
OC[C@H]1O[C@H](O)[C@H](/N=C(\O)C(F)(F)F)[C@@H](O)[C@H]1O (3D coordinates assigned)
OC[C@H]1O[C@H](O)[C@H](/N=C(\O)C(F)(F)F)[C@@H](O)[C@H]1O (nonaromatic ring conformer: 28.910352009297572 kcal/mol)

$$$$
49802606
     RDKit          3D

 30 30  0  0  0  0  0  0  0  0999 V2000
   -1.7047    0.8098   -2.8233 H   0  0  0  0  0  0  0  0  0  0  0  0
   -2.4692    0.2318   -2.5007 O   0  0  0  0  0  0  0  0  0  0  0  0
   -2.6025   -0.2073   -1.1796 C   0  0  0  0  0  0  0  0  0  0  0  0
   -1.7331    0.0939   -0.2571 N   0  0  0  0  0  0  0  0  0  0  0  0
   -0.5082    0.8794   -0.4367 C   0  0  1  0  0  0  0  0  0  0  0  0
   -0.7315    1.7861   -1.0417 H   0  0  0  0  0  0  0  0  0  0  0  0
   -0.0001    1.3490    0.9349 C   0  0  1  0  0  0  0  0  0  0  0  0
    0.8964    1.9923    0.7956 H   0  0  0  0  0  0  0  0  0  0  0  0
   -0.9940    2.1319    1.5395 O   0  0  0  0  0  0  0  0  0  0  0  0
   -0.5974    2.4957    2.3738 H   0  0  0  0  0  0  0  0  0  0  0  0
    0.2883    0.2454    1.7771 O   0  0  0  0  0  0  0  0  0  0  0  0
    1.3368   -0.5735    1.2754 C   0  0  2  0  0  0  0  0  0  0  0  0
    1.2973   -1.4977    1.8941 H   0  0  0  0  0  0  0  0  0  0  0  0
    2.7390    0.0048    1.5781 C   0  0  0  0  0  0  0  0  0  0  0  0
    2.7467    0.4084    2.6154 H   0  0  0  0  0  0  0  0  0  0  0  0
    3.4897   -0.8161    1.5274 H   0  0  0  0  0  0  0  0  0  0  0  0
    3.1021    1.0125    0.6785 O   0  0  0  0  0  0  0  0  0  0  0  0
    4.0016    1.3237    0.9596 H   0  0  0  0  0  0  0  0  0  0  0  0
    1.0930   -1.0688   -0.1793 C   0  0  2  0  0  0  0  0  0  0  0  0
    0.2911   -1.8435   -0.1186 H   0  0  0  0  0  0  0  0  0  0  0  0
    2.2561   -1.6661   -0.6944 O   0  0  0  0  0  0  0  0  0  0  0  0
    1.9798   -2.2004   -1.4845 H   0  0  0  0  0  0  0  0  0  0  0  0
    0.5809    0.0357   -1.1276 C   0  0  2  0  0  0  0  0  0  0  0  0
    0.1496   -0.4689   -2.0230 H   0  0  0  0  0  0  0  0  0  0  0  0
    1.6418    0.8554   -1.5458 O   0  0  0  0  0  0  0  0  0  0  0  0
    1.3229    1.3561   -2.3418 H   0  0  0  0  0  0  0  0  0  0  0  0
   -3.7905   -1.0356   -0.8069 C   0  0  0  0  0  0  0  0  0  0  0  0
   -4.5872   -0.3299    0.0755 F   0  0  0  0  0  0  0  0  0  0  0  0
   -4.5304   -1.3480   -1.9331 F   0  0  0  0  0  0  0  0  0  0  0  0
   -3.3707   -2.2080   -0.2053 F   0  0  0  0  0  0  0  0  0  0  0  0
  1  2  1  0
  2  3  1  0
  3  4  2  0
  4  5  1  0
  5  6  1  6
  5  7  1  0
  7  8  1  6
  7  9  1  0
  9 10  1  0
  7 11  1  0
 11 12  1  0
 12 13  1  1
 12 14  1  0
 14 15  1  0
 14 16  1  0
 14 17  1  0
 17 18  1  0
 12 19  1  0
 19 20  1  1
 19 21  1  0
 21 22  1  0
 19 23  1  0
 23 24  1  6
 23 25  1  0
 25 26  1  0
  3 27  1  0
 27 28  1  0
 27 29  1  0
 27 30  1  0
 23  5  1  0
M  END
>  <UniqueID>  (64) 
63

>  <SMILES>  (64) 
OC[C@H]1O[C@H](O)[C@H](/N=C(/O)C(F)(F)F)[C@@H](O)[C@H]1O

>  <Energy>  (64) 
33.87946587463664

>  <Genealogy>  (64) 
OC[C@H]1OC(O)[C@H](N=C(O)C(F)(F)F)[C@@H](O)[C@H]1O (tautomer)
OC[C@H]1O[C@H](O)[C@H](N=C(O)C(F)(F)F)[C@@H](O)[C@H]1O (chirality)
OC[C@H]1O[C@H](O)[C@H](/N=C(/O)C(F)(F)F)[C@@H](O)[C@H]1O (cis-trans isomerization)
OC[C@H]1O[C@H](O)[C@H](/N=C(/O)C(F)(F)F)[C@@H](O)[C@H]1O (3D coordinates assigned)
OC[C@H]1O[C@H](O)[C@H](/N=C(/O)C(F)(F)F)[C@@H](O)[C@H]1O (nonaromatic ring conformer: 33.87946587463664 kcal/mol)

$$$$
46174147
     RDKit          3D

 34 34  0  0  0  0  0  0  0  0999 V2000
   -3.5822   -1.2473   -2.1443 H   0  0  0  0  0  0  0  0  0  0  0  0
   -2.9517   -1.1357   -1.3594 O   0  0  0  0  0  0  0  0  0  0  0  0
   -1.7129   -0.5150   -1.4988 C   0  0  0  0  0  0  0  0  0  0  0  0
   -0.9624   -0.3925   -0.4414 N   0  0  0  0  0  0  0  0  0  0  0  0
    0.3725    0.2111   -0.3657 C   0  0  1  0  0  0  0  0  0  0  0  0
    0.5406    0.9065   -1.2174 H   0  0  0  0  0  0  0  0  0  0  0  0
    0.4988    1.0455    0.9263 C   0  0  1  0  0  0  0  0  0  0  0  0
   -0.2187    1.8928    0.8599 H   0  0  0  0  0  0  0  0  0  0  0  0
    0.2034    0.2724    2.0974 O   0  0  0  0  0  0  0  0  0  0  0  0
   -1.0866    0.0771    2.6040 C   0  0  0  0  0  0  0  0  0  0  0  0
   -2.0813    0.6495    2.0818 O   0  0  0  0  0  0  0  0  0  0  0  0
   -1.2743   -0.7723    3.7323 N   0  0  0  0  0  0  0  0  0  0  0  0
   -2.2288   -0.9274    4.1261 H   0  0  0  0  0  0  0  0  0  0  0  0
   -0.4559   -1.2482    4.1720 H   0  0  0  0  0  0  0  0  0  0  0  0
    1.7930    1.6172    1.0244 O   0  0  0  0  0  0  0  0  0  0  0  0
    2.8031    0.6237    1.1264 C   0  0  2  0  0  0  0  0  0  0  0  0
    2.6275   -0.0174    2.0213 H   0  0  0  0  0  0  0  0  0  0  0  0
    4.1437    1.3403    1.3435 C   0  0  0  0  0  0  0  0  0  0  0  0
    4.0297    2.0744    2.1727 H   0  0  0  0  0  0  0  0  0  0  0  0
    4.4321    1.8959    0.4226 H   0  0  0  0  0  0  0  0  0  0  0  0
    5.1440    0.4198    1.6836 O   0  0  0  0  0  0  0  0  0  0  0  0
    5.9777    0.9469    1.7930 H   0  0  0  0  0  0  0  0  0  0  0  0
    2.8365   -0.2574   -0.1468 C   0  0  1  0  0  0  0  0  0  0  0  0
    3.0976    0.3900   -1.0189 H   0  0  0  0  0  0  0  0  0  0  0  0
    3.7907   -1.2777    0.0064 O   0  0  0  0  0  0  0  0  0  0  0  0
    4.0912   -1.5333   -0.9046 H   0  0  0  0  0  0  0  0  0  0  0  0
    1.4504   -0.8841   -0.3852 C   0  0  2  0  0  0  0  0  0  0  0  0
    1.2308   -1.6114    0.4341 H   0  0  0  0  0  0  0  0  0  0  0  0
    1.4304   -1.5405   -1.6266 O   0  0  0  0  0  0  0  0  0  0  0  0
    1.8045   -2.4485   -1.4815 H   0  0  0  0  0  0  0  0  0  0  0  0
   -1.3009    0.0140   -2.8460 C   0  0  0  0  0  0  0  0  0  0  0  0
   -0.3172   -0.4005   -3.1444 H   0  0  0  0  0  0  0  0  0  0  0  0
   -1.2459    1.1222   -2.8133 H   0  0  0  0  0  0  0  0  0  0  0  0
   -2.0413   -0.2741   -3.6208 H   0  0  0  0  0  0  0  0  0  0  0  0
  1  2  1  0
  2  3  1  0
  3  4  2  0
  4  5  1  0
  5  6  1  6
  5  7  1  0
  7  8  1  6
  7  9  1  0
  9 10  1  0
 10 11  2  0
 10 12  1  0
 12 13  1  0
 12 14  1  0
  7 15  1  0
 15 16  1  0
 16 17  1  1
 16 18  1  0
 18 19  1  0
 18 20  1  0
 18 21  1  0
 21 22  1  0
 16 23  1  0
 23 24  1  6
 23 25  1  0
 25 26  1  0
 23 27  1  0
 27 28  1  1
 27 29  1  0
 29 30  1  0
  3 31  1  0
 31 32  1  0
 31 33  1  0
 31 34  1  0
 27  5  1  0
M  END
>  <UniqueID>  (65) 
64

>  <SMILES>  (65) 
C/C(O)=N\[C@H]1[C@@H](OC(N)=O)O[C@H](CO)[C@@H](O)[C@@H]1O

>  <Energy>  (65) 
30.51555603113612

>  <Genealogy>  (65) 
CC(O)=N[C@H]1[C@@H](OC(N)=O)O[C@H](CO)[C@@H](O)[C@@H]1O (tautomer)
C/C(O)=N\[C@H]1[C@@H](OC(N)=O)O[C@H](CO)[C@@H](O)[C@@H]1O (cis-trans isomerization)
C/C(O)=N\[C@H]1[C@@H](OC(N)=O)O[C@H](CO)[C@@H](O)[C@@H]1O (3D coordinates assigned)
C/C(O)=N\[C@H]1[C@@H](OC(N)=O)O[C@H](CO)[C@@H](O)[C@@H]1O (nonaromatic ring conformer: 30.51555603113612 kcal/mol)

$$$$
46174147
     RDKit          3D

 34 34  0  0  0  0  0  0  0  0999 V2000
   -3.2652   -0.8642   -0.9060 H   0  0  0  0  0  0  0  0  0  0  0  0
   -2.3074   -0.5350   -0.9189 O   0  0  0  0  0  0  0  0  0  0  0  0
   -1.2385   -1.4284   -0.9883 C   0  0  0  0  0  0  0  0  0  0  0  0
   -0.0138   -0.9944   -1.0179 N   0  0  0  0  0  0  0  0  0  0  0  0
    0.3683    0.4211   -0.9603 C   0  0  1  0  0  0  0  0  0  0  0  0
   -0.3411    1.0096   -1.5861 H   0  0  0  0  0  0  0  0  0  0  0  0
    0.3452    0.9691    0.5042 C   0  0  1  0  0  0  0  0  0  0  0  0
   -0.0954    1.9893    0.4582 H   0  0  0  0  0  0  0  0  0  0  0  0
   -0.4846    0.1704    1.3504 O   0  0  0  0  0  0  0  0  0  0  0  0
   -0.8003    0.5214    2.6661 C   0  0  0  0  0  0  0  0  0  0  0  0
   -0.3665    1.5927    3.1699 O   0  0  0  0  0  0  0  0  0  0  0  0
   -1.6233   -0.3430    3.4439 N   0  0  0  0  0  0  0  0  0  0  0  0
   -1.9865   -1.2310    3.0323 H   0  0  0  0  0  0  0  0  0  0  0  0
   -1.8691   -0.0970    4.4285 H   0  0  0  0  0  0  0  0  0  0  0  0
    1.6405    1.1035    1.0777 O   0  0  0  0  0  0  0  0  0  0  0  0
    2.4260   -0.0466    0.8267 C   0  0  2  0  0  0  0  0  0  0  0  0
    1.8507   -0.9708    1.0762 H   0  0  0  0  0  0  0  0  0  0  0  0
    3.6536   -0.0259    1.7467 C   0  0  0  0  0  0  0  0  0  0  0  0
    4.2459    0.8954    1.5596 H   0  0  0  0  0  0  0  0  0  0  0  0
    4.3083   -0.9025    1.5358 H   0  0  0  0  0  0  0  0  0  0  0  0
    3.2572   -0.0320    3.0917 O   0  0  0  0  0  0  0  0  0  0  0  0
    2.9693   -0.9593    3.2994 H   0  0  0  0  0  0  0  0  0  0  0  0
    2.8478   -0.0863   -0.6646 C   0  0  1  0  0  0  0  0  0  0  0  0
    3.8080    0.4692   -0.7939 H   0  0  0  0  0  0  0  0  0  0  0  0
    3.0366   -1.4249   -1.0490 O   0  0  0  0  0  0  0  0  0  0  0  0
    3.5848   -1.4133   -1.8768 H   0  0  0  0  0  0  0  0  0  0  0  0
    1.7774    0.5826   -1.5645 C   0  0  2  0  0  0  0  0  0  0  0  0
    1.8008    0.1071   -2.5741 H   0  0  0  0  0  0  0  0  0  0  0  0
    2.0793    1.9493   -1.7006 O   0  0  0  0  0  0  0  0  0  0  0  0
    1.5676    2.2822   -2.4838 H   0  0  0  0  0  0  0  0  0  0  0  0
   -1.5011   -2.8979   -1.0574 C   0  0  0  0  0  0  0  0  0  0  0  0
   -1.8242   -3.1666   -2.0844 H   0  0  0  0  0  0  0  0  0  0  0  0
   -2.3030   -3.1693   -0.3395 H   0  0  0  0  0  0  0  0  0  0  0  0
   -0.5858   -3.4735   -0.8010 H   0  0  0  0  0  0  0  0  0  0  0  0
  1  2  1  0
  2  3  1  0
  3  4  2  0
  4  5  1  0
  5  6  1  6
  5  7  1  0
  7  8  1  6
  7  9  1  0
  9 10  1  0
 10 11  2  0
 10 12  1  0
 12 13  1  0
 12 14  1  0
  7 15  1  0
 15 16  1  0
 16 17  1  1
 16 18  1  0
 18 19  1  0
 18 20  1  0
 18 21  1  0
 21 22  1  0
 16 23  1  0
 23 24  1  1
 23 25  1  0
 25 26  1  0
 23 27  1  0
 27 28  1  6
 27 29  1  0
 29 30  1  0
  3 31  1  0
 31 32  1  0
 31 33  1  0
 31 34  1  0
 27  5  1  0
M  END
>  <UniqueID>  (66) 
65

>  <SMILES>  (66) 
C/C(O)=N\[C@H]1[C@@H](OC(N)=O)O[C@H](CO)[C@@H](O)[C@@H]1O

>  <Energy>  (66) 
33.54369904350042

>  <Genealogy>  (66) 
CC(O)=N[C@H]1[C@@H](OC(N)=O)O[C@H](CO)[C@@H](O)[C@@H]1O (tautomer)
C/C(O)=N\[C@H]1[C@@H](OC(N)=O)O[C@H](CO)[C@@H](O)[C@@H]1O (cis-trans isomerization)
C/C(O)=N\[C@H]1[C@@H](OC(N)=O)O[C@H](CO)[C@@H](O)[C@@H]1O (3D coordinates assigned)
C/C(O)=N\[C@H]1[C@@H](OC(N)=O)O[C@H](CO)[C@@H](O)[C@@H]1O (nonaromatic ring conformer: 33.54369904350042 kcal/mol)

$$$$
46174147
     RDKit          3D

 34 34  0  0  0  0  0  0  0  0999 V2000
    1.0452    2.9540   -2.2882 H   0  0  0  0  0  0  0  0  0  0  0  0
    0.5180    2.4167   -1.5645 N   0  0  0  0  0  0  0  0  0  0  0  0
    0.2794    2.9231   -0.3979 C   0  0  0  0  0  0  0  0  0  0  0  0
    0.7237    4.2082   -0.1063 O   0  0  0  0  0  0  0  0  0  0  0  0
    0.5426    4.6225    0.7999 H   0  0  0  0  0  0  0  0  0  0  0  0
   -0.4340    2.2094    0.5779 O   0  0  0  0  0  0  0  0  0  0  0  0
   -0.8437    0.8381    0.4982 C   0  0  1  0  0  0  0  0  0  0  0  0
   -1.6804    0.7438    1.2219 H   0  0  0  0  0  0  0  0  0  0  0  0
   -1.2935    0.5233   -0.8104 O   0  0  0  0  0  0  0  0  0  0  0  0
   -1.8432   -0.7869   -0.8972 C   0  0  2  0  0  0  0  0  0  0  0  0
   -2.0261   -0.9711   -1.9793 H   0  0  0  0  0  0  0  0  0  0  0  0
   -3.2369   -0.8969   -0.2404 C   0  0  0  0  0  0  0  0  0  0  0  0
   -3.1873   -0.8621    0.8688 H   0  0  0  0  0  0  0  0  0  0  0  0
   -3.6809   -1.8804   -0.5045 H   0  0  0  0  0  0  0  0  0  0  0  0
   -4.0874    0.1067   -0.7259 O   0  0  0  0  0  0  0  0  0  0  0  0
   -3.8871    0.9273   -0.2045 H   0  0  0  0  0  0  0  0  0  0  0  0
   -0.8557   -1.8925   -0.4368 C   0  0  1  0  0  0  0  0  0  0  0  0
   -1.4209   -2.8493   -0.3354 H   0  0  0  0  0  0  0  0  0  0  0  0
    0.1263   -2.0643   -1.4274 O   0  0  0  0  0  0  0  0  0  0  0  0
    0.5563   -2.9438   -1.2610 H   0  0  0  0  0  0  0  0  0  0  0  0
   -0.1849   -1.5586    0.9179 C   0  0  2  0  0  0  0  0  0  0  0  0
    0.7035   -2.2182    1.0626 H   0  0  0  0  0  0  0  0  0  0  0  0
   -1.0835   -1.7834    1.9745 O   0  0  0  0  0  0  0  0  0  0  0  0
   -1.1507   -2.7671    2.0925 H   0  0  0  0  0  0  0  0  0  0  0  0
    0.2916   -0.0969    0.9602 C   0  0  1  0  0  0  0  0  0  0  0  0
    0.5291    0.1661    2.0153 H   0  0  0  0  0  0  0  0  0  0  0  0
    1.4918    0.0723    0.1327 N   0  0  0  0  0  0  0  0  0  0  0  0
    1.3953    0.0674   -0.9069 H   0  0  0  0  0  0  0  0  0  0  0  0
    2.8184    0.0604    0.6778 C   0  0  0  0  0  0  0  0  0  0  0  0
    3.0023   -0.0803    1.9171 O   0  0  0  0  0  0  0  0  0  0  0  0
    3.9962    0.1804   -0.2330 C   0  0  0  0  0  0  0  0  0  0  0  0
    4.9230    0.3677    0.3498 H   0  0  0  0  0  0  0  0  0  0  0  0
    3.8399    1.0245   -0.9370 H   0  0  0  0  0  0  0  0  0  0  0  0
    4.1136   -0.7601   -0.8103 H   0  0  0  0  0  0  0  0  0  0  0  0
  1  2  1  0
  2  3  2  0
  3  4  1  0
  4  5  1  0
  3  6  1  0
  6  7  1  0
  7  8  1  1
  7  9  1  0
  9 10  1  0
 10 11  1  6
 10 12  1  0
 12 13  1  0
 12 14  1  0
 12 15  1  0
 15 16  1  0
 10 17  1  0
 17 18  1  1
 17 19  1  0
 19 20  1  0
 17 21  1  0
 21 22  1  1
 21 23  1  0
 23 24  1  0
 21 25  1  0
 25 26  1  1
 25 27  1  0
 27 28  1  0
 27 29  1  0
 29 30  2  0
 29 31  1  0
 31 32  1  0
 31 33  1  0
 31 34  1  0
 25  7  1  0
M  END
>  <UniqueID>  (67) 
66

>  <SMILES>  (67) 
[H]/N=C(\O)O[C@H]1O[C@H](CO)[C@@H](O)[C@H](O)[C@H]1NC(C)=O

>  <Energy>  (67) 
33.787744041323506

>  <Genealogy>  (67) 
CC(=O)N[C@H]1[C@@H](OC(=N)O)O[C@H](CO)[C@@H](O)[C@@H]1O (tautomer)
[H]/N=C(\O)O[C@H]1O[C@H](CO)[C@@H](O)[C@H](O)[C@H]1NC(C)=O (cis-trans isomerization)
[H]/N=C(\O)O[C@H]1O[C@H](CO)[C@@H](O)[C@H](O)[C@H]1NC(C)=O (3D coordinates assigned)
[H]/N=C(\O)O[C@H]1O[C@H](CO)[C@@H](O)[C@H](O)[C@H]1NC(C)=O (nonaromatic ring conformer: 33.787744041323506 kcal/mol)

$$$$
45934204
     RDKit          3D

 38 38  0  0  0  0  0  0  0  0999 V2000
    1.6189    3.9003    0.7722 C   0  0  0  0  0  0  0  0  0  0  0  0
    0.4976    2.9839    0.4053 C   0  0  0  0  0  0  0  0  0  0  0  0
   -0.6460    3.1732    0.9008 O   0  0  0  0  0  0  0  0  0  0  0  0
    0.7209    1.9218   -0.5328 N   0  0  0  0  0  0  0  0  0  0  0  0
   -0.3233    0.9707   -0.9275 C   0  0  1  0  0  0  0  0  0  0  0  0
   -0.3323    0.8012   -2.4618 C   0  0  2  0  0  0  0  0  0  0  0  0
   -0.6377    2.0306   -3.0665 O   0  0  0  0  0  0  0  0  0  0  0  0
   -1.3262   -0.1326   -2.8412 O   0  0  0  0  0  0  0  0  0  0  0  0
   -1.0135   -1.4257   -2.3504 C   0  0  2  0  0  0  0  0  0  0  0  0
   -2.0274   -2.4222   -2.9325 C   0  0  0  0  0  0  0  0  0  0  0  0
   -2.0187   -2.3678   -4.3337 O   0  0  0  0  0  0  0  0  0  0  0  0
   -1.0552   -1.4354   -0.8037 C   0  0  1  0  0  0  0  0  0  0  0  0
   -0.6953   -2.7055   -0.3204 O   0  0  0  0  0  0  0  0  0  0  0  0
   -0.0724   -0.3871   -0.2485 C   0  0  2  0  0  0  0  0  0  0  0  0
   -0.2778   -0.2397    1.1497 O   0  0  0  0  0  0  0  0  0  0  0  0
    0.7079   -0.9208    1.9071 C   0  0  2  0  0  0  0  0  0  0  0  0
    0.1089   -1.3044    3.2587 C   0  0  0  0  0  0  0  0  0  0  0  0
    1.9064   -0.0358    2.1048 C   0  0  0  0  0  0  0  0  0  0  0  0
    1.7963    1.0618    2.7129 O   0  0  0  0  0  0  0  0  0  0  0  0
    3.1426   -0.4189    1.6005 O   0  0  0  0  0  1  0  0  0  0  0  0
    2.5439    3.3128    0.9499 H   0  0  0  0  0  0  0  0  0  0  0  0
    1.7952    4.6174   -0.0560 H   0  0  0  0  0  0  0  0  0  0  0  0
    1.3729    4.4646    1.6968 H   0  0  0  0  0  0  0  0  0  0  0  0
    1.6941    1.7643   -0.8814 H   0  0  0  0  0  0  0  0  0  0  0  0
   -1.3262    1.3457   -0.6216 H   0  0  0  0  0  0  0  0  0  0  0  0
    0.6708    0.4582   -2.8195 H   0  0  0  0  0  0  0  0  0  0  0  0
    0.2026    2.5587   -3.0969 H   0  0  0  0  0  0  0  0  0  0  0  0
   -0.0013   -1.7428   -2.6970 H   0  0  0  0  0  0  0  0  0  0  0  0
   -1.7987   -3.4583   -2.5941 H   0  0  0  0  0  0  0  0  0  0  0  0
   -3.0484   -2.1655   -2.5773 H   0  0  0  0  0  0  0  0  0  0  0  0
   -1.1949   -2.8353   -4.6313 H   0  0  0  0  0  0  0  0  0  0  0  0
   -2.0844   -1.1610   -0.4647 H   0  0  0  0  0  0  0  0  0  0  0  0
   -1.5363   -3.1999   -0.1368 H   0  0  0  0  0  0  0  0  0  0  0  0
    0.9702   -0.6981   -0.5099 H   0  0  0  0  0  0  0  0  0  0  0  0
    1.0299   -1.8735    1.4246 H   0  0  0  0  0  0  0  0  0  0  0  0
   -0.7515   -1.9897    3.1043 H   0  0  0  0  0  0  0  0  0  0  0  0
   -0.2507   -0.4022    3.7989 H   0  0  0  0  0  0  0  0  0  0  0  0
    0.8663   -1.8255    3.8831 H   0  0  0  0  0  0  0  0  0  0  0  0
  1  2  1  0
  2  3  2  0
  2  4  1  0
  4  5  1  0
  5  6  1  0
  6  7  1  0
  6  8  1  0
  8  9  1  0
  9 10  1  0
 10 11  1  0
  9 12  1  0
 12 13  1  0
 12 14  1  0
 14 15  1  0
 15 16  1  0
 16 17  1  0
 16 18  1  0
 18 19  2  0
 18 20  1  0
 14  5  1  0
  1 21  1  0
  1 22  1  0
  1 23  1  0
  4 24  1  0
  5 25  1  1
  6 26  1  6
  7 27  1  0
  9 28  1  1
 10 29  1  0
 10 30  1  0
 11 31  1  0
 12 32  1  6
 13 33  1  0
 14 34  1  1
 16 35  1  6
 17 36  1  0
 17 37  1  0
 17 38  1  0
M  CHG  1  20  -1
M  END
>  <UniqueID>  (68) 
67

>  <SMILES>  (68) 
CC(=O)N[C@H]1[C@H](O)O[C@H](CO)[C@@H](O)[C@@H]1O[C@H](C)C(=O)[O-]

>  <Energy>  (68) 
31.072361513510398

>  <Genealogy>  (68) 
CC(=O)N[C@H]1[C@H](O)O[C@H](CO)[C@@H](O)[C@@H]1OC(C)C(=O)[O-] (protonated)
CC(=O)N[C@H]1[C@H](O)O[C@H](CO)[C@@H](O)[C@@H]1O[C@H](C)C(=O)[O-] (chirality)
CC(=O)N[C@H]1[C@H](O)O[C@H](CO)[C@@H](O)[C@@H]1O[C@H](C)C(=O)[O-] (3D coordinates assigned)
CC(=O)N[C@H]1[C@H](O)O[C@H](CO)[C@@H](O)[C@@H]1O[C@H](C)C(=O)[O-] (nonaromatic ring conformer: 31.072361513510398 kcal/mol)

$$$$
45934204
     RDKit          3D

 38 38  0  0  0  0  0  0  0  0999 V2000
   -1.9788    2.4707    3.0555 H   0  0  0  0  0  0  0  0  0  0  0  0
   -1.7476    1.7409    2.3924 O   0  0  0  0  0  0  0  0  0  0  0  0
   -2.4752    1.5772    1.2137 C   0  0  0  0  0  0  0  0  0  0  0  0
   -2.1807    0.6261    0.3788 N   0  0  0  0  0  0  0  0  0  0  0  0
   -1.0767   -0.3212    0.5517 C   0  0  1  0  0  0  0  0  0  0  0  0
   -0.9349   -0.5526    1.6327 H   0  0  0  0  0  0  0  0  0  0  0  0
   -1.4244   -1.6342   -0.1703 C   0  0  2  0  0  0  0  0  0  0  0  0
   -1.6209   -1.4278   -1.2513 H   0  0  0  0  0  0  0  0  0  0  0  0
   -2.5887   -2.1703    0.3977 O   0  0  0  0  0  0  0  0  0  0  0  0
   -2.8377   -2.9533   -0.1594 H   0  0  0  0  0  0  0  0  0  0  0  0
   -0.3708   -2.5687   -0.0181 O   0  0  0  0  0  0  0  0  0  0  0  0
    0.7956   -2.1191   -0.6861 C   0  0  2  0  0  0  0  0  0  0  0  0
    0.5743   -1.9269   -1.7630 H   0  0  0  0  0  0  0  0  0  0  0  0
    1.8357   -3.2471   -0.6280 C   0  0  0  0  0  0  0  0  0  0  0  0
    2.1889   -3.3860    0.4189 H   0  0  0  0  0  0  0  0  0  0  0  0
    1.3583   -4.1950   -0.9641 H   0  0  0  0  0  0  0  0  0  0  0  0
    2.9196   -2.9594   -1.4679 O   0  0  0  0  0  0  0  0  0  0  0  0
    3.5535   -3.7165   -1.3687 H   0  0  0  0  0  0  0  0  0  0  0  0
    1.3257   -0.8252   -0.0203 C   0  0  1  0  0  0  0  0  0  0  0  0
    1.5905   -1.0593    1.0396 H   0  0  0  0  0  0  0  0  0  0  0  0
    2.4558   -0.3644   -0.7163 O   0  0  0  0  0  0  0  0  0  0  0  0
    3.0325    0.1031   -0.0573 H   0  0  0  0  0  0  0  0  0  0  0  0
    0.2274    0.2607   -0.0313 C   0  0  2  0  0  0  0  0  0  0  0  0
    0.0129    0.5463   -1.0914 H   0  0  0  0  0  0  0  0  0  0  0  0
    0.6396    1.3619    0.7668 O   0  0  0  0  0  0  0  0  0  0  0  0
    1.1349    2.4350   -0.0177 C   0  0  1  0  0  0  0  0  0  0  0  0
    1.6656    2.0846   -0.9336 H   0  0  0  0  0  0  0  0  0  0  0  0
    0.0052    3.3394   -0.4261 C   0  0  0  0  0  0  0  0  0  0  0  0
   -0.5921    4.0458    0.4291 O   0  0  0  0  0  0  0  0  0  0  0  0
   -0.4108    3.3718   -1.7509 O   0  0  0  0  0  1  0  0  0  0  0  0
    2.1652    3.2082    0.8045 C   0  0  0  0  0  0  0  0  0  0  0  0
    3.0177    2.5425    1.0569 H   0  0  0  0  0  0  0  0  0  0  0  0
    1.7152    3.5776    1.7511 H   0  0  0  0  0  0  0  0  0  0  0  0
    2.5537    4.0722    0.2235 H   0  0  0  0  0  0  0  0  0  0  0  0
   -3.6326    2.4765    0.9214 C   0  0  0  0  0  0  0  0  0  0  0  0
   -4.5477    2.0662    1.3963 H   0  0  0  0  0  0  0  0  0  0  0  0
   -3.4362    3.4918    1.3247 H   0  0  0  0  0  0  0  0  0  0  0  0
   -3.7939    2.5579   -0.1747 H   0  0  0  0  0  0  0  0  0  0  0  0
  1  2  1  0
  2  3  1  0
  3  4  2  0
  4  5  1  0
  5  6  1  1
  5  7  1  0
  7  8  1  6
  7  9  1  0
  9 10  1  0
  7 11  1  0
 11 12  1  0
 12 13  1  6
 12 14  1  0
 14 15  1  0
 14 16  1  0
 14 17  1  0
 17 18  1  0
 12 19  1  0
 19 20  1  1
 19 21  1  0
 21 22  1  0
 19 23  1  0
 23 24  1  6
 23 25  1  0
 25 26  1  0
 26 27  1  6
 26 28  1  0
 28 29  2  0
 28 30  1  0
 26 31  1  0
 31 32  1  0
 31 33  1  0
 31 34  1  0
  3 35  1  0
 35 36  1  0
 35 37  1  0
 35 38  1  0
 23  5  1  0
M  CHG  1  30  -1
M  END
>  <UniqueID>  (69) 
68

>  <SMILES>  (69) 
C/C(O)=N\[C@H]1[C@H](O)O[C@H](CO)[C@@H](O)[C@@H]1O[C@H](C)C(=O)[O-]

>  <Energy>  (69) 
31.4106783322688

>  <Genealogy>  (69) 
CC(=O)N[C@H]1[C@H](O)O[C@H](CO)[C@@H](O)[C@@H]1OC(C)C(=O)[O-] (protonated)
CC(O)=N[C@H]1[C@H](O)O[C@H](CO)[C@@H](O)[C@@H]1OC(C)C(=O)[O-] (tautomer)
CC(O)=N[C@H]1[C@H](O)O[C@H](CO)[C@@H](O)[C@@H]1O[C@H](C)C(=O)[O-] (chirality)
C/C(O)=N\[C@H]1[C@H](O)O[C@H](CO)[C@@H](O)[C@@H]1O[C@H](C)C(=O)[O-] (cis-trans isomerization)
C/C(O)=N\[C@H]1[C@H](O)O[C@H](CO)[C@@H](O)[C@@H]1O[C@H](C)C(=O)[O-] (3D coordinates assigned)
C/C(O)=N\[C@H]1[C@H](O)O[C@H](CO)[C@@H](O)[C@@H]1O[C@H](C)C(=O)[O-] (nonaromatic ring conformer: 31.4106783322688 kcal/mol)

$$$$
45934204
     RDKit          3D

 38 38  0  0  0  0  0  0  0  0999 V2000
   -3.4058    3.6497    0.5515 H   0  0  0  0  0  0  0  0  0  0  0  0
   -2.5307    3.1463    0.4693 O   0  0  0  0  0  0  0  0  0  0  0  0
   -2.1437    2.2099    1.4276 C   0  0  0  0  0  0  0  0  0  0  0  0
   -1.0310    1.5512    1.3008 N   0  0  0  0  0  0  0  0  0  0  0  0
   -0.0746    1.7264    0.2052 C   0  0  1  0  0  0  0  0  0  0  0  0
   -0.6141    1.9611   -0.7414 H   0  0  0  0  0  0  0  0  0  0  0  0
    0.9123    2.8683    0.5283 C   0  0  2  0  0  0  0  0  0  0  0  0
    1.4225    2.6548    1.4997 H   0  0  0  0  0  0  0  0  0  0  0  0
    0.2043    4.0710    0.6550 O   0  0  0  0  0  0  0  0  0  0  0  0
    0.8567    4.7491    0.9714 H   0  0  0  0  0  0  0  0  0  0  0  0
    1.8596    3.0084   -0.5168 O   0  0  0  0  0  0  0  0  0  0  0  0
    2.6769    1.8539   -0.6096 C   0  0  2  0  0  0  0  0  0  0  0  0
    3.1732    1.6524    0.3693 H   0  0  0  0  0  0  0  0  0  0  0  0
    3.8006    2.1264   -1.6231 C   0  0  0  0  0  0  0  0  0  0  0  0
    4.4127    2.9918   -1.2797 H   0  0  0  0  0  0  0  0  0  0  0  0
    4.4801    1.2495   -1.6770 H   0  0  0  0  0  0  0  0  0  0  0  0
    3.2824    2.3742   -2.9034 O   0  0  0  0  0  0  0  0  0  0  0  0
    2.9671    3.3155   -2.9075 H   0  0  0  0  0  0  0  0  0  0  0  0
    1.8318    0.6244   -1.0171 C   0  0  1  0  0  0  0  0  0  0  0  0
    1.3804    0.8168   -2.0202 H   0  0  0  0  0  0  0  0  0  0  0  0
    2.6519   -0.5155   -1.0633 O   0  0  0  0  0  0  0  0  0  0  0  0
    2.2220   -1.1556   -1.6887 H   0  0  0  0  0  0  0  0  0  0  0  0
    0.6995    0.4124    0.0068 C   0  0  2  0  0  0  0  0  0  0  0  0
    1.1583    0.1462    0.9916 H   0  0  0  0  0  0  0  0  0  0  0  0
   -0.2021   -0.5717   -0.4803 O   0  0  0  0  0  0  0  0  0  0  0  0
   -0.0540   -1.8154    0.1851 C   0  0  2  0  0  0  0  0  0  0  0  0
    1.0062   -2.0231    0.4627 H   0  0  0  0  0  0  0  0  0  0  0  0
   -0.4874   -2.9092   -0.7440 C   0  0  0  0  0  0  0  0  0  0  0  0
   -1.5469   -2.7926   -1.4156 O   0  0  0  0  0  0  0  0  0  0  0  0
    0.2597   -4.0767   -0.8399 O   0  0  0  0  0  1  0  0  0  0  0  0
   -0.9183   -1.8477    1.4494 C   0  0  0  0  0  0  0  0  0  0  0  0
   -0.8681   -2.8507    1.9251 H   0  0  0  0  0  0  0  0  0  0  0  0
   -1.9766   -1.6146    1.2027 H   0  0  0  0  0  0  0  0  0  0  0  0
   -0.5531   -1.1009    2.1844 H   0  0  0  0  0  0  0  0  0  0  0  0
   -3.0367    1.9240    2.5913 C   0  0  0  0  0  0  0  0  0  0  0  0
   -3.8411    1.2279    2.2755 H   0  0  0  0  0  0  0  0  0  0  0  0
   -3.4927    2.8675    2.9572 H   0  0  0  0  0  0  0  0  0  0  0  0
   -2.4615    1.4624    3.4224 H   0  0  0  0  0  0  0  0  0  0  0  0
  1  2  1  0
  2  3  1  0
  3  4  2  0
  4  5  1  0
  5  6  1  6
  5  7  1  0
  7  8  1  1
  7  9  1  0
  9 10  1  0
  7 11  1  0
 11 12  1  0
 12 13  1  1
 12 14  1  0
 14 15  1  0
 14 16  1  0
 14 17  1  0
 17 18  1  0
 12 19  1  0
 19 20  1  6
 19 21  1  0
 21 22  1  0
 19 23  1  0
 23 24  1  1
 23 25  1  0
 25 26  1  0
 26 27  1  1
 26 28  1  0
 28 29  2  0
 28 30  1  0
 26 31  1  0
 31 32  1  0
 31 33  1  0
 31 34  1  0
  3 35  1  0
 35 36  1  0
 35 37  1  0
 35 38  1  0
 23  5  1  0
M  CHG  1  30  -1
M  END
>  <UniqueID>  (70) 
69

>  <SMILES>  (70) 
C/C(O)=N\[C@H]1[C@H](O)O[C@H](CO)[C@@H](O)[C@@H]1O[C@@H](C)C(=O)[O-]

>  <Energy>  (70) 
32.082218213779164

>  <Genealogy>  (70) 
CC(=O)N[C@H]1[C@H](O)O[C@H](CO)[C@@H](O)[C@@H]1OC(C)C(=O)[O-] (protonated)
CC(O)=N[C@H]1[C@H](O)O[C@H](CO)[C@@H](O)[C@@H]1OC(C)C(=O)[O-] (tautomer)
CC(O)=N[C@H]1[C@H](O)O[C@H](CO)[C@@H](O)[C@@H]1O[C@@H](C)C(=O)[O-] (chirality)
C/C(O)=N\[C@H]1[C@H](O)O[C@H](CO)[C@@H](O)[C@@H]1O[C@@H](C)C(=O)[O-] (cis-trans isomerization)
C/C(O)=N\[C@H]1[C@H](O)O[C@H](CO)[C@@H](O)[C@@H]1O[C@@H](C)C(=O)[O-] (3D coordinates assigned)
C/C(O)=N\[C@H]1[C@H](O)O[C@H](CO)[C@@H](O)[C@@H]1O[C@@H](C)C(=O)[O-] (nonaromatic ring conformer: 32.082218213779164 kcal/mol)

$$$$
45933887
     RDKit          3D

 25 25  0  0  0  0  0  0  0  0999 V2000
    1.3831   -2.1395    1.1624 N   0  0  0  0  0  0  0  0  0  0  0  0
    1.5502   -0.7514    0.7212 C   0  0  2  0  0  0  0  0  0  0  0  0
    0.2255    0.0377    0.8210 C   0  0  1  0  0  0  0  0  0  0  0  0
   -0.1937    0.0638    2.1584 O   0  0  0  0  0  0  0  0  0  0  0  0
    0.4190    1.3707    0.3795 O   0  0  0  0  0  0  0  0  0  0  0  0
    0.7307    1.4017   -1.0035 C   0  0  1  0  0  0  0  0  0  0  0  0
    0.7389    2.8698   -1.4523 C   0  0  0  0  0  0  0  0  0  0  0  0
    0.7651    2.9545   -2.8506 O   0  0  0  0  0  0  0  0  0  0  0  0
    2.1006    0.7218   -1.2542 C   0  0  2  0  0  0  0  0  0  0  0  0
    2.3885    0.6957   -2.6301 O   0  0  0  0  0  0  0  0  0  0  0  0
    2.0657   -0.7239   -0.7272 C   0  0  1  0  0  0  0  0  0  0  0  0
    3.3543   -1.2817   -0.7700 O   0  0  0  0  0  0  0  0  0  0  0  0
    1.1632   -2.1462    2.1848 H   0  0  0  0  0  0  0  0  0  0  0  0
    0.5708   -2.5704    0.6631 H   0  0  0  0  0  0  0  0  0  0  0  0
    2.3060   -0.2583    1.3748 H   0  0  0  0  0  0  0  0  0  0  0  0
   -0.5626   -0.4694    0.2120 H   0  0  0  0  0  0  0  0  0  0  0  0
   -1.0937    0.4828    2.1623 H   0  0  0  0  0  0  0  0  0  0  0  0
   -0.0630    0.8802   -1.5900 H   0  0  0  0  0  0  0  0  0  0  0  0
    1.6193    3.3964   -1.0192 H   0  0  0  0  0  0  0  0  0  0  0  0
   -0.1842    3.3667   -1.0777 H   0  0  0  0  0  0  0  0  0  0  0  0
    0.7892    3.9226   -3.0676 H   0  0  0  0  0  0  0  0  0  0  0  0
    2.8918    1.2775   -0.6931 H   0  0  0  0  0  0  0  0  0  0  0  0
    3.0054    1.4510   -2.8160 H   0  0  0  0  0  0  0  0  0  0  0  0
    1.3705   -1.3252   -1.3620 H   0  0  0  0  0  0  0  0  0  0  0  0
    3.5195   -1.5550   -1.7100 H   0  0  0  0  0  0  0  0  0  0  0  0
  1  2  1  0
  2  3  1  0
  3  4  1  0
  3  5  1  0
  5  6  1  0
  6  7  1  0
  7  8  1  0
  6  9  1  0
  9 10  1  0
  9 11  1  0
 11 12  1  0
 11  2  1  0
  1 13  1  0
  1 14  1  0
  2 15  1  1
  3 16  1  6
  4 17  1  0
  6 18  1  6
  7 19  1  0
  7 20  1  0
  8 21  1  0
  9 22  1  1
 10 23  1  0
 11 24  1  6
 12 25  1  0
M  END
>  <UniqueID>  (71) 
70

>  <SMILES>  (71) 
N[C@@H]1[C@@H](O)O[C@@H](CO)[C@H](O)[C@H]1O

>  <Energy>  (71) 
21.353627453904878

>  <Genealogy>  (71) 
N[C@@H]1[C@@H](O)O[C@@H](CO)[C@H](O)[C@H]1O (chirality)
N[C@@H]1[C@@H](O)O[C@@H](CO)[C@H](O)[C@H]1O (3D coordinates assigned)
N[C@@H]1[C@@H](O)O[C@@H](CO)[C@H](O)[C@H]1O (nonaromatic ring conformer: 21.353627453904878 kcal/mol)

$$$$
45933887
     RDKit          3D

 26 26  0  0  0  0  0  0  0  0999 V2000
    0.0243    0.5501    3.2902 N   0  0  0  0  0  4  0  0  0  0  0  0
    0.1271    0.3458    1.8378 C   0  0  2  0  0  0  0  0  0  0  0  0
   -1.2598    0.4747    1.1670 C   0  0  1  0  0  0  0  0  0  0  0  0
   -1.7621    1.7644    1.3911 O   0  0  0  0  0  0  0  0  0  0  0  0
   -1.1496    0.2703   -0.2309 O   0  0  0  0  0  0  0  0  0  0  0  0
   -0.7657   -1.0641   -0.5144 C   0  0  1  0  0  0  0  0  0  0  0  0
   -0.8528   -1.2668   -2.0338 C   0  0  0  0  0  0  0  0  0  0  0  0
   -0.7082   -2.6224   -2.3573 O   0  0  0  0  0  0  0  0  0  0  0  0
    0.6664   -1.3242    0.0100 C   0  0  2  0  0  0  0  0  0  0  0  0
    1.0290   -2.6600   -0.2317 O   0  0  0  0  0  0  0  0  0  0  0  0
    0.7275   -1.0428    1.5219 C   0  0  1  0  0  0  0  0  0  0  0  0
    2.0682   -1.0925    1.9419 O   0  0  0  0  0  0  0  0  0  0  0  0
    0.9722    0.4988    3.7278 H   0  0  0  0  0  0  0  0  0  0  0  0
   -0.5942   -0.1753    3.7214 H   0  0  0  0  0  0  0  0  0  0  0  0
   -0.3665    1.4982    3.4938 H   0  0  0  0  0  0  0  0  0  0  0  0
    0.7966    1.1280    1.4110 H   0  0  0  0  0  0  0  0  0  0  0  0
   -1.9649   -0.2638    1.6213 H   0  0  0  0  0  0  0  0  0  0  0  0
   -2.6926    1.7673    1.0452 H   0  0  0  0  0  0  0  0  0  0  0  0
   -1.4786   -1.7817   -0.0425 H   0  0  0  0  0  0  0  0  0  0  0  0
   -1.8475   -0.9137   -2.3879 H   0  0  0  0  0  0  0  0  0  0  0  0
   -0.0667   -0.6655   -2.5442 H   0  0  0  0  0  0  0  0  0  0  0  0
   -0.7597   -2.6765   -3.3469 H   0  0  0  0  0  0  0  0  0  0  0  0
    1.3673   -0.6339   -0.5186 H   0  0  0  0  0  0  0  0  0  0  0  0
    2.0210   -2.6972   -0.2170 H   0  0  0  0  0  0  0  0  0  0  0  0
    0.1258   -1.8282    2.0422 H   0  0  0  0  0  0  0  0  0  0  0  0
    2.0749   -1.4739    2.8584 H   0  0  0  0  0  0  0  0  0  0  0  0
  1  2  1  0
  2  3  1  0
  3  4  1  0
  3  5  1  0
  5  6  1  0
  6  7  1  0
  7  8  1  0
  6  9  1  0
  9 10  1  0
  9 11  1  0
 11 12  1  0
 11  2  1  0
  1 13  1  0
  1 14  1  0
  1 15  1  0
  2 16  1  6
  3 17  1  1
  4 18  1  0
  6 19  1  1
  7 20  1  0
  7 21  1  0
  8 22  1  0
  9 23  1  6
 10 24  1  0
 11 25  1  1
 12 26  1  0
M  CHG  1   1   1
M  END
>  <UniqueID>  (72) 
71

>  <SMILES>  (72) 
[NH3+][C@@H]1[C@@H](O)O[C@@H](CO)[C@H](O)[C@H]1O

>  <Energy>  (72) 
22.4335437701142

>  <Genealogy>  (72) 
[NH3+][C@@H]1C(O)O[C@@H](CO)[C@H](O)[C@H]1O (protonated)
[NH3+][C@@H]1[C@@H](O)O[C@@H](CO)[C@H](O)[C@H]1O (chirality)
[NH3+][C@@H]1[C@@H](O)O[C@@H](CO)[C@H](O)[C@H]1O (3D coordinates assigned)
[NH3+][C@@H]1[C@@H](O)O[C@@H](CO)[C@H](O)[C@H]1O (nonaromatic ring conformer: 22.4335437701142 kcal/mol)

$$$$
45933887
     RDKit          3D

 25 25  0  0  0  0  0  0  0  0999 V2000
    0.3366   -1.8746   -0.4110 N   0  0  0  0  0  0  0  0  0  0  0  0
    1.2929   -1.0992    0.3853 C   0  0  2  0  0  0  0  0  0  0  0  0
    0.5672    0.0970    1.0857 C   0  0  1  0  0  0  0  0  0  0  0  0
    0.9104    0.1200    2.4460 O   0  0  0  0  0  0  0  0  0  0  0  0
    0.9197    1.3541    0.5267 O   0  0  0  0  0  0  0  0  0  0  0  0
    0.7862    1.3275   -0.8823 C   0  0  1  0  0  0  0  0  0  0  0  0
    0.7994    2.7716   -1.4045 C   0  0  0  0  0  0  0  0  0  0  0  0
    0.6453    2.8024   -2.7983 O   0  0  0  0  0  0  0  0  0  0  0  0
    1.9297    0.4848   -1.5082 C   0  0  2  0  0  0  0  0  0  0  0  0
    1.4560   -0.1311   -2.6792 O   0  0  0  0  0  0  0  0  0  0  0  0
    2.4398   -0.5892   -0.5121 C   0  0  1  0  0  0  0  0  0  0  0  0
    3.4447   -0.0439    0.3063 O   0  0  0  0  0  0  0  0  0  0  0  0
   -0.3774   -2.2793    0.2378 H   0  0  0  0  0  0  0  0  0  0  0  0
    0.8369   -2.6938   -0.8269 H   0  0  0  0  0  0  0  0  0  0  0  0
    1.7328   -1.7764    1.1544 H   0  0  0  0  0  0  0  0  0  0  0  0
   -0.5414   -0.0190    1.0087 H   0  0  0  0  0  0  0  0  0  0  0  0
    0.4096   -0.6186    2.8823 H   0  0  0  0  0  0  0  0  0  0  0  0
   -0.2032    0.8920   -1.1647 H   0  0  0  0  0  0  0  0  0  0  0  0
    1.7618    3.2594   -1.1389 H   0  0  0  0  0  0  0  0  0  0  0  0
   -0.0148    3.3551   -0.9171 H   0  0  0  0  0  0  0  0  0  0  0  0
   -0.3107    2.6079   -2.9828 H   0  0  0  0  0  0  0  0  0  0  0  0
    2.7850    1.1533   -1.7695 H   0  0  0  0  0  0  0  0  0  0  0  0
    2.2529   -0.4044   -3.2047 H   0  0  0  0  0  0  0  0  0  0  0  0
    2.8666   -1.4541   -1.0737 H   0  0  0  0  0  0  0  0  0  0  0  0
    4.2739   -0.0083   -0.2390 H   0  0  0  0  0  0  0  0  0  0  0  0
  1  2  1  0
  2  3  1  0
  3  4  1  0
  3  5  1  0
  5  6  1  0
  6  7  1  0
  7  8  1  0
  6  9  1  0
  9 10  1  0
  9 11  1  0
 11 12  1  0
 11  2  1  0
  1 13  1  0
  1 14  1  0
  2 15  1  1
  3 16  1  1
  4 17  1  0
  6 18  1  1
  7 19  1  0
  7 20  1  0
  8 21  1  0
  9 22  1  6
 10 23  1  0
 11 24  1  6
 12 25  1  0
M  END
>  <UniqueID>  (73) 
72

>  <SMILES>  (73) 
N[C@@H]1[C@@H](O)O[C@@H](CO)[C@H](O)[C@H]1O

>  <Energy>  (73) 
30.04587901281476

>  <Genealogy>  (73) 
N[C@@H]1[C@@H](O)O[C@@H](CO)[C@H](O)[C@H]1O (chirality)
N[C@@H]1[C@@H](O)O[C@@H](CO)[C@H](O)[C@H]1O (3D coordinates assigned)
N[C@@H]1[C@@H](O)O[C@@H](CO)[C@H](O)[C@H]1O (nonaromatic ring conformer: 30.04587901281476 kcal/mol)

$$$$
45357367
     RDKit          3D

 33 33  0  0  0  0  0  0  0  0999 V2000
    2.6446   -0.9407   -0.3436 H   0  0  0  0  0  0  0  0  0  0  0  0
    2.1545   -1.7390   -0.7218 O   0  0  0  0  0  0  0  0  0  0  0  0
    0.8525   -1.6900   -1.2334 C   0  0  0  0  0  0  0  0  0  0  0  0
    0.1517   -0.5899   -1.2280 N   0  0  0  0  0  0  0  0  0  0  0  0
    0.5450    0.7151   -0.6888 C   0  0  1  0  0  0  0  0  0  0  0  0
    1.6215    0.9145   -0.8841 H   0  0  0  0  0  0  0  0  0  0  0  0
   -0.2591    1.8125   -1.4074 C   0  0  2  0  0  0  0  0  0  0  0  0
   -1.3532    1.6185   -1.2840 H   0  0  0  0  0  0  0  0  0  0  0  0
    0.0454    1.7766   -2.7756 O   0  0  0  0  0  0  0  0  0  0  0  0
   -0.5661    2.4229   -3.2160 H   0  0  0  0  0  0  0  0  0  0  0  0
    0.0888    3.0874   -0.8958 O   0  0  0  0  0  0  0  0  0  0  0  0
   -0.3245    3.2141    0.4544 C   0  0  2  0  0  0  0  0  0  0  0  0
   -1.4209    3.0246    0.5421 H   0  0  0  0  0  0  0  0  0  0  0  0
   -0.0762    4.6654    0.8893 C   0  0  0  0  0  0  0  0  0  0  0  0
   -0.5218    5.3495    0.1325 H   0  0  0  0  0  0  0  0  0  0  0  0
    1.0180    4.8659    0.9401 H   0  0  0  0  0  0  0  0  0  0  0  0
   -0.6695    4.9132    2.1342 O   0  0  0  0  0  0  0  0  0  0  0  0
   -0.4579    5.8568    2.3572 H   0  0  0  0  0  0  0  0  0  0  0  0
    0.4533    2.2155    1.3461 C   0  0  1  0  0  0  0  0  0  0  0  0
    1.5400    2.4691    1.2963 H   0  0  0  0  0  0  0  0  0  0  0  0
   -0.0082    2.3013    2.6706 O   0  0  0  0  0  0  0  0  0  0  0  0
    0.7365    2.0059    3.2569 H   0  0  0  0  0  0  0  0  0  0  0  0
    0.2498    0.7800    0.8229 C   0  0  2  0  0  0  0  0  0  0  0  0
   -0.8161    0.4845    0.9826 H   0  0  0  0  0  0  0  0  0  0  0  0
    1.0990   -0.1012    1.5114 O   0  0  0  0  0  0  0  0  0  0  0  0
    0.6370   -0.3528    2.3533 H   0  0  0  0  0  0  0  0  0  0  0  0
    0.2754   -2.8818   -1.7907 N   0  0  0  0  0  0  0  0  0  0  0  0
   -0.9697   -2.7945   -2.4407 N   0  0  0  0  0  0  0  0  0  0  0  0
   -1.4740   -3.7769   -3.0234 O   0  0  0  0  0  0  0  0  0  0  0  0
    1.0397   -4.1317   -1.8100 C   0  0  0  0  0  0  0  0  0  0  0  0
    1.6508   -4.2314   -0.8881 H   0  0  0  0  0  0  0  0  0  0  0  0
    0.3589   -5.0075   -1.8497 H   0  0  0  0  0  0  0  0  0  0  0  0
    1.7064   -4.1461   -2.6973 H   0  0  0  0  0  0  0  0  0  0  0  0
  1  2  1  0
  2  3  1  0
  3  4  2  0
  4  5  1  0
  5  6  1  1
  5  7  1  0
  7  8  1  6
  7  9  1  0
  9 10  1  0
  7 11  1  0
 11 12  1  0
 12 13  1  6
 12 14  1  0
 14 15  1  0
 14 16  1  0
 14 17  1  0
 17 18  1  0
 12 19  1  0
 19 20  1  1
 19 21  1  0
 21 22  1  0
 19 23  1  0
 23 24  1  6
 23 25  1  0
 25 26  1  0
  3 27  1  0
 27 28  1  0
 28 29  2  0
 27 30  1  0
 30 31  1  0
 30 32  1  0
 30 33  1  0
 23  5  1  0
M  END
>  <UniqueID>  (74) 
73

>  <SMILES>  (74) 
CN(N=O)/C(O)=N/[C@H]1[C@H](O)O[C@H](CO)[C@@H](O)[C@@H]1O

>  <Energy>  (74) 
30.16746392513754

>  <Genealogy>  (74) 
CN(N=O)C(O)=NC1[C@H](O)O[C@H](CO)[C@@H](O)[C@@H]1O (tautomer)
CN(N=O)C(O)=N[C@H]1[C@H](O)O[C@H](CO)[C@@H](O)[C@@H]1O (chirality)
CN(N=O)/C(O)=N/[C@H]1[C@H](O)O[C@H](CO)[C@@H](O)[C@@H]1O (cis-trans isomerization)
CN(N=O)/C(O)=N/[C@H]1[C@H](O)O[C@H](CO)[C@@H](O)[C@@H]1O (3D coordinates assigned)
CN(N=O)/C(O)=N/[C@H]1[C@H](O)O[C@H](CO)[C@@H](O)[C@@H]1O (nonaromatic ring conformer: 30.16746392513754 kcal/mol)

$$$$
45357367
     RDKit          3D

 34 34  0  0  0  0  0  0  0  0999 V2000
   -4.8402   -0.7281    1.1583 H   0  0  0  0  0  0  0  0  0  0  0  0
   -4.6891   -1.3954    1.9032 O   0  0  0  0  0  0  0  0  0  0  0  0
   -3.4354   -1.6870    2.4062 N   0  0  0  0  0  0  0  0  0  0  0  0
   -2.3770   -1.0271    2.1222 N   0  0  0  0  0  4  0  0  0  0  0  0
   -2.3971    0.1557    1.3024 C   0  0  0  0  0  0  0  0  0  0  0  0
   -3.2440    1.0623    1.5305 O   0  0  0  0  0  0  0  0  0  0  0  0
   -1.4166    0.3300    0.2682 N   0  0  0  0  0  0  0  0  0  0  0  0
   -0.7369   -0.4451    0.0972 H   0  0  0  0  0  0  0  0  0  0  0  0
   -1.2411    1.5973   -0.4541 C   0  0  2  0  0  0  0  0  0  0  0  0
   -2.2009    2.1603   -0.4678 H   0  0  0  0  0  0  0  0  0  0  0  0
   -0.8281    1.3292   -1.9176 C   0  0  2  0  0  0  0  0  0  0  0  0
   -0.7970    2.2927   -2.4841 H   0  0  0  0  0  0  0  0  0  0  0  0
   -1.7675    0.4854   -2.5293 O   0  0  0  0  0  0  0  0  0  0  0  0
   -2.5844    1.0282   -2.6852 H   0  0  0  0  0  0  0  0  0  0  0  0
    0.4386    0.6973   -1.9646 O   0  0  0  0  0  0  0  0  0  0  0  0
    1.4525    1.5659   -1.4835 C   0  0  2  0  0  0  0  0  0  0  0  0
    1.4554    2.5204   -2.0616 H   0  0  0  0  0  0  0  0  0  0  0  0
    2.8152    0.8949   -1.7108 C   0  0  0  0  0  0  0  0  0  0  0  0
    2.8826   -0.0548   -1.1309 H   0  0  0  0  0  0  0  0  0  0  0  0
    3.6276    1.5650   -1.3589 H   0  0  0  0  0  0  0  0  0  0  0  0
    3.0182    0.6523   -3.0773 O   0  0  0  0  0  0  0  0  0  0  0  0
    2.5501   -0.1966   -3.2911 H   0  0  0  0  0  0  0  0  0  0  0  0
    1.2337    1.8737    0.0189 C   0  0  1  0  0  0  0  0  0  0  0  0
    1.3032    0.9240    0.6034 H   0  0  0  0  0  0  0  0  0  0  0  0
    2.1914    2.8011    0.4660 O   0  0  0  0  0  0  0  0  0  0  0  0
    2.9286    2.2843    0.8844 H   0  0  0  0  0  0  0  0  0  0  0  0
   -0.1710    2.4699    0.2277 C   0  0  2  0  0  0  0  0  0  0  0  0
   -0.2077    3.4807   -0.2457 H   0  0  0  0  0  0  0  0  0  0  0  0
   -0.4535    2.5854    1.5991 O   0  0  0  0  0  0  0  0  0  0  0  0
    0.0324    3.3861    1.9282 H   0  0  0  0  0  0  0  0  0  0  0  0
   -1.0982   -1.5210    2.6277 C   0  0  0  0  0  0  0  0  0  0  0  0
   -1.2368   -2.0176    3.6124 H   0  0  0  0  0  0  0  0  0  0  0  0
   -0.6719   -2.2535    1.9106 H   0  0  0  0  0  0  0  0  0  0  0  0
   -0.3814   -0.6822    2.7637 H   0  0  0  0  0  0  0  0  0  0  0  0
  1  2  1  0
  2  3  1  0
  3  4  2  0
  4  5  1  0
  5  6  2  0
  5  7  1  0
  7  8  1  0
  7  9  1  0
  9 10  1  6
  9 11  1  0
 11 12  1  6
 11 13  1  0
 13 14  1  0
 11 15  1  0
 15 16  1  0
 16 17  1  6
 16 18  1  0
 18 19  1  0
 18 20  1  0
 18 21  1  0
 21 22  1  0
 16 23  1  0
 23 24  1  1
 23 25  1  0
 25 26  1  0
 23 27  1  0
 27 28  1  6
 27 29  1  0
 29 30  1  0
  4 31  1  0
 31 32  1  0
 31 33  1  0
 31 34  1  0
 27  9  1  0
M  CHG  1   4   1
M  END
>  <UniqueID>  (75) 
74

>  <SMILES>  (75) 
C/[N+](=N/O)C(=O)N[C@@H]1[C@H](O)O[C@H](CO)[C@@H](O)[C@@H]1O

>  <Energy>  (75) 
35.939706770993844

>  <Genealogy>  (75) 
C[NH+](N=O)C(=O)NC1[C@H](O)O[C@H](CO)[C@@H](O)[C@@H]1O (protonated)
C[N+](=NO)C(=O)NC1[C@H](O)O[C@H](CO)[C@@H](O)[C@@H]1O (tautomer)
C[N+](=NO)C(=O)N[C@@H]1[C@H](O)O[C@H](CO)[C@@H](O)[C@@H]1O (chirality)
C/[N+](=N/O)C(=O)N[C@@H]1[C@H](O)O[C@H](CO)[C@@H](O)[C@@H]1O (cis-trans isomerization)
C/[N+](=N/O)C(=O)N[C@@H]1[C@H](O)O[C@H](CO)[C@@H](O)[C@@H]1O (3D coordinates assigned)
C/[N+](=N/O)C(=O)N[C@@H]1[C@H](O)O[C@H](CO)[C@@H](O)[C@@H]1O (nonaromatic ring conformer: 35.939706770993844 kcal/mol)

$$$$
45357367
     RDKit          3D

 33 33  0  0  0  0  0  0  0  0999 V2000
    2.2765   -2.7838   -1.5594 H   0  0  0  0  0  0  0  0  0  0  0  0
    1.8415   -2.0452   -1.0227 O   0  0  0  0  0  0  0  0  0  0  0  0
    0.5917   -1.5078   -1.3458 C   0  0  0  0  0  0  0  0  0  0  0  0
    0.0586   -0.6077   -0.5734 N   0  0  0  0  0  0  0  0  0  0  0  0
    0.6839   -0.0786    0.6420 C   0  0  1  0  0  0  0  0  0  0  0  0
    1.0579   -0.9367    1.2466 H   0  0  0  0  0  0  0  0  0  0  0  0
    1.8594    0.8857    0.2799 C   0  0  2  0  0  0  0  0  0  0  0  0
    2.0828    0.8398   -0.8140 H   0  0  0  0  0  0  0  0  0  0  0  0
    3.0128    0.4995    0.9796 O   0  0  0  0  0  0  0  0  0  0  0  0
    3.3687   -0.3097    0.5273 H   0  0  0  0  0  0  0  0  0  0  0  0
    1.5762    2.2337    0.6212 O   0  0  0  0  0  0  0  0  0  0  0  0
    0.3457    2.6452    0.0530 C   0  0  2  0  0  0  0  0  0  0  0  0
    0.3259    2.3938   -1.0353 H   0  0  0  0  0  0  0  0  0  0  0  0
    0.2580    4.1743    0.1559 C   0  0  0  0  0  0  0  0  0  0  0  0
    1.1630    4.6160   -0.3132 H   0  0  0  0  0  0  0  0  0  0  0  0
    0.2525    4.4944    1.2245 H   0  0  0  0  0  0  0  0  0  0  0  0
   -0.8668    4.6574   -0.5295 O   0  0  0  0  0  0  0  0  0  0  0  0
   -1.5902    4.7661    0.1414 H   0  0  0  0  0  0  0  0  0  0  0  0
   -0.8441    1.9481    0.7765 C   0  0  1  0  0  0  0  0  0  0  0  0
   -1.2718    2.6158    1.5628 H   0  0  0  0  0  0  0  0  0  0  0  0
   -1.8480    1.6306   -0.1552 O   0  0  0  0  0  0  0  0  0  0  0  0
   -2.3736    2.4571   -0.3119 H   0  0  0  0  0  0  0  0  0  0  0  0
   -0.3847    0.6521    1.4802 C   0  0  2  0  0  0  0  0  0  0  0  0
   -1.2693   -0.0152    1.6168 H   0  0  0  0  0  0  0  0  0  0  0  0
    0.1408    0.9737    2.7443 O   0  0  0  0  0  0  0  0  0  0  0  0
    0.1599    0.1327    3.2718 H   0  0  0  0  0  0  0  0  0  0  0  0
   -0.1230   -1.9409   -2.5181 N   0  0  0  0  0  0  0  0  0  0  0  0
   -1.4748   -1.5713   -2.6531 N   0  0  0  0  0  0  0  0  0  0  0  0
   -2.1734   -1.9678   -3.6089 O   0  0  0  0  0  0  0  0  0  0  0  0
    0.5201   -2.8047   -3.5126 C   0  0  0  0  0  0  0  0  0  0  0  0
   -0.0557   -2.8272   -4.4606 H   0  0  0  0  0  0  0  0  0  0  0  0
    1.5328   -2.4191   -3.7555 H   0  0  0  0  0  0  0  0  0  0  0  0
    0.5975   -3.8386   -3.1157 H   0  0  0  0  0  0  0  0  0  0  0  0
  1  2  1  0
  2  3  1  0
  3  4  2  0
  4  5  1  0
  5  6  1  1
  5  7  1  0
  7  8  1  6
  7  9  1  0
  9 10  1  0
  7 11  1  0
 11 12  1  0
 12 13  1  6
 12 14  1  0
 14 15  1  0
 14 16  1  0
 14 17  1  0
 17 18  1  0
 12 19  1  0
 19 20  1  1
 19 21  1  0
 21 22  1  0
 19 23  1  0
 23 24  1  1
 23 25  1  0
 25 26  1  0
  3 27  1  0
 27 28  1  0
 28 29  2  0
 27 30  1  0
 30 31  1  0
 30 32  1  0
 30 33  1  0
 23  5  1  0
M  END
>  <UniqueID>  (76) 
75

>  <SMILES>  (76) 
CN(N=O)/C(O)=N/[C@H]1[C@H](O)O[C@H](CO)[C@@H](O)[C@@H]1O

>  <Energy>  (76) 
37.95650000389406

>  <Genealogy>  (76) 
CN(N=O)C(O)=NC1[C@H](O)O[C@H](CO)[C@@H](O)[C@@H]1O (tautomer)
CN(N=O)C(O)=N[C@H]1[C@H](O)O[C@H](CO)[C@@H](O)[C@@H]1O (chirality)
CN(N=O)/C(O)=N/[C@H]1[C@H](O)O[C@H](CO)[C@@H](O)[C@@H]1O (cis-trans isomerization)
CN(N=O)/C(O)=N/[C@H]1[C@H](O)O[C@H](CO)[C@@H](O)[C@@H]1O (3D coordinates assigned)
CN(N=O)/C(O)=N/[C@H]1[C@H](O)O[C@H](CO)[C@@H](O)[C@@H]1O (nonaromatic ring conformer: 37.95650000389406 kcal/mol)

$$$$
45266822
     RDKit          3D

 52 52  0  0  0  0  0  0  0  0999 V2000
    5.6792    4.0733    2.5158 C   0  0  0  0  0  0  0  0  0  0  0  0
    5.3559    2.9579    1.5762 C   0  0  0  0  0  0  0  0  0  0  0  0
    6.2327    2.5524    0.7658 O   0  0  0  0  0  0  0  0  0  0  0  0
    4.0522    2.3599    1.6010 N   0  0  0  0  0  0  0  0  0  0  0  0
    3.6368    1.3216    0.6525 C   0  0  1  0  0  0  0  0  0  0  0  0
    2.7617    0.2716    1.3673 C   0  0  2  0  0  0  0  0  0  0  0  0
    3.5245   -0.3487    2.3664 O   0  0  0  0  0  0  0  0  0  0  0  0
    2.3209   -0.7154    0.4481 O   0  0  0  0  0  0  0  0  0  0  0  0
    1.4612   -0.1408   -0.5226 C   0  0  2  0  0  0  0  0  0  0  0  0
    0.8397   -1.2672   -1.3576 C   0  0  0  0  0  0  0  0  0  0  0  0
   -0.0806   -0.7234   -2.2763 O   0  0  0  0  0  0  0  0  0  0  0  0
   -0.7787   -2.0025   -3.1639 P   0  0  2  0  0  5  0  0  0  0  0  0
    0.2928   -2.7250   -3.9491 O   0  0  0  0  0  0  0  0  0  0  0  0
   -1.9064   -1.3647   -4.2522 O   0  0  0  0  0  1  0  0  0  0  0  0
   -1.5479   -3.1103   -2.1185 O   0  0  0  0  0  0  0  0  0  0  0  0
   -2.5967   -2.4428   -1.4560 C   0  0  0  0  0  0  0  0  0  0  0  0
   -3.2337   -3.4164   -0.4456 C   0  0  0  0  0  0  0  0  0  0  0  0
   -4.3581   -2.8553    0.3656 N   0  0  0  0  0  4  0  0  0  0  0  0
   -5.4799   -2.4139   -0.4980 C   0  0  0  0  0  0  0  0  0  0  0  0
   -4.8546   -3.9301    1.2596 C   0  0  0  0  0  0  0  0  0  0  0  0
   -3.9036   -1.7230    1.2090 C   0  0  0  0  0  0  0  0  0  0  0  0
    2.2442    0.8592   -1.4051 C   0  0  2  0  0  0  0  0  0  0  0  0
    3.2638    0.1840   -2.1004 O   0  0  0  0  0  0  0  0  0  0  0  0
    2.8493    1.9570   -0.5071 C   0  0  2  0  0  0  0  0  0  0  0  0
    3.6983    2.7900   -1.2537 O   0  0  0  0  0  0  0  0  0  0  0  0
    6.7274    4.4132    2.3750 H   0  0  0  0  0  0  0  0  0  0  0  0
    4.9952    4.9270    2.3274 H   0  0  0  0  0  0  0  0  0  0  0  0
    5.5508    3.7259    3.5622 H   0  0  0  0  0  0  0  0  0  0  0  0
    3.3313    2.7750    2.2348 H   0  0  0  0  0  0  0  0  0  0  0  0
    4.5298    0.7979    0.2421 H   0  0  0  0  0  0  0  0  0  0  0  0
    1.8894    0.7764    1.8508 H   0  0  0  0  0  0  0  0  0  0  0  0
    2.9027   -0.9367    2.8696 H   0  0  0  0  0  0  0  0  0  0  0  0
    0.6151    0.3911   -0.0252 H   0  0  0  0  0  0  0  0  0  0  0  0
    0.3261   -1.9627   -0.6555 H   0  0  0  0  0  0  0  0  0  0  0  0
    1.6498   -1.8217   -1.8836 H   0  0  0  0  0  0  0  0  0  0  0  0
   -3.3618   -2.1277   -2.1972 H   0  0  0  0  0  0  0  0  0  0  0  0
   -2.2032   -1.5573   -0.9127 H   0  0  0  0  0  0  0  0  0  0  0  0
   -2.4233   -3.7769    0.2295 H   0  0  0  0  0  0  0  0  0  0  0  0
   -3.5856   -4.3067   -1.0164 H   0  0  0  0  0  0  0  0  0  0  0  0
   -6.3721   -2.1448    0.1113 H   0  0  0  0  0  0  0  0  0  0  0  0
   -5.7780   -3.2180   -1.2073 H   0  0  0  0  0  0  0  0  0  0  0  0
   -5.2136   -1.5088   -1.0848 H   0  0  0  0  0  0  0  0  0  0  0  0
   -4.0494   -4.2897    1.9392 H   0  0  0  0  0  0  0  0  0  0  0  0
   -5.2227   -4.8016    0.6724 H   0  0  0  0  0  0  0  0  0  0  0  0
   -5.6969   -3.5739    1.8950 H   0  0  0  0  0  0  0  0  0  0  0  0
   -2.9987   -1.9990    1.7952 H   0  0  0  0  0  0  0  0  0  0  0  0
   -4.6970   -1.4150    1.9268 H   0  0  0  0  0  0  0  0  0  0  0  0
   -3.6667   -0.8253    0.5990 H   0  0  0  0  0  0  0  0  0  0  0  0
    1.5367    1.3351   -2.1248 H   0  0  0  0  0  0  0  0  0  0  0  0
    3.4701    0.7233   -2.9078 H   0  0  0  0  0  0  0  0  0  0  0  0
    2.0180    2.5656   -0.0769 H   0  0  0  0  0  0  0  0  0  0  0  0
    3.1142    3.3571   -1.8220 H   0  0  0  0  0  0  0  0  0  0  0  0
  1  2  1  0
  2  3  2  0
  2  4  1  0
  4  5  1  0
  5  6  1  0
  6  7  1  0
  6  8  1  0
  8  9  1  0
  9 10  1  0
 10 11  1  0
 11 12  1  0
 12 13  2  0
 12 14  1  6
 12 15  1  0
 15 16  1  0
 16 17  1  0
 17 18  1  0
 18 19  1  0
 18 20  1  0
 18 21  1  0
  9 22  1  0
 22 23  1  0
 22 24  1  0
 24 25  1  0
 24  5  1  0
  1 26  1  0
  1 27  1  0
  1 28  1  0
  4 29  1  0
  5 30  1  6
  6 31  1  1
  7 32  1  0
  9 33  1  1
 10 34  1  0
 10 35  1  0
 16 36  1  0
 16 37  1  0
 17 38  1  0
 17 39  1  0
 19 40  1  0
 19 41  1  0
 19 42  1  0
 20 43  1  0
 20 44  1  0
 20 45  1  0
 21 46  1  0
 21 47  1  0
 21 48  1  0
 22 49  1  6
 23 50  1  0
 24 51  1  1
 25 52  1  0
M  CHG  2  14  -1  18   1
M  END
>  <UniqueID>  (77) 
76

>  <SMILES>  (77) 
CC(=O)N[C@H]1[C@H](O)O[C@H](CO[P@](=O)([O-])OCC[N+](C)(C)C)[C@H](O)[C@@H]1O

>  <Energy>  (77) 
47.245456671026425

>  <Genealogy>  (77) 
CC(=O)N[C@H]1C(O)O[C@H](COP(=O)([O-])OCC[N+](C)(C)C)[C@H](O)[C@@H]1O (protonated)
CC(=O)N[C@H]1[C@H](O)O[C@H](CO[P@](=O)([O-])OCC[N+](C)(C)C)[C@H](O)[C@@H]1O (chirality)
CC(=O)N[C@H]1[C@H](O)O[C@H](CO[P@](=O)([O-])OCC[N+](C)(C)C)[C@H](O)[C@@H]1O (3D coordinates assigned)
CC(=O)N[C@H]1[C@H](O)O[C@H](CO[P@](=O)([O-])OCC[N+](C)(C)C)[C@H](O)[C@@H]1O (nonaromatic ring conformer: 47.245456671026425 kcal/mol)

$$$$
45266822
     RDKit          3D

 52 52  0  0  0  0  0  0  0  0999 V2000
    5.3307    4.1502    0.8019 C   0  0  0  0  0  0  0  0  0  0  0  0
    4.0858    3.3790    1.0973 C   0  0  0  0  0  0  0  0  0  0  0  0
    3.5270    3.5034    2.2207 O   0  0  0  0  0  0  0  0  0  0  0  0
    3.5336    2.5062    0.1019 N   0  0  0  0  0  0  0  0  0  0  0  0
    2.3390    1.6875    0.3477 C   0  0  1  0  0  0  0  0  0  0  0  0
    1.7103    1.2436   -0.9939 C   0  0  2  0  0  0  0  0  0  0  0  0
    0.4290    0.7011   -0.8087 O   0  0  0  0  0  0  0  0  0  0  0  0
    2.5378    0.3447   -1.7203 O   0  0  0  0  0  0  0  0  0  0  0  0
    2.9068   -0.8273   -0.9991 C   0  0  2  0  0  0  0  0  0  0  0  0
    1.7893   -1.8914   -0.9747 C   0  0  0  0  0  0  0  0  0  0  0  0
    1.2495   -2.0291   -2.2692 O   0  0  0  0  0  0  0  0  0  0  0  0
    0.1727   -3.3531   -2.2717 P   0  0  2  0  0  5  0  0  0  0  0  0
    0.9462   -4.6340   -2.0539 O   0  0  0  0  0  0  0  0  0  0  0  0
   -0.5914   -3.4374   -3.7793 O   0  0  0  0  0  1  0  0  0  0  0  0
   -0.9889   -3.1883   -1.0321 O   0  0  0  0  0  0  0  0  0  0  0  0
   -1.8654   -2.1410   -1.3760 C   0  0  0  0  0  0  0  0  0  0  0  0
   -2.8290   -1.9036   -0.1970 C   0  0  0  0  0  0  0  0  0  0  0  0
   -3.8184   -0.7980   -0.3875 N   0  0  0  0  0  4  0  0  0  0  0  0
   -3.1409    0.5148   -0.5123 C   0  0  0  0  0  0  0  0  0  0  0  0
   -4.6914   -0.7563    0.8113 C   0  0  0  0  0  0  0  0  0  0  0  0
   -4.6718   -1.0329   -1.5770 C   0  0  0  0  0  0  0  0  0  0  0  0
    3.5405   -0.5194    0.3849 C   0  0  2  0  0  0  0  0  0  0  0  0
    3.7563   -1.6968    1.1209 O   0  0  0  0  0  0  0  0  0  0  0  0
    2.6962    0.4663    1.2082 C   0  0  2  0  0  0  0  0  0  0  0  0
    1.5191   -0.1408    1.6791 O   0  0  0  0  0  0  0  0  0  0  0  0
    5.6289    4.7643    1.6782 H   0  0  0  0  0  0  0  0  0  0  0  0
    6.1536    3.4461    0.5593 H   0  0  0  0  0  0  0  0  0  0  0  0
    5.1555    4.8201   -0.0657 H   0  0  0  0  0  0  0  0  0  0  0  0
    4.0001    2.4703   -0.8335 H   0  0  0  0  0  0  0  0  0  0  0  0
    1.5919    2.3093    0.8905 H   0  0  0  0  0  0  0  0  0  0  0  0
    1.6050    2.1555   -1.6261 H   0  0  0  0  0  0  0  0  0  0  0  0
   -0.1670    1.4506   -0.5459 H   0  0  0  0  0  0  0  0  0  0  0  0
    3.7238   -1.2935   -1.5935 H   0  0  0  0  0  0  0  0  0  0  0  0
    2.2435   -2.8502   -0.6339 H   0  0  0  0  0  0  0  0  0  0  0  0
    0.9955   -1.6121   -0.2534 H   0  0  0  0  0  0  0  0  0  0  0  0
   -1.2934   -1.2114   -1.5786 H   0  0  0  0  0  0  0  0  0  0  0  0
   -2.4499   -2.4324   -2.2744 H   0  0  0  0  0  0  0  0  0  0  0  0
   -3.3643   -2.8631   -0.0080 H   0  0  0  0  0  0  0  0  0  0  0  0
   -2.2105   -1.7061    0.7092 H   0  0  0  0  0  0  0  0  0  0  0  0
   -2.4317    0.6799    0.3292 H   0  0  0  0  0  0  0  0  0  0  0  0
   -3.8794    1.3480   -0.5052 H   0  0  0  0  0  0  0  0  0  0  0  0
   -2.5810    0.5990   -1.4678 H   0  0  0  0  0  0  0  0  0  0  0  0
   -4.0957   -0.5751    1.7340 H   0  0  0  0  0  0  0  0  0  0  0  0
   -5.2407   -1.7157    0.9406 H   0  0  0  0  0  0  0  0  0  0  0  0
   -5.4486    0.0563    0.7349 H   0  0  0  0  0  0  0  0  0  0  0  0
   -5.5056   -0.2965   -1.6226 H   0  0  0  0  0  0  0  0  0  0  0  0
   -4.0979   -0.9188   -2.5219 H   0  0  0  0  0  0  0  0  0  0  0  0
   -5.1150   -2.0537   -1.5547 H   0  0  0  0  0  0  0  0  0  0  0  0
    4.5262   -0.0287    0.2024 H   0  0  0  0  0  0  0  0  0  0  0  0
    4.5056   -2.1773    0.6809 H   0  0  0  0  0  0  0  0  0  0  0  0
    3.3006    0.8101    2.0805 H   0  0  0  0  0  0  0  0  0  0  0  0
    1.7651   -0.6727    2.4803 H   0  0  0  0  0  0  0  0  0  0  0  0
  1  2  1  0
  2  3  2  0
  2  4  1  0
  4  5  1  0
  5  6  1  0
  6  7  1  0
  6  8  1  0
  8  9  1  0
  9 10  1  0
 10 11  1  0
 11 12  1  0
 12 13  2  0
 12 14  1  6
 12 15  1  0
 15 16  1  0
 16 17  1  0
 17 18  1  0
 18 19  1  0
 18 20  1  0
 18 21  1  0
  9 22  1  0
 22 23  1  0
 22 24  1  0
 24 25  1  0
 24  5  1  0
  1 26  1  0
  1 27  1  0
  1 28  1  0
  4 29  1  0
  5 30  1  1
  6 31  1  6
  7 32  1  0
  9 33  1  6
 10 34  1  0
 10 35  1  0
 16 36  1  0
 16 37  1  0
 17 38  1  0
 17 39  1  0
 19 40  1  0
 19 41  1  0
 19 42  1  0
 20 43  1  0
 20 44  1  0
 20 45  1  0
 21 46  1  0
 21 47  1  0
 21 48  1  0
 22 49  1  6
 23 50  1  0
 24 51  1  1
 25 52  1  0
M  CHG  2  14  -1  18   1
M  END
>  <UniqueID>  (78) 
77

>  <SMILES>  (78) 
CC(=O)N[C@H]1[C@H](O)O[C@H](CO[P@](=O)([O-])OCC[N+](C)(C)C)[C@H](O)[C@@H]1O

>  <Energy>  (78) 
54.65302938564074

>  <Genealogy>  (78) 
CC(=O)N[C@H]1C(O)O[C@H](COP(=O)([O-])OCC[N+](C)(C)C)[C@H](O)[C@@H]1O (protonated)
CC(=O)N[C@H]1[C@H](O)O[C@H](CO[P@](=O)([O-])OCC[N+](C)(C)C)[C@H](O)[C@@H]1O (chirality)
CC(=O)N[C@H]1[C@H](O)O[C@H](CO[P@](=O)([O-])OCC[N+](C)(C)C)[C@H](O)[C@@H]1O (3D coordinates assigned)
CC(=O)N[C@H]1[C@H](O)O[C@H](CO[P@](=O)([O-])OCC[N+](C)(C)C)[C@H](O)[C@@H]1O (nonaromatic ring conformer: 54.65302938564074 kcal/mol)

$$$$
45266822
     RDKit          3D

 52 52  0  0  0  0  0  0  0  0999 V2000
    7.0005   -0.7860    0.4639 C   0  0  0  0  0  0  0  0  0  0  0  0
    6.1715    0.3828    0.0402 C   0  0  0  0  0  0  0  0  0  0  0  0
    6.6960    1.5291   -0.0020 O   0  0  0  0  0  0  0  0  0  0  0  0
    4.7794    0.2073   -0.2641 N   0  0  0  0  0  0  0  0  0  0  0  0
    3.9069    1.3326   -0.6271 C   0  0  1  0  0  0  0  0  0  0  0  0
    2.6812    0.8413   -1.4665 C   0  0  2  0  0  0  0  0  0  0  0  0
    2.5897    1.5823   -2.6550 O   0  0  0  0  0  0  0  0  0  0  0  0
    1.4502    0.9488   -0.7621 O   0  0  0  0  0  0  0  0  0  0  0  0
    1.5502    0.3307    0.5080 C   0  0  2  0  0  0  0  0  0  0  0  0
    0.1386    0.1065    1.0653 C   0  0  0  0  0  0  0  0  0  0  0  0
   -0.5565   -0.7689    0.2091 O   0  0  0  0  0  0  0  0  0  0  0  0
   -2.1324   -0.9945    0.8240 P   0  0  2  0  0  5  0  0  0  0  0  0
   -2.8656    0.3282    0.8943 O   0  0  0  0  0  0  0  0  0  0  0  0
   -2.0493   -1.6650    2.3749 O   0  0  0  0  0  1  0  0  0  0  0  0
   -2.9840   -2.0712   -0.1870 O   0  0  0  0  0  0  0  0  0  0  0  0
   -3.0544   -1.5117   -1.4785 C   0  0  0  0  0  0  0  0  0  0  0  0
   -3.7174   -2.5104   -2.4519 C   0  0  0  0  0  0  0  0  0  0  0  0
   -2.8377   -3.6127   -2.9550 N   0  0  0  0  0  4  0  0  0  0  0  0
   -3.6770   -4.5305   -3.7648 C   0  0  0  0  0  0  0  0  0  0  0  0
   -1.7587   -3.0854   -3.8267 C   0  0  0  0  0  0  0  0  0  0  0  0
   -2.2419   -4.3888   -1.8418 C   0  0  0  0  0  0  0  0  0  0  0  0
    2.4554    1.1752    1.4558 C   0  0  2  0  0  0  0  0  0  0  0  0
    1.6888    1.9777    2.3210 O   0  0  0  0  0  0  0  0  0  0  0  0
    3.4357    2.0617    0.6494 C   0  0  2  0  0  0  0  0  0  0  0  0
    2.8035    3.2679    0.2978 O   0  0  0  0  0  0  0  0  0  0  0  0
    6.6034   -1.7231    0.0208 H   0  0  0  0  0  0  0  0  0  0  0  0
    8.0489   -0.6525    0.1244 H   0  0  0  0  0  0  0  0  0  0  0  0
    6.9827   -0.8696    1.5701 H   0  0  0  0  0  0  0  0  0  0  0  0
    4.3697   -0.7489   -0.1567 H   0  0  0  0  0  0  0  0  0  0  0  0
    4.4989    2.0455   -1.2450 H   0  0  0  0  0  0  0  0  0  0  0  0
    2.8246   -0.2190   -1.7735 H   0  0  0  0  0  0  0  0  0  0  0  0
    2.3153    2.5029   -2.4036 H   0  0  0  0  0  0  0  0  0  0  0  0
    2.0005   -0.6863    0.4048 H   0  0  0  0  0  0  0  0  0  0  0  0
    0.2279   -0.3354    2.0840 H   0  0  0  0  0  0  0  0  0  0  0  0
   -0.3809    1.0904    1.1227 H   0  0  0  0  0  0  0  0  0  0  0  0
   -2.0582   -1.2039   -1.8564 H   0  0  0  0  0  0  0  0  0  0  0  0
   -3.6987   -0.6043   -1.4484 H   0  0  0  0  0  0  0  0  0  0  0  0
   -4.6118   -2.9334   -1.9386 H   0  0  0  0  0  0  0  0  0  0  0  0
   -4.1120   -1.9260   -3.3146 H   0  0  0  0  0  0  0  0  0  0  0  0
   -4.4927   -4.9750   -3.1511 H   0  0  0  0  0  0  0  0  0  0  0  0
   -3.0766   -5.3710   -4.1809 H   0  0  0  0  0  0  0  0  0  0  0  0
   -4.1460   -3.9941   -4.6210 H   0  0  0  0  0  0  0  0  0  0  0  0
   -0.9986   -2.5177   -3.2495 H   0  0  0  0  0  0  0  0  0  0  0  0
   -1.2117   -3.9138   -4.3315 H   0  0  0  0  0  0  0  0  0  0  0  0
   -2.1705   -2.4183   -4.6165 H   0  0  0  0  0  0  0  0  0  0  0  0
   -1.7077   -5.2886   -2.2223 H   0  0  0  0  0  0  0  0  0  0  0  0
   -1.4933   -3.7872   -1.2816 H   0  0  0  0  0  0  0  0  0  0  0  0
   -3.0262   -4.7300   -1.1301 H   0  0  0  0  0  0  0  0  0  0  0  0
    3.0510    0.4563    2.0679 H   0  0  0  0  0  0  0  0  0  0  0  0
    2.2962    2.2786    3.0467 H   0  0  0  0  0  0  0  0  0  0  0  0
    4.3138    2.2884    1.2985 H   0  0  0  0  0  0  0  0  0  0  0  0
    3.5196    3.9030    0.0373 H   0  0  0  0  0  0  0  0  0  0  0  0
  1  2  1  0
  2  3  2  0
  2  4  1  0
  4  5  1  0
  5  6  1  0
  6  7  1  0
  6  8  1  0
  8  9  1  0
  9 10  1  0
 10 11  1  0
 11 12  1  0
 12 13  2  0
 12 14  1  1
 12 15  1  0
 15 16  1  0
 16 17  1  0
 17 18  1  0
 18 19  1  0
 18 20  1  0
 18 21  1  0
  9 22  1  0
 22 23  1  0
 22 24  1  0
 24 25  1  0
 24  5  1  0
  1 26  1  0
  1 27  1  0
  1 28  1  0
  4 29  1  0
  5 30  1  6
  6 31  1  6
  7 32  1  0
  9 33  1  6
 10 34  1  0
 10 35  1  0
 16 36  1  0
 16 37  1  0
 17 38  1  0
 17 39  1  0
 19 40  1  0
 19 41  1  0
 19 42  1  0
 20 43  1  0
 20 44  1  0
 20 45  1  0
 21 46  1  0
 21 47  1  0
 21 48  1  0
 22 49  1  1
 23 50  1  0
 24 51  1  1
 25 52  1  0
M  CHG  2  14  -1  18   1
M  END
>  <UniqueID>  (79) 
78

>  <SMILES>  (79) 
CC(=O)N[C@H]1[C@H](O)O[C@H](CO[P@](=O)([O-])OCC[N+](C)(C)C)[C@H](O)[C@@H]1O

>  <Energy>  (79) 
59.860815608659586

>  <Genealogy>  (79) 
CC(=O)N[C@H]1C(O)O[C@H](COP(=O)([O-])OCC[N+](C)(C)C)[C@H](O)[C@@H]1O (protonated)
CC(=O)N[C@H]1[C@H](O)O[C@H](CO[P@](=O)([O-])OCC[N+](C)(C)C)[C@H](O)[C@@H]1O (chirality)
CC(=O)N[C@H]1[C@H](O)O[C@H](CO[P@](=O)([O-])OCC[N+](C)(C)C)[C@H](O)[C@@H]1O (3D coordinates assigned)
CC(=O)N[C@H]1[C@H](O)O[C@H](CO[P@](=O)([O-])OCC[N+](C)(C)C)[C@H](O)[C@@H]1O (nonaromatic ring conformer: 59.860815608659586 kcal/mol)

$$$$
45266741
     RDKit          3D

 25 25  0  0  0  0  0  0  0  0999 V2000
    2.2727    2.4672    0.6422 N   0  0  0  0  0  0  0  0  0  0  0  0
    1.6951    1.3840   -0.1580 C   0  0  1  0  0  0  0  0  0  0  0  0
    1.9325    0.0253    0.5351 C   0  0  1  0  0  0  0  0  0  0  0  0
    1.4727    0.0511    1.8640 O   0  0  0  0  0  0  0  0  0  0  0  0
    1.3384   -1.0380   -0.1949 O   0  0  0  0  0  0  0  0  0  0  0  0
   -0.0707   -0.8898   -0.2849 C   0  0  2  0  0  0  0  0  0  0  0  0
   -0.6496   -2.1444   -0.9595 C   0  0  0  0  0  0  0  0  0  0  0  0
   -0.1898   -2.2712   -2.2792 O   0  0  0  0  0  0  0  0  0  0  0  0
   -0.4417    0.3979   -1.0595 C   0  0  1  0  0  0  0  0  0  0  0  0
   -1.8379    0.5605   -1.0879 O   0  0  0  0  0  0  0  0  0  0  0  0
    0.1881    1.6175   -0.3670 C   0  0  2  0  0  0  0  0  0  0  0  0
   -0.0012    2.7625   -1.1591 O   0  0  0  0  0  0  0  0  0  0  0  0
    2.1867    3.3601    0.1044 H   0  0  0  0  0  0  0  0  0  0  0  0
    3.2997    2.2932    0.7400 H   0  0  0  0  0  0  0  0  0  0  0  0
    2.1963    1.3587   -1.1538 H   0  0  0  0  0  0  0  0  0  0  0  0
    3.0319   -0.1522    0.5470 H   0  0  0  0  0  0  0  0  0  0  0  0
    1.7586   -0.8058    2.2753 H   0  0  0  0  0  0  0  0  0  0  0  0
   -0.5216   -0.8462    0.7336 H   0  0  0  0  0  0  0  0  0  0  0  0
   -1.7587   -2.0904   -0.9708 H   0  0  0  0  0  0  0  0  0  0  0  0
   -0.3764   -3.0476   -0.3671 H   0  0  0  0  0  0  0  0  0  0  0  0
    0.7307   -2.6391   -2.2275 H   0  0  0  0  0  0  0  0  0  0  0  0
   -0.0308    0.3388   -2.0968 H   0  0  0  0  0  0  0  0  0  0  0  0
   -2.1627    0.1555   -1.9340 H   0  0  0  0  0  0  0  0  0  0  0  0
   -0.2906    1.7630    0.6317 H   0  0  0  0  0  0  0  0  0  0  0  0
   -0.9276    3.0786   -0.9936 H   0  0  0  0  0  0  0  0  0  0  0  0
  1  2  1  0
  2  3  1  0
  3  4  1  0
  3  5  1  0
  5  6  1  0
  6  7  1  0
  7  8  1  0
  6  9  1  0
  9 10  1  0
  9 11  1  0
 11 12  1  0
 11  2  1  0
  1 13  1  0
  1 14  1  0
  2 15  1  6
  3 16  1  1
  4 17  1  0
  6 18  1  1
  7 19  1  0
  7 20  1  0
  8 21  1  0
  9 22  1  6
 10 23  1  0
 11 24  1  1
 12 25  1  0
M  END
>  <UniqueID>  (80) 
79

>  <SMILES>  (80) 
N[C@H]1[C@@H](O)O[C@H](CO)[C@@H](O)[C@@H]1O

>  <Energy>  (80) 
22.757337938077086

>  <Genealogy>  (80) 
N[C@H]1C(O)O[C@H](CO)[C@@H](O)[C@@H]1O (protonated)
N[C@H]1[C@@H](O)O[C@H](CO)[C@@H](O)[C@@H]1O (chirality)
N[C@H]1[C@@H](O)O[C@H](CO)[C@@H](O)[C@@H]1O (3D coordinates assigned)
N[C@H]1[C@@H](O)O[C@H](CO)[C@@H](O)[C@@H]1O (nonaromatic ring conformer: 22.757337938077086 kcal/mol)

$$$$
45266741
     RDKit          3D

 26 26  0  0  0  0  0  0  0  0999 V2000
   -1.5207    0.4627   -0.9926 N   0  0  0  0  0  4  0  0  0  0  0  0
   -0.2512    0.0870   -0.3532 C   0  0  1  0  0  0  0  0  0  0  0  0
   -0.4360   -1.1482    0.5624 C   0  0  2  0  0  0  0  0  0  0  0  0
   -1.3419   -0.8407    1.5905 O   0  0  0  0  0  0  0  0  0  0  0  0
    0.7976   -1.4984    1.1622 O   0  0  0  0  0  0  0  0  0  0  0  0
    1.7258   -1.9395    0.1855 C   0  0  2  0  0  0  0  0  0  0  0  0
    2.9704   -2.4794    0.9059 C   0  0  0  0  0  0  0  0  0  0  0  0
    2.6252   -3.5555    1.7368 O   0  0  0  0  0  0  0  0  0  0  0  0
    2.0965   -0.7719   -0.7578 C   0  0  1  0  0  0  0  0  0  0  0  0
    2.9727   -1.2194   -1.7624 O   0  0  0  0  0  0  0  0  0  0  0  0
    0.8239   -0.2145   -1.4193 C   0  0  2  0  0  0  0  0  0  0  0  0
    1.1321    0.9647   -2.1185 O   0  0  0  0  0  0  0  0  0  0  0  0
   -1.3741    1.2753   -1.6341 H   0  0  0  0  0  0  0  0  0  0  0  0
   -2.2152    0.7543   -0.2676 H   0  0  0  0  0  0  0  0  0  0  0  0
   -1.9092   -0.3397   -1.5401 H   0  0  0  0  0  0  0  0  0  0  0  0
    0.1006    0.9384    0.2744 H   0  0  0  0  0  0  0  0  0  0  0  0
   -0.8281   -2.0109   -0.0337 H   0  0  0  0  0  0  0  0  0  0  0  0
   -2.2462   -1.1067    1.2785 H   0  0  0  0  0  0  0  0  0  0  0  0
    1.2999   -2.7811   -0.4110 H   0  0  0  0  0  0  0  0  0  0  0  0
    3.4598   -1.6707    1.4968 H   0  0  0  0  0  0  0  0  0  0  0  0
    3.7065   -2.8468    0.1603 H   0  0  0  0  0  0  0  0  0  0  0  0
    2.2861   -3.1664    2.5848 H   0  0  0  0  0  0  0  0  0  0  0  0
    2.5656    0.0470   -0.1588 H   0  0  0  0  0  0  0  0  0  0  0  0
    3.8951   -1.0042   -1.4650 H   0  0  0  0  0  0  0  0  0  0  0  0
    0.4166   -0.9792   -2.1242 H   0  0  0  0  0  0  0  0  0  0  0  0
    1.5341    0.6909   -2.9839 H   0  0  0  0  0  0  0  0  0  0  0  0
  1  2  1  0
  2  3  1  0
  3  4  1  0
  3  5  1  0
  5  6  1  0
  6  7  1  0
  7  8  1  0
  6  9  1  0
  9 10  1  0
  9 11  1  0
 11 12  1  0
 11  2  1  0
  1 13  1  0
  1 14  1  0
  1 15  1  0
  2 16  1  1
  3 17  1  6
  4 18  1  0
  6 19  1  6
  7 20  1  0
  7 21  1  0
  8 22  1  0
  9 23  1  1
 10 24  1  0
 11 25  1  6
 12 26  1  0
M  CHG  1   1   1
M  END
>  <UniqueID>  (81) 
80

>  <SMILES>  (81) 
[NH3+][C@H]1[C@H](O)O[C@H](CO)[C@@H](O)[C@@H]1O

>  <Energy>  (81) 
23.063500083854002

>  <Genealogy>  (81) 
[NH3+][C@H]1[C@H](O)O[C@H](CO)[C@@H](O)[C@@H]1O (chirality)
[NH3+][C@H]1[C@H](O)O[C@H](CO)[C@@H](O)[C@@H]1O (3D coordinates assigned)
[NH3+][C@H]1[C@H](O)O[C@H](CO)[C@@H](O)[C@@H]1O (nonaromatic ring conformer: 23.063500083854002 kcal/mol)

$$$$
45266741
     RDKit          3D

 26 26  0  0  0  0  0  0  0  0999 V2000
   -1.3982    1.4552    2.0012 N   0  0  0  0  0  4  0  0  0  0  0  0
   -0.4053    0.4984    1.4929 C   0  0  1  0  0  0  0  0  0  0  0  0
   -0.6758   -0.9223    2.0415 C   0  0  1  0  0  0  0  0  0  0  0  0
   -1.9875   -1.3376    1.7500 O   0  0  0  0  0  0  0  0  0  0  0  0
    0.2785   -1.8530    1.5511 O   0  0  0  0  0  0  0  0  0  0  0  0
    0.2149   -1.9755    0.1377 C   0  0  2  0  0  0  0  0  0  0  0  0
    1.1978   -3.0716   -0.2998 C   0  0  0  0  0  0  0  0  0  0  0  0
    0.8370   -4.3044    0.2634 O   0  0  0  0  0  0  0  0  0  0  0  0
    0.5645   -0.6272   -0.5407 C   0  0  1  0  0  0  0  0  0  0  0  0
    0.5148   -0.7297   -1.9432 O   0  0  0  0  0  0  0  0  0  0  0  0
   -0.3861    0.4783   -0.0501 C   0  0  2  0  0  0  0  0  0  0  0  0
    0.0596    1.7159   -0.5449 O   0  0  0  0  0  0  0  0  0  0  0  0
   -2.3480    1.2468    1.6156 H   0  0  0  0  0  0  0  0  0  0  0  0
   -1.1253    2.4279    1.7320 H   0  0  0  0  0  0  0  0  0  0  0  0
   -1.4347    1.4098    3.0455 H   0  0  0  0  0  0  0  0  0  0  0  0
    0.6024    0.8121    1.8516 H   0  0  0  0  0  0  0  0  0  0  0  0
   -0.5589   -0.8773    3.1480 H   0  0  0  0  0  0  0  0  0  0  0  0
   -2.1208   -2.1978    2.2271 H   0  0  0  0  0  0  0  0  0  0  0  0
   -0.8018   -2.3027   -0.1811 H   0  0  0  0  0  0  0  0  0  0  0  0
    2.2389   -2.7991   -0.0090 H   0  0  0  0  0  0  0  0  0  0  0  0
    1.1732   -3.1792   -1.4049 H   0  0  0  0  0  0  0  0  0  0  0  0
    1.1997   -4.3150    1.1875 H   0  0  0  0  0  0  0  0  0  0  0  0
    1.6036   -0.3486   -0.2544 H   0  0  0  0  0  0  0  0  0  0  0  0
   -0.4044   -1.0108   -2.1927 H   0  0  0  0  0  0  0  0  0  0  0  0
   -1.4135    0.2557   -0.4284 H   0  0  0  0  0  0  0  0  0  0  0  0
   -0.7431    2.2861   -0.6712 H   0  0  0  0  0  0  0  0  0  0  0  0
  1  2  1  0
  2  3  1  0
  3  4  1  0
  3  5  1  0
  5  6  1  0
  6  7  1  0
  7  8  1  0
  6  9  1  0
  9 10  1  0
  9 11  1  0
 11 12  1  0
 11  2  1  0
  1 13  1  0
  1 14  1  0
  1 15  1  0
  2 16  1  1
  3 17  1  1
  4 18  1  0
  6 19  1  1
  7 20  1  0
  7 21  1  0
  8 22  1  0
  9 23  1  6
 10 24  1  0
 11 25  1  6
 12 26  1  0
M  CHG  1   1   1
M  END
>  <UniqueID>  (82) 
81

>  <SMILES>  (82) 
[NH3+][C@H]1[C@@H](O)O[C@H](CO)[C@@H](O)[C@@H]1O

>  <Energy>  (82) 
24.563223626086145

>  <Genealogy>  (82) 
[NH3+][C@H]1[C@@H](O)O[C@H](CO)[C@@H](O)[C@@H]1O (chirality)
[NH3+][C@H]1[C@@H](O)O[C@H](CO)[C@@H](O)[C@@H]1O (3D coordinates assigned)
[NH3+][C@H]1[C@@H](O)O[C@H](CO)[C@@H](O)[C@@H]1O (nonaromatic ring conformer: 24.563223626086145 kcal/mol)

$$$$
44630437
     RDKit          3D

 33 33  0  0  0  0  0  0  0  0999 V2000
   -1.6120   -3.1679   -0.7172 H   0  0  0  0  0  0  0  0  0  0  0  0
   -1.1592   -2.3189   -0.4007 O   0  0  0  0  0  0  0  0  0  0  0  0
   -1.1146   -1.1799   -1.2049 C   0  0  0  0  0  0  0  0  0  0  0  0
   -0.5082   -0.1045   -0.7987 N   0  0  0  0  0  0  0  0  0  0  0  0
    0.1385    0.0463    0.5072 C   0  0  1  0  0  0  0  0  0  0  0  0
    0.6174   -0.9129    0.8114 H   0  0  0  0  0  0  0  0  0  0  0  0
    1.2436    1.1180    0.4055 C   0  0  2  0  0  0  0  0  0  0  0  0
    0.8101    2.0845    0.0449 H   0  0  0  0  0  0  0  0  0  0  0  0
    2.2265    0.6917   -0.5018 O   0  0  0  0  0  0  0  0  0  0  0  0
    1.8961    0.9045   -1.4138 H   0  0  0  0  0  0  0  0  0  0  0  0
    1.8629    1.3047    1.6651 O   0  0  0  0  0  0  0  0  0  0  0  0
    0.9458    1.8468    2.6005 C   0  0  2  0  0  0  0  0  0  0  0  0
    0.5085    2.7957    2.2087 H   0  0  0  0  0  0  0  0  0  0  0  0
    1.7125    2.2151    3.8813 C   0  0  0  0  0  0  0  0  0  0  0  0
    2.5136    2.9507    3.6393 H   0  0  0  0  0  0  0  0  0  0  0  0
    1.0280    2.7098    4.6022 H   0  0  0  0  0  0  0  0  0  0  0  0
    2.2645    1.0775    4.4896 O   0  0  0  0  0  0  0  0  0  0  0  0
    3.0860    0.8508    3.9805 H   0  0  0  0  0  0  0  0  0  0  0  0
   -0.1936    0.8382    2.8839 C   0  0  1  0  0  0  0  0  0  0  0  0
    0.2376   -0.0970    3.3172 H   0  0  0  0  0  0  0  0  0  0  0  0
   -1.1345    1.4037    3.7620 O   0  0  0  0  0  0  0  0  0  0  0  0
   -0.8784    1.1300    4.6812 H   0  0  0  0  0  0  0  0  0  0  0  0
   -0.8975    0.4702    1.5664 C   0  0  2  0  0  0  0  0  0  0  0  0
   -1.4449    1.3652    1.1824 H   0  0  0  0  0  0  0  0  0  0  0  0
   -1.8007   -0.5818    1.7901 O   0  0  0  0  0  0  0  0  0  0  0  0
   -2.6205   -0.1811    2.1812 H   0  0  0  0  0  0  0  0  0  0  0  0
   -1.7311   -1.2049   -2.5710 C   0  0  0  0  0  0  0  0  0  0  0  0
   -2.6376   -1.8470   -2.5583 H   0  0  0  0  0  0  0  0  0  0  0  0
   -2.0431   -0.1794   -2.8665 H   0  0  0  0  0  0  0  0  0  0  0  0
   -0.7406   -1.7469   -3.5948 C   0  0  0  0  0  0  0  0  0  0  0  0
   -1.2138   -1.7596   -4.5992 H   0  0  0  0  0  0  0  0  0  0  0  0
   -0.4404   -2.7834   -3.3299 H   0  0  0  0  0  0  0  0  0  0  0  0
    0.1633   -1.1020   -3.6353 H   0  0  0  0  0  0  0  0  0  0  0  0
  1  2  1  0
  2  3  1  0
  3  4  2  0
  4  5  1  0
  5  6  1  1
  5  7  1  0
  7  8  1  6
  7  9  1  0
  9 10  1  0
  7 11  1  0
 11 12  1  0
 12 13  1  6
 12 14  1  0
 14 15  1  0
 14 16  1  0
 14 17  1  0
 17 18  1  0
 12 19  1  0
 19 20  1  1
 19 21  1  0
 21 22  1  0
 19 23  1  0
 23 24  1  6
 23 25  1  0
 25 26  1  0
  3 27  1  0
 27 28  1  0
 27 29  1  0
 27 30  1  0
 30 31  1  0
 30 32  1  0
 30 33  1  0
 23  5  1  0
M  END
>  <UniqueID>  (83) 
82

>  <SMILES>  (83) 
CC/C(O)=N/[C@H]1[C@H](O)O[C@H](CO)[C@@H](O)[C@@H]1O

>  <Energy>  (83) 
24.81199183275646

>  <Genealogy>  (83) 
CCC(O)=N[C@H]1C(O)O[C@H](CO)[C@@H](O)[C@@H]1O (tautomer)
CCC(O)=N[C@H]1[C@H](O)O[C@H](CO)[C@@H](O)[C@@H]1O (chirality)
CC/C(O)=N/[C@H]1[C@H](O)O[C@H](CO)[C@@H](O)[C@@H]1O (cis-trans isomerization)
CC/C(O)=N/[C@H]1[C@H](O)O[C@H](CO)[C@@H](O)[C@@H]1O (3D coordinates assigned)
CC/C(O)=N/[C@H]1[C@H](O)O[C@H](CO)[C@@H](O)[C@@H]1O (nonaromatic ring conformer: 24.81199183275646 kcal/mol)

$$$$
44630437
     RDKit          3D

 33 33  0  0  0  0  0  0  0  0999 V2000
    0.0735   -2.2220    2.6959 H   0  0  0  0  0  0  0  0  0  0  0  0
   -0.5119   -2.7731    2.0838 O   0  0  0  0  0  0  0  0  0  0  0  0
   -0.5232   -2.6435    0.6919 C   0  0  0  0  0  0  0  0  0  0  0  0
    0.2093   -1.7680    0.0627 N   0  0  0  0  0  0  0  0  0  0  0  0
    1.1260   -0.7905    0.6557 C   0  0  1  0  0  0  0  0  0  0  0  0
    1.6416   -1.2203    1.5423 H   0  0  0  0  0  0  0  0  0  0  0  0
    2.2112   -0.4376   -0.3763 C   0  0  2  0  0  0  0  0  0  0  0  0
    1.7309   -0.0509   -1.3090 H   0  0  0  0  0  0  0  0  0  0  0  0
    2.9288   -1.5988   -0.6962 O   0  0  0  0  0  0  0  0  0  0  0  0
    3.5439   -1.3535   -1.4359 H   0  0  0  0  0  0  0  0  0  0  0  0
    3.1072    0.5183    0.1639 O   0  0  0  0  0  0  0  0  0  0  0  0
    2.4493    1.7554    0.3795 C   0  0  2  0  0  0  0  0  0  0  0  0
    1.9900    2.1182   -0.5706 H   0  0  0  0  0  0  0  0  0  0  0  0
    3.5106    2.7858    0.8013 C   0  0  0  0  0  0  0  0  0  0  0  0
    3.9169    2.5224    1.8013 H   0  0  0  0  0  0  0  0  0  0  0  0
    4.3616    2.7628    0.0824 H   0  0  0  0  0  0  0  0  0  0  0  0
    2.9723    4.0797    0.8562 O   0  0  0  0  0  0  0  0  0  0  0  0
    2.8662    4.3841   -0.0828 H   0  0  0  0  0  0  0  0  0  0  0  0
    1.3547    1.5952    1.4628 C   0  0  1  0  0  0  0  0  0  0  0  0
    1.8457    1.3001    2.4214 H   0  0  0  0  0  0  0  0  0  0  0  0
    0.6636    2.8077    1.6258 O   0  0  0  0  0  0  0  0  0  0  0  0
    0.2448    2.7828    2.5256 H   0  0  0  0  0  0  0  0  0  0  0  0
    0.3640    0.4936    1.0457 C   0  0  2  0  0  0  0  0  0  0  0  0
   -0.2070    0.8605    0.1574 H   0  0  0  0  0  0  0  0  0  0  0  0
   -0.5136    0.2386    2.1123 O   0  0  0  0  0  0  0  0  0  0  0  0
   -1.3773   -0.0500    1.7167 H   0  0  0  0  0  0  0  0  0  0  0  0
   -1.4351   -3.5275   -0.0988 C   0  0  0  0  0  0  0  0  0  0  0  0
   -1.5777   -4.4887    0.4400 H   0  0  0  0  0  0  0  0  0  0  0  0
   -0.9828   -3.7523   -1.0894 H   0  0  0  0  0  0  0  0  0  0  0  0
   -2.7887   -2.8557   -0.2989 C   0  0  0  0  0  0  0  0  0  0  0  0
   -3.2646   -2.6471    0.6834 H   0  0  0  0  0  0  0  0  0  0  0  0
   -2.6675   -1.9025   -0.8570 H   0  0  0  0  0  0  0  0  0  0  0  0
   -3.4544   -3.5268   -0.8815 H   0  0  0  0  0  0  0  0  0  0  0  0
  1  2  1  0
  2  3  1  0
  3  4  2  0
  4  5  1  0
  5  6  1  1
  5  7  1  0
  7  8  1  6
  7  9  1  0
  9 10  1  0
  7 11  1  0
 11 12  1  0
 12 13  1  6
 12 14  1  0
 14 15  1  0
 14 16  1  0
 14 17  1  0
 17 18  1  0
 12 19  1  0
 19 20  1  1
 19 21  1  0
 21 22  1  0
 19 23  1  0
 23 24  1  6
 23 25  1  0
 25 26  1  0
  3 27  1  0
 27 28  1  0
 27 29  1  0
 27 30  1  0
 30 31  1  0
 30 32  1  0
 30 33  1  0
 23  5  1  0
M  END
>  <UniqueID>  (84) 
83

>  <SMILES>  (84) 
CC/C(O)=N\[C@H]1[C@H](O)O[C@H](CO)[C@@H](O)[C@@H]1O

>  <Energy>  (84) 
26.477250247562445

>  <Genealogy>  (84) 
CCC(O)=N[C@H]1C(O)O[C@H](CO)[C@@H](O)[C@@H]1O (tautomer)
CCC(O)=N[C@H]1[C@H](O)O[C@H](CO)[C@@H](O)[C@@H]1O (chirality)
CC/C(O)=N\[C@H]1[C@H](O)O[C@H](CO)[C@@H](O)[C@@H]1O (cis-trans isomerization)
CC/C(O)=N\[C@H]1[C@H](O)O[C@H](CO)[C@@H](O)[C@@H]1O (3D coordinates assigned)
CC/C(O)=N\[C@H]1[C@H](O)O[C@H](CO)[C@@H](O)[C@@H]1O (nonaromatic ring conformer: 26.477250247562445 kcal/mol)

$$$$
44630437
     RDKit          3D

 33 33  0  0  0  0  0  0  0  0999 V2000
    3.3107   -2.3643   -1.4959 H   0  0  0  0  0  0  0  0  0  0  0  0
    2.5584   -1.7407   -1.2260 O   0  0  0  0  0  0  0  0  0  0  0  0
    2.7914   -0.5489   -0.5359 C   0  0  0  0  0  0  0  0  0  0  0  0
    4.0525   -0.2108   -0.2185 C   0  0  0  0  0  0  0  0  0  0  0  0
    4.8612   -0.8723   -0.5055 H   0  0  0  0  0  0  0  0  0  0  0  0
    4.4164    1.0383    0.5238 C   0  0  0  0  0  0  0  0  0  0  0  0
    5.5162    1.0781    0.6696 H   0  0  0  0  0  0  0  0  0  0  0  0
    4.1062    1.9323   -0.0571 H   0  0  0  0  0  0  0  0  0  0  0  0
    3.9286    1.0458    1.5214 H   0  0  0  0  0  0  0  0  0  0  0  0
    1.6724    0.2864   -0.1839 N   0  0  0  0  0  0  0  0  0  0  0  0
    1.8314    1.2005    0.2962 H   0  0  0  0  0  0  0  0  0  0  0  0
    0.2904   -0.1237   -0.4595 C   0  0  1  0  0  0  0  0  0  0  0  0
    0.2428   -0.5837   -1.4727 H   0  0  0  0  0  0  0  0  0  0  0  0
   -0.1785   -1.1694    0.5771 C   0  0  1  0  0  0  0  0  0  0  0  0
    0.4429   -2.0849    0.4471 H   0  0  0  0  0  0  0  0  0  0  0  0
   -0.0261   -0.6970    1.8951 O   0  0  0  0  0  0  0  0  0  0  0  0
    0.9300   -0.8101    2.1372 H   0  0  0  0  0  0  0  0  0  0  0  0
   -1.5224   -1.5554    0.3379 O   0  0  0  0  0  0  0  0  0  0  0  0
   -2.4190   -0.4612    0.4664 C   0  0  2  0  0  0  0  0  0  0  0  0
   -2.3445   -0.0169    1.4862 H   0  0  0  0  0  0  0  0  0  0  0  0
   -3.8469   -1.0056    0.3163 C   0  0  0  0  0  0  0  0  0  0  0  0
   -3.9600   -1.9051    0.9625 H   0  0  0  0  0  0  0  0  0  0  0  0
   -4.0308   -1.3091   -0.7392 H   0  0  0  0  0  0  0  0  0  0  0  0
   -4.7837   -0.0417    0.7120 O   0  0  0  0  0  0  0  0  0  0  0  0
   -5.6767   -0.4508    0.5704 H   0  0  0  0  0  0  0  0  0  0  0  0
   -2.1106    0.6210   -0.5981 C   0  0  1  0  0  0  0  0  0  0  0  0
   -2.2336    0.1759   -1.6163 H   0  0  0  0  0  0  0  0  0  0  0  0
   -2.9605    1.7288   -0.4322 O   0  0  0  0  0  0  0  0  0  0  0  0
   -3.6962    1.6369   -1.0925 H   0  0  0  0  0  0  0  0  0  0  0  0
   -0.6572    1.0916   -0.4528 C   0  0  2  0  0  0  0  0  0  0  0  0
   -0.5605    1.6364    0.5178 H   0  0  0  0  0  0  0  0  0  0  0  0
   -0.3458    1.9498   -1.5210 O   0  0  0  0  0  0  0  0  0  0  0  0
    0.4014    2.5299   -1.2202 H   0  0  0  0  0  0  0  0  0  0  0  0
  1  2  1  0
  2  3  1  0
  3  4  2  0
  4  5  1  0
  4  6  1  0
  6  7  1  0
  6  8  1  0
  6  9  1  0
  3 10  1  0
 10 11  1  0
 10 12  1  0
 12 13  1  6
 12 14  1  0
 14 15  1  1
 14 16  1  0
 16 17  1  0
 14 18  1  0
 18 19  1  0
 19 20  1  1
 19 21  1  0
 21 22  1  0
 21 23  1  0
 21 24  1  0
 24 25  1  0
 19 26  1  0
 26 27  1  6
 26 28  1  0
 28 29  1  0
 26 30  1  0
 30 31  1  1
 30 32  1  0
 32 33  1  0
 30 12  1  0
M  END
>  <UniqueID>  (85) 
84

>  <SMILES>  (85) 
C/C=C(/O)N[C@H]1[C@@H](O)O[C@H](CO)[C@@H](O)[C@@H]1O

>  <Energy>  (85) 
27.978014739018878

>  <Genealogy>  (85) 
CC=C(O)N[C@H]1C(O)O[C@H](CO)[C@@H](O)[C@@H]1O (tautomer)
CC=C(O)N[C@H]1[C@@H](O)O[C@H](CO)[C@@H](O)[C@@H]1O (chirality)
C/C=C(/O)N[C@H]1[C@@H](O)O[C@H](CO)[C@@H](O)[C@@H]1O (cis-trans isomerization)
C/C=C(/O)N[C@H]1[C@@H](O)O[C@H](CO)[C@@H](O)[C@@H]1O (3D coordinates assigned)
C/C=C(/O)N[C@H]1[C@@H](O)O[C@H](CO)[C@@H](O)[C@@H]1O (nonaromatic ring conformer: 27.978014739018878 kcal/mol)

$$$$
44341508
     RDKit          3D

 50 52  0  0  0  0  0  0  0  0999 V2000
   -6.5860    1.6367   -0.5885 H   0  0  0  0  0  0  0  0  0  0  0  0
   -5.6076    1.4056   -0.7126 O   0  0  0  0  0  0  0  0  0  0  0  0
   -5.0318    0.3228   -0.0486 C   0  0  0  0  0  0  0  0  0  0  0  0
   -3.7706    0.0485   -0.1986 N   0  0  0  0  0  0  0  0  0  0  0  0
   -2.8616    0.7957   -1.0705 C   0  0  1  0  0  0  0  0  0  0  0  0
   -3.0130    1.8879   -0.9106 H   0  0  0  0  0  0  0  0  0  0  0  0
   -1.4046    0.4618   -0.7013 C   0  0  2  0  0  0  0  0  0  0  0  0
   -1.2443   -0.6394   -0.7838 H   0  0  0  0  0  0  0  0  0  0  0  0
   -1.1726    0.8465    0.6533 O   0  0  0  0  0  0  0  0  0  0  0  0
    0.0142    0.6060    1.3635 C   0  0  0  0  0  0  0  0  0  0  0  0
    0.1009    1.0712    2.6804 C   0  0  0  0  0  0  0  0  0  0  0  0
   -0.7358    1.5987    3.1208 H   0  0  0  0  0  0  0  0  0  0  0  0
    1.2574    0.8645    3.4362 C   0  0  0  0  0  0  0  0  0  0  0  0
    1.2965    1.2366    4.4531 H   0  0  0  0  0  0  0  0  0  0  0  0
    2.3507    0.1844    2.8814 C   0  0  0  0  0  0  0  0  0  0  0  0
    3.5177   -0.0273    3.6327 C   0  0  0  0  0  0  0  0  0  0  0  0
    3.5680    0.3405    4.6495 H   0  0  0  0  0  0  0  0  0  0  0  0
    4.6122   -0.7117    3.0688 C   0  0  0  0  0  0  0  0  0  0  0  0
    5.7987   -0.9476    3.7794 O   0  0  0  0  0  0  0  0  0  0  0  0
    6.0298   -0.5315    5.1214 C   0  0  0  0  0  0  0  0  0  0  0  0
    5.9662    0.5748    5.1946 H   0  0  0  0  0  0  0  0  0  0  0  0
    5.2887   -1.0034    5.8006 H   0  0  0  0  0  0  0  0  0  0  0  0
    7.0467   -0.8498    5.4295 H   0  0  0  0  0  0  0  0  0  0  0  0
    4.5250   -1.1786    1.7524 C   0  0  0  0  0  0  0  0  0  0  0  0
    5.3617   -1.7055    1.3115 H   0  0  0  0  0  0  0  0  0  0  0  0
    3.3679   -0.9725    0.9971 C   0  0  0  0  0  0  0  0  0  0  0  0
    3.3285   -1.3446   -0.0199 H   0  0  0  0  0  0  0  0  0  0  0  0
    2.2747   -0.2924    1.5522 C   0  0  0  0  0  0  0  0  0  0  0  0
    1.1081   -0.0811    0.8010 C   0  0  0  0  0  0  0  0  0  0  0  0
    1.0597   -0.4526   -0.2142 H   0  0  0  0  0  0  0  0  0  0  0  0
   -0.5112    1.1751   -1.5404 O   0  0  0  0  0  0  0  0  0  0  0  0
   -0.6330    0.7307   -2.8805 C   0  0  2  0  0  0  0  0  0  0  0  0
   -0.4917   -0.3746   -2.9415 H   0  0  0  0  0  0  0  0  0  0  0  0
    0.4847    1.3643   -3.7207 C   0  0  0  0  0  0  0  0  0  0  0  0
    0.4114    2.4717   -3.6742 H   0  0  0  0  0  0  0  0  0  0  0  0
    0.3857    1.0602   -4.7880 H   0  0  0  0  0  0  0  0  0  0  0  0
    1.7413    0.9854   -3.2266 O   0  0  0  0  0  0  0  0  0  0  0  0
    1.8907    0.0477   -3.5168 H   0  0  0  0  0  0  0  0  0  0  0  0
   -2.0276    1.0943   -3.4404 C   0  0  2  0  0  0  0  0  0  0  0  0
   -2.1146    0.6910   -4.4772 H   0  0  0  0  0  0  0  0  0  0  0  0
   -2.1839    2.4915   -3.4609 O   0  0  0  0  0  0  0  0  0  0  0  0
   -2.9354    2.6873   -4.0794 H   0  0  0  0  0  0  0  0  0  0  0  0
   -3.1199    0.4590   -2.5585 C   0  0  1  0  0  0  0  0  0  0  0  0
   -4.1053    0.8797   -2.8686 H   0  0  0  0  0  0  0  0  0  0  0  0
   -3.1191   -0.9339   -2.7563 O   0  0  0  0  0  0  0  0  0  0  0  0
   -4.0304   -1.2604   -2.5358 H   0  0  0  0  0  0  0  0  0  0  0  0
   -5.8608   -0.5092    0.8757 C   0  0  0  0  0  0  0  0  0  0  0  0
   -5.9632    0.0129    1.8495 H   0  0  0  0  0  0  0  0  0  0  0  0
   -5.3878   -1.5008    1.0417 H   0  0  0  0  0  0  0  0  0  0  0  0
   -6.8687   -0.6666    0.4383 H   0  0  0  0  0  0  0  0  0  0  0  0
  1  2  1  0
  2  3  1  0
  3  4  2  0
  4  5  1  0
  5  6  1  6
  5  7  1  0
  7  8  1  1
  7  9  1  0
  9 10  1  0
 10 11  2  0
 11 12  1  0
 11 13  1  0
 13 14  1  0
 13 15  2  0
 15 16  1  0
 16 17  1  0
 16 18  2  0
 18 19  1  0
 19 20  1  0
 20 21  1  0
 20 22  1  0
 20 23  1  0
 18 24  1  0
 24 25  1  0
 24 26  2  0
 26 27  1  0
 26 28  1  0
 28 29  2  0
 29 30  1  0
  7 31  1  0
 31 32  1  0
 32 33  1  1
 32 34  1  0
 34 35  1  0
 34 36  1  0
 34 37  1  0
 37 38  1  0
 32 39  1  0
 39 40  1  6
 39 41  1  0
 41 42  1  0
 39 43  1  0
 43 44  1  6
 43 45  1  0
 45 46  1  0
  3 47  1  0
 47 48  1  0
 47 49  1  0
 47 50  1  0
 43  5  1  0
 29 10  1  0
 28 15  1  0
M  END
>  <UniqueID>  (86) 
85

>  <SMILES>  (86) 
COc1ccc2cc(O[C@@H]3O[C@H](CO)[C@H](O)[C@@H](O)[C@H]3/N=C(\C)O)ccc2c1

>  <Energy>  (86) 
49.73750387972561

>  <Genealogy>  (86) 
COc1ccc2cc(OC3OC(CO)C(O)C(O)C3N=C(C)O)ccc2c1 (tautomer)
COc1ccc2cc(O[C@@H]3O[C@H](CO)[C@H](O)[C@@H](O)[C@H]3N=C(C)O)ccc2c1 (chirality)
COc1ccc2cc(O[C@@H]3O[C@H](CO)[C@H](O)[C@@H](O)[C@H]3/N=C(\C)O)ccc2c1 (cis-trans isomerization)
COc1ccc2cc(O[C@@H]3O[C@H](CO)[C@H](O)[C@@H](O)[C@H]3/N=C(\C)O)ccc2c1 (3D coordinates assigned)
COc1ccc2cc(O[C@@H]3O[C@H](CO)[C@H](O)[C@@H](O)[C@H]3/N=C(\C)O)ccc2c1 (nonaromatic ring conformer: 49.73750387972561 kcal/mol)

$$$$
44341508
     RDKit          3D

 50 52  0  0  0  0  0  0  0  0999 V2000
    1.1220    6.0407    4.4256 C   0  0  0  0  0  0  0  0  0  0  0  0
    1.9278    4.9268    4.0551 O   0  0  0  0  0  0  0  0  0  0  0  0
    1.5987    4.0122    3.0435 C   0  0  0  0  0  0  0  0  0  0  0  0
    0.4159    4.1181    2.2872 C   0  0  0  0  0  0  0  0  0  0  0  0
    0.1284    3.1836    1.2888 C   0  0  0  0  0  0  0  0  0  0  0  0
    1.0156    2.1288    1.0305 C   0  0  0  0  0  0  0  0  0  0  0  0
    0.7294    1.1813    0.0352 C   0  0  0  0  0  0  0  0  0  0  0  0
    1.6121    0.1080   -0.2012 C   0  0  0  0  0  0  0  0  0  0  0  0
    1.3659   -0.8937   -1.1563 O   0  0  0  0  0  0  0  0  0  0  0  0
    0.1191   -1.1804   -1.7972 C   0  0  1  0  0  0  0  0  0  0  0  0
    0.4106   -1.8987   -2.9848 O   0  0  0  0  0  0  0  0  0  0  0  0
   -0.7693   -2.1407   -3.7328 C   0  0  1  0  0  0  0  0  0  0  0  0
   -0.3728   -2.7122   -5.1032 C   0  0  0  0  0  0  0  0  0  0  0  0
   -1.5035   -2.9334   -5.9031 O   0  0  0  0  0  0  0  0  0  0  0  0
   -1.6978   -3.1037   -2.9609 C   0  0  1  0  0  0  0  0  0  0  0  0
   -1.0536   -4.3402   -2.7738 O   0  0  0  0  0  0  0  0  0  0  0  0
   -2.0482   -2.4737   -1.5993 C   0  0  1  0  0  0  0  0  0  0  0  0
   -2.7636   -3.3843   -0.8046 O   0  0  0  0  0  0  0  0  0  0  0  0
   -0.7670   -2.0426   -0.8621 C   0  0  2  0  0  0  0  0  0  0  0  0
   -1.1281   -1.2964    0.3479 N   0  0  0  0  0  0  0  0  0  0  0  0
   -0.5428   -1.5550    1.6330 C   0  0  0  0  0  0  0  0  0  0  0  0
   -0.8830   -0.6847    2.7991 C   0  0  0  0  0  0  0  0  0  0  0  0
    0.2344   -2.5335    1.7989 O   0  0  0  0  0  0  0  0  0  0  0  0
    2.7952    0.0213    0.5415 C   0  0  0  0  0  0  0  0  0  0  0  0
    3.0910    0.9625    1.5299 C   0  0  0  0  0  0  0  0  0  0  0  0
    2.2046    2.0167    1.7866 C   0  0  0  0  0  0  0  0  0  0  0  0
    2.4859    2.9604    2.7860 C   0  0  0  0  0  0  0  0  0  0  0  0
    1.0004    6.7280    3.5618 H   0  0  0  0  0  0  0  0  0  0  0  0
    1.6207    6.5908    5.2496 H   0  0  0  0  0  0  0  0  0  0  0  0
    0.1290    5.6926    4.7803 H   0  0  0  0  0  0  0  0  0  0  0  0
   -0.2887    4.9192    2.4635 H   0  0  0  0  0  0  0  0  0  0  0  0
   -0.7893    3.2840    0.7213 H   0  0  0  0  0  0  0  0  0  0  0  0
   -0.1814    1.2869   -0.5350 H   0  0  0  0  0  0  0  0  0  0  0  0
   -0.3929   -0.2304   -2.0642 H   0  0  0  0  0  0  0  0  0  0  0  0
   -1.3092   -1.1836   -3.9277 H   0  0  0  0  0  0  0  0  0  0  0  0
    0.1687   -3.6734   -4.9739 H   0  0  0  0  0  0  0  0  0  0  0  0
    0.3230   -2.0083   -5.6145 H   0  0  0  0  0  0  0  0  0  0  0  0
   -1.8079   -2.0423   -6.2178 H   0  0  0  0  0  0  0  0  0  0  0  0
   -2.6385   -3.2430   -3.5446 H   0  0  0  0  0  0  0  0  0  0  0  0
   -1.7650   -5.0202   -2.6430 H   0  0  0  0  0  0  0  0  0  0  0  0
   -2.6751   -1.5675   -1.7794 H   0  0  0  0  0  0  0  0  0  0  0  0
   -3.6764   -3.4444   -1.1906 H   0  0  0  0  0  0  0  0  0  0  0  0
   -0.1965   -2.9597   -0.5934 H   0  0  0  0  0  0  0  0  0  0  0  0
   -1.7798   -0.4843    0.2539 H   0  0  0  0  0  0  0  0  0  0  0  0
   -0.0434   -0.6730    3.5261 H   0  0  0  0  0  0  0  0  0  0  0  0
   -1.0691    0.3562    2.4607 H   0  0  0  0  0  0  0  0  0  0  0  0
   -1.7941   -1.0749    3.2977 H   0  0  0  0  0  0  0  0  0  0  0  0
    3.4843   -0.7941    0.3613 H   0  0  0  0  0  0  0  0  0  0  0  0
    4.0092    0.8625    2.0964 H   0  0  0  0  0  0  0  0  0  0  0  0
    3.3953    2.8821    3.3705 H   0  0  0  0  0  0  0  0  0  0  0  0
  1  2  1  0
  2  3  1  0
  3  4  2  0
  4  5  1  0
  5  6  2  0
  6  7  1  0
  7  8  2  0
  8  9  1  0
  9 10  1  0
 10 11  1  0
 11 12  1  0
 12 13  1  0
 13 14  1  0
 12 15  1  0
 15 16  1  0
 15 17  1  0
 17 18  1  0
 17 19  1  0
 19 20  1  0
 20 21  1  0
 21 22  1  0
 21 23  2  0
  8 24  1  0
 24 25  2  0
 25 26  1  0
 26 27  2  0
 27  3  1  0
 26  6  1  0
 19 10  1  0
  1 28  1  0
  1 29  1  0
  1 30  1  0
  4 31  1  0
  5 32  1  0
  7 33  1  0
 10 34  1  6
 12 35  1  6
 13 36  1  0
 13 37  1  0
 14 38  1  0
 15 39  1  6
 16 40  1  0
 17 41  1  6
 18 42  1  0
 19 43  1  1
 20 44  1  0
 22 45  1  0
 22 46  1  0
 22 47  1  0
 24 48  1  0
 25 49  1  0
 27 50  1  0
M  END
>  <UniqueID>  (87) 
86

>  <SMILES>  (87) 
COc1ccc2cc(O[C@H]3O[C@@H](CO)[C@@H](O)[C@@H](O)[C@@H]3NC(C)=O)ccc2c1

>  <Energy>  (87) 
50.97547565806083

>  <Genealogy>  (87) 
COc1ccc2cc(O[C@H]3O[C@@H](CO)[C@@H](O)[C@@H](O)[C@@H]3NC(C)=O)ccc2c1 (chirality)
COc1ccc2cc(O[C@H]3O[C@@H](CO)[C@@H](O)[C@@H](O)[C@@H]3NC(C)=O)ccc2c1 (3D coordinates assigned)
COc1ccc2cc(O[C@H]3O[C@@H](CO)[C@@H](O)[C@@H](O)[C@@H]3NC(C)=O)ccc2c1 (nonaromatic ring conformer: 50.97547565806083 kcal/mol)

$$$$
44341508
     RDKit          3D

 50 52  0  0  0  0  0  0  0  0999 V2000
   -4.3087    1.7463    2.1160 H   0  0  0  0  0  0  0  0  0  0  0  0
   -3.9611    1.4869    1.2007 O   0  0  0  0  0  0  0  0  0  0  0  0
   -4.3426    0.2888    0.5975 C   0  0  0  0  0  0  0  0  0  0  0  0
   -3.8792   -0.0448   -0.5704 N   0  0  0  0  0  0  0  0  0  0  0  0
   -2.9297    0.7522   -1.3526 C   0  0  1  0  0  0  0  0  0  0  0  0
   -3.1419    1.8347   -1.2033 H   0  0  0  0  0  0  0  0  0  0  0  0
   -1.4789    0.4524   -0.9146 C   0  0  2  0  0  0  0  0  0  0  0  0
   -1.2883   -0.6436   -1.0012 H   0  0  0  0  0  0  0  0  0  0  0  0
   -1.3136    0.8251    0.4522 O   0  0  0  0  0  0  0  0  0  0  0  0
   -0.1593    0.5918    1.2154 C   0  0  0  0  0  0  0  0  0  0  0  0
   -0.1474    1.0314    2.5436 C   0  0  0  0  0  0  0  0  0  0  0  0
   -1.0154    1.5337    2.9516 H   0  0  0  0  0  0  0  0  0  0  0  0
    0.9738    0.8304    3.3522 C   0  0  0  0  0  0  0  0  0  0  0  0
    0.9551    1.1822    4.3769 H   0  0  0  0  0  0  0  0  0  0  0  0
    2.1062    0.1815    2.8397 C   0  0  0  0  0  0  0  0  0  0  0  0
    3.2384   -0.0238    3.6440 C   0  0  0  0  0  0  0  0  0  0  0  0
    3.2310    0.3235    4.6691 H   0  0  0  0  0  0  0  0  0  0  0  0
    4.3733   -0.6746    3.1217 C   0  0  0  0  0  0  0  0  0  0  0  0
    5.5284   -0.9009    3.8851 O   0  0  0  0  0  0  0  0  0  0  0  0
    5.6823   -0.5134    5.2466 C   0  0  0  0  0  0  0  0  0  0  0  0
    4.9213   -1.0209    5.8762 H   0  0  0  0  0  0  0  0  0  0  0  0
    6.6908   -0.8141    5.5972 H   0  0  0  0  0  0  0  0  0  0  0  0
    5.5865    0.5886    5.3434 H   0  0  0  0  0  0  0  0  0  0  0  0
    4.3604   -1.1162    1.7937 C   0  0  0  0  0  0  0  0  0  0  0  0
    5.2283   -1.6182    1.3848 H   0  0  0  0  0  0  0  0  0  0  0  0
    3.2380   -0.9178    0.9862 C   0  0  0  0  0  0  0  0  0  0  0  0
    3.2558   -1.2704   -0.0384 H   0  0  0  0  0  0  0  0  0  0  0  0
    2.1056   -0.2695    1.4992 C   0  0  0  0  0  0  0  0  0  0  0  0
    0.9738   -0.0643    0.6949 C   0  0  0  0  0  0  0  0  0  0  0  0
    0.9830   -0.4151   -0.3288 H   0  0  0  0  0  0  0  0  0  0  0  0
   -0.5653    1.1976   -1.7023 O   0  0  0  0  0  0  0  0  0  0  0  0
   -0.5960    0.7539   -3.0473 C   0  0  2  0  0  0  0  0  0  0  0  0
   -0.4140   -0.3460   -3.0990 H   0  0  0  0  0  0  0  0  0  0  0  0
    0.5449    1.4259   -3.8236 C   0  0  0  0  0  0  0  0  0  0  0  0
    0.4340    2.5300   -3.7789 H   0  0  0  0  0  0  0  0  0  0  0  0
    0.5137    1.1228   -4.8953 H   0  0  0  0  0  0  0  0  0  0  0  0
    1.7840    1.0854   -3.2622 O   0  0  0  0  0  0  0  0  0  0  0  0
    1.9805    0.1552   -3.5485 H   0  0  0  0  0  0  0  0  0  0  0  0
   -1.9729    1.0626   -3.6893 C   0  0  2  0  0  0  0  0  0  0  0  0
   -1.9940    0.6075   -4.7040 H   0  0  0  0  0  0  0  0  0  0  0  0
   -2.1838    2.4458   -3.8508 O   0  0  0  0  0  0  0  0  0  0  0  0
   -2.0492    2.8855   -2.9720 H   0  0  0  0  0  0  0  0  0  0  0  0
   -3.1062    0.4297   -2.8509 C   0  0  1  0  0  0  0  0  0  0  0  0
   -4.0856    0.8481   -3.1839 H   0  0  0  0  0  0  0  0  0  0  0  0
   -3.1094   -0.9649   -3.0355 O   0  0  0  0  0  0  0  0  0  0  0  0
   -3.5312   -1.1381   -3.9175 H   0  0  0  0  0  0  0  0  0  0  0  0
   -5.2845   -0.6297    1.3066 C   0  0  0  0  0  0  0  0  0  0  0  0
   -4.7648   -1.0943    2.1700 H   0  0  0  0  0  0  0  0  0  0  0  0
   -6.1599   -0.0547    1.6744 H   0  0  0  0  0  0  0  0  0  0  0  0
   -5.6444   -1.4310    0.6261 H   0  0  0  0  0  0  0  0  0  0  0  0
  1  2  1  0
  2  3  1  0
  3  4  2  0
  4  5  1  0
  5  6  1  6
  5  7  1  0
  7  8  1  1
  7  9  1  0
  9 10  1  0
 10 11  2  0
 11 12  1  0
 11 13  1  0
 13 14  1  0
 13 15  2  0
 15 16  1  0
 16 17  1  0
 16 18  2  0
 18 19  1  0
 19 20  1  0
 20 21  1  0
 20 22  1  0
 20 23  1  0
 18 24  1  0
 24 25  1  0
 24 26  2  0
 26 27  1  0
 26 28  1  0
 28 29  2  0
 29 30  1  0
  7 31  1  0
 31 32  1  0
 32 33  1  1
 32 34  1  0
 34 35  1  0
 34 36  1  0
 34 37  1  0
 37 38  1  0
 32 39  1  0
 39 40  1  6
 39 41  1  0
 41 42  1  0
 39 43  1  0
 43 44  1  6
 43 45  1  0
 45 46  1  0
  3 47  1  0
 47 48  1  0
 47 49  1  0
 47 50  1  0
 43  5  1  0
 29 10  1  0
 28 15  1  0
M  END
>  <UniqueID>  (88) 
87

>  <SMILES>  (88) 
COc1ccc2cc(O[C@@H]3O[C@H](CO)[C@H](O)[C@@H](O)[C@H]3/N=C(\C)O)ccc2c1

>  <Energy>  (88) 
51.670361085441414

>  <Genealogy>  (88) 
COc1ccc2cc(OC3OC(CO)C(O)C(O)C3N=C(C)O)ccc2c1 (tautomer)
COc1ccc2cc(O[C@@H]3O[C@H](CO)[C@H](O)[C@@H](O)[C@H]3N=C(C)O)ccc2c1 (chirality)
COc1ccc2cc(O[C@@H]3O[C@H](CO)[C@H](O)[C@@H](O)[C@H]3/N=C(\C)O)ccc2c1 (cis-trans isomerization)
COc1ccc2cc(O[C@@H]3O[C@H](CO)[C@H](O)[C@@H](O)[C@H]3/N=C(\C)O)ccc2c1 (3D coordinates assigned)
COc1ccc2cc(O[C@@H]3O[C@H](CO)[C@H](O)[C@@H](O)[C@H]3/N=C(\C)O)ccc2c1 (nonaromatic ring conformer: 51.670361085441414 kcal/mol)

$$$$
44229083
     RDKit          3D

 33 33  0  0  0  0  0  0  0  0999 V2000
   -2.7370   -0.6013   -3.3870 H   0  0  0  0  0  0  0  0  0  0  0  0
   -1.8126   -0.5147   -2.9819 O   0  0  0  0  0  0  0  0  0  0  0  0
   -0.6665   -0.7140   -3.7479 C   0  0  0  0  0  0  0  0  0  0  0  0
    0.5234   -0.6261   -3.2264 N   0  0  0  0  0  0  0  0  0  0  0  0
    0.8927   -0.2970   -1.8417 C   0  0  1  0  0  0  0  0  0  0  0  0
    1.9940   -0.4424   -1.7749 H   0  0  0  0  0  0  0  0  0  0  0  0
    0.6374    1.1872   -1.4946 C   0  0  1  0  0  0  0  0  0  0  0  0
    1.2492    1.7970   -2.1975 H   0  0  0  0  0  0  0  0  0  0  0  0
   -0.7117    1.5401   -1.6619 O   0  0  0  0  0  0  0  0  0  0  0  0
   -0.7626    2.5227   -1.5313 H   0  0  0  0  0  0  0  0  0  0  0  0
    1.0774    1.4800   -0.1748 O   0  0  0  0  0  0  0  0  0  0  0  0
    0.3795    0.7066    0.7925 C   0  0  2  0  0  0  0  0  0  0  0  0
   -0.7195    0.8716    0.7020 H   0  0  0  0  0  0  0  0  0  0  0  0
    0.7745    1.2019    2.1896 C   0  0  0  0  0  0  0  0  0  0  0  0
    0.5308    2.2875    2.2462 H   0  0  0  0  0  0  0  0  0  0  0  0
    1.8729    1.0743    2.3217 H   0  0  0  0  0  0  0  0  0  0  0  0
    0.0542    0.4890    3.1687 O   0  0  0  0  0  0  0  0  0  0  0  0
    0.5403    1.0424    4.7066 P   0  0  0  0  0  5  0  0  0  0  0  0
    0.1976    2.5068    4.8658 O   0  0  0  0  0  0  0  0  0  0  0  0
   -0.2757    0.1539    5.8912 O   0  0  0  0  0  1  0  0  0  0  0  0
    2.2064    0.8257    4.9081 O   0  0  0  0  0  1  0  0  0  0  0  0
    0.6761   -0.8046    0.6119 C   0  0  2  0  0  0  0  0  0  0  0  0
    0.0694   -1.3922    1.3420 H   0  0  0  0  0  0  0  0  0  0  0  0
    2.0476   -1.0627    0.7932 O   0  0  0  0  0  0  0  0  0  0  0  0
    2.1764   -1.3028    1.7478 H   0  0  0  0  0  0  0  0  0  0  0  0
    0.2519   -1.2379   -0.8031 C   0  0  2  0  0  0  0  0  0  0  0  0
   -0.8567   -1.1700   -0.8628 H   0  0  0  0  0  0  0  0  0  0  0  0
    0.6562   -2.5596   -1.0522 O   0  0  0  0  0  0  0  0  0  0  0  0
    0.0524   -3.1475   -0.5272 H   0  0  0  0  0  0  0  0  0  0  0  0
   -0.8034   -1.0741   -5.1923 C   0  0  0  0  0  0  0  0  0  0  0  0
    0.1442   -0.8783   -5.7385 H   0  0  0  0  0  0  0  0  0  0  0  0
   -1.0584   -2.1505   -5.2809 H   0  0  0  0  0  0  0  0  0  0  0  0
   -1.6102   -0.4689   -5.6560 H   0  0  0  0  0  0  0  0  0  0  0  0
  1  2  1  0
  2  3  1  0
  3  4  2  0
  4  5  1  0
  5  6  1  6
  5  7  1  0
  7  8  1  6
  7  9  1  0
  9 10  1  0
  7 11  1  0
 11 12  1  0
 12 13  1  6
 12 14  1  0
 14 15  1  0
 14 16  1  0
 14 17  1  0
 17 18  1  0
 18 19  2  0
 18 20  1  0
 18 21  1  0
 12 22  1  0
 22 23  1  1
 22 24  1  0
 24 25  1  0
 22 26  1  0
 26 27  1  1
 26 28  1  0
 28 29  1  0
  3 30  1  0
 30 31  1  0
 30 32  1  0
 30 33  1  0
 26  5  1  0
M  CHG  2  20  -1  21  -1
M  END
>  <UniqueID>  (89) 
88

>  <SMILES>  (89) 
C/C(O)=N/[C@H]1[C@@H](O)O[C@H](COP(=O)([O-])[O-])[C@H](O)[C@@H]1O

>  <Energy>  (89) 
31.61254440822009

>  <Genealogy>  (89) 
CC(O)=N[C@H]1C(O)O[C@H](COP(=O)([O-])[O-])[C@H](O)[C@@H]1O (tautomer)
CC(O)=N[C@H]1[C@@H](O)O[C@H](COP(=O)([O-])[O-])[C@H](O)[C@@H]1O (chirality)
C/C(O)=N/[C@H]1[C@@H](O)O[C@H](COP(=O)([O-])[O-])[C@H](O)[C@@H]1O (cis-trans isomerization)
C/C(O)=N/[C@H]1[C@@H](O)O[C@H](COP(=O)([O-])[O-])[C@H](O)[C@@H]1O (3D coordinates assigned)
C/C(O)=N/[C@H]1[C@@H](O)O[C@H](COP(=O)([O-])[O-])[C@H](O)[C@@H]1O (nonaromatic ring conformer: 31.61254440822009 kcal/mol)

$$$$
44229083
     RDKit          3D

 33 33  0  0  0  0  0  0  0  0999 V2000
    4.6010   -0.7241   -1.0490 H   0  0  0  0  0  0  0  0  0  0  0  0
    3.7318   -0.2368   -0.8673 O   0  0  0  0  0  0  0  0  0  0  0  0
    2.5718   -0.9199   -0.5110 C   0  0  0  0  0  0  0  0  0  0  0  0
    1.4952   -0.2268   -0.2731 N   0  0  0  0  0  0  0  0  0  0  0  0
    0.1773   -0.7560    0.0985 C   0  0  1  0  0  0  0  0  0  0  0  0
    0.2955   -1.6641    0.7300 H   0  0  0  0  0  0  0  0  0  0  0  0
   -0.5816    0.2979    0.9288 C   0  0  1  0  0  0  0  0  0  0  0  0
   -1.5507   -0.1255    1.2810 H   0  0  0  0  0  0  0  0  0  0  0  0
    0.1772    0.6391    2.0592 O   0  0  0  0  0  0  0  0  0  0  0  0
    0.1255   -0.1291    2.6868 H   0  0  0  0  0  0  0  0  0  0  0  0
   -0.8045    1.4777    0.1741 O   0  0  0  0  0  0  0  0  0  0  0  0
   -1.6380    1.2536   -0.9561 C   0  0  2  0  0  0  0  0  0  0  0  0
   -1.6209    2.2056   -1.5317 H   0  0  0  0  0  0  0  0  0  0  0  0
   -3.1154    1.0412   -0.5540 C   0  0  0  0  0  0  0  0  0  0  0  0
   -3.2673    0.0041   -0.1886 H   0  0  0  0  0  0  0  0  0  0  0  0
   -3.3459    1.7504    0.2729 H   0  0  0  0  0  0  0  0  0  0  0  0
   -3.9495    1.3091   -1.6581 O   0  0  0  0  0  0  0  0  0  0  0  0
   -5.5653    1.0063   -1.2040 P   0  0  0  0  0  5  0  0  0  0  0  0
   -5.7595   -0.4694   -0.9364 O   0  0  0  0  0  0  0  0  0  0  0  0
   -6.5863    1.4760   -2.4671 O   0  0  0  0  0  1  0  0  0  0  0  0
   -5.9645    1.8901    0.1829 O   0  0  0  0  0  1  0  0  0  0  0  0
   -1.0487    0.1743   -1.9086 C   0  0  2  0  0  0  0  0  0  0  0  0
   -0.1201    0.5990   -2.3599 H   0  0  0  0  0  0  0  0  0  0  0  0
   -1.9464   -0.1449   -2.9409 O   0  0  0  0  0  0  0  0  0  0  0  0
   -1.9604    0.6323   -3.5588 H   0  0  0  0  0  0  0  0  0  0  0  0
   -0.6343   -1.1069   -1.1642 C   0  0  2  0  0  0  0  0  0  0  0  0
   -0.0038   -1.7073   -1.8596 H   0  0  0  0  0  0  0  0  0  0  0  0
   -1.7698   -1.8596   -0.8206 O   0  0  0  0  0  0  0  0  0  0  0  0
   -1.4533   -2.7755   -0.6043 H   0  0  0  0  0  0  0  0  0  0  0  0
    2.6084   -2.4190   -0.3791 C   0  0  0  0  0  0  0  0  0  0  0  0
    2.4893   -2.7039    0.6870 H   0  0  0  0  0  0  0  0  0  0  0  0
    1.8039   -2.8872   -0.9807 H   0  0  0  0  0  0  0  0  0  0  0  0
    3.5791   -2.8176   -0.7399 H   0  0  0  0  0  0  0  0  0  0  0  0
  1  2  1  0
  2  3  1  0
  3  4  2  0
  4  5  1  0
  5  6  1  1
  5  7  1  0
  7  8  1  1
  7  9  1  0
  9 10  1  0
  7 11  1  0
 11 12  1  0
 12 13  1  6
 12 14  1  0
 14 15  1  0
 14 16  1  0
 14 17  1  0
 17 18  1  0
 18 19  2  0
 18 20  1  0
 18 21  1  0
 12 22  1  0
 22 23  1  6
 22 24  1  0
 24 25  1  0
 22 26  1  0
 26 27  1  6
 26 28  1  0
 28 29  1  0
  3 30  1  0
 30 31  1  0
 30 32  1  0
 30 33  1  0
 26  5  1  0
M  CHG  2  20  -1  21  -1
M  END
>  <UniqueID>  (90) 
89

>  <SMILES>  (90) 
C/C(O)=N\[C@H]1[C@@H](O)O[C@H](COP(=O)([O-])[O-])[C@H](O)[C@@H]1O

>  <Energy>  (90) 
33.687875600127505

>  <Genealogy>  (90) 
CC(O)=N[C@H]1C(O)O[C@H](COP(=O)([O-])[O-])[C@H](O)[C@@H]1O (tautomer)
CC(O)=N[C@H]1[C@@H](O)O[C@H](COP(=O)([O-])[O-])[C@H](O)[C@@H]1O (chirality)
C/C(O)=N\[C@H]1[C@@H](O)O[C@H](COP(=O)([O-])[O-])[C@H](O)[C@@H]1O (cis-trans isomerization)
C/C(O)=N\[C@H]1[C@@H](O)O[C@H](COP(=O)([O-])[O-])[C@H](O)[C@@H]1O (3D coordinates assigned)
C/C(O)=N\[C@H]1[C@@H](O)O[C@H](COP(=O)([O-])[O-])[C@H](O)[C@@H]1O (nonaromatic ring conformer: 33.687875600127505 kcal/mol)

$$$$
44229083
     RDKit          3D

 33 33  0  0  0  0  0  0  0  0999 V2000
   -1.8639   -0.4955   -5.3376 H   0  0  0  0  0  0  0  0  0  0  0  0
   -1.6746   -0.7248   -4.3693 O   0  0  0  0  0  0  0  0  0  0  0  0
   -0.5497   -0.2376   -3.7086 C   0  0  0  0  0  0  0  0  0  0  0  0
   -0.3653   -0.5855   -2.4670 N   0  0  0  0  0  0  0  0  0  0  0  0
    0.7361   -0.1810   -1.5828 C   0  0  1  0  0  0  0  0  0  0  0  0
    1.6025    0.1871   -2.1734 H   0  0  0  0  0  0  0  0  0  0  0  0
    0.2643    0.9301   -0.6215 C   0  0  1  0  0  0  0  0  0  0  0  0
    1.1171    1.2636    0.0144 H   0  0  0  0  0  0  0  0  0  0  0  0
   -0.1864    2.0350   -1.3593 O   0  0  0  0  0  0  0  0  0  0  0  0
    0.6195    2.5312   -1.6605 H   0  0  0  0  0  0  0  0  0  0  0  0
   -0.8054    0.4765    0.1918 O   0  0  0  0  0  0  0  0  0  0  0  0
   -0.4280   -0.5980    1.0449 C   0  0  2  0  0  0  0  0  0  0  0  0
   -1.3702   -0.9570    1.5151 H   0  0  0  0  0  0  0  0  0  0  0  0
    0.4575   -0.1350    2.2220 C   0  0  0  0  0  0  0  0  0  0  0  0
    1.4898    0.0708    1.8697 H   0  0  0  0  0  0  0  0  0  0  0  0
    0.5013   -0.9598    2.9685 H   0  0  0  0  0  0  0  0  0  0  0  0
   -0.1151    1.0117    2.8069 O   0  0  0  0  0  0  0  0  0  0  0  0
    0.9107    1.5526    4.0576 P   0  0  0  0  0  5  0  0  0  0  0  0
    2.2211    2.0370    3.4788 O   0  0  0  0  0  0  0  0  0  0  0  0
    0.1594    2.8326    4.8671 O   0  0  0  0  0  1  0  0  0  0  0  0
    1.2066    0.3032    5.1601 O   0  0  0  0  0  1  0  0  0  0  0  0
    0.1307   -1.8115    0.2503 C   0  0  2  0  0  0  0  0  0  0  0  0
   -0.7155   -2.2524   -0.3288 H   0  0  0  0  0  0  0  0  0  0  0  0
    0.6449   -2.7931    1.1141 O   0  0  0  0  0  0  0  0  0  0  0  0
   -0.1328   -3.2098    1.5693 H   0  0  0  0  0  0  0  0  0  0  0  0
    1.2063   -1.3997   -0.7702 C   0  0  2  0  0  0  0  0  0  0  0  0
    1.3673   -2.2584   -1.4648 H   0  0  0  0  0  0  0  0  0  0  0  0
    2.4150   -1.1135   -0.1127 O   0  0  0  0  0  0  0  0  0  0  0  0
    3.1310   -1.1396   -0.8000 H   0  0  0  0  0  0  0  0  0  0  0  0
    0.4172    0.6438   -4.4515 C   0  0  0  0  0  0  0  0  0  0  0  0
    0.5565    1.6045   -3.9170 H   0  0  0  0  0  0  0  0  0  0  0  0
    1.3939    0.1268   -4.5562 H   0  0  0  0  0  0  0  0  0  0  0  0
    0.0352    0.8717   -5.4682 H   0  0  0  0  0  0  0  0  0  0  0  0
  1  2  1  0
  2  3  1  0
  3  4  2  0
  4  5  1  0
  5  6  1  6
  5  7  1  0
  7  8  1  1
  7  9  1  0
  9 10  1  0
  7 11  1  0
 11 12  1  0
 12 13  1  1
 12 14  1  0
 14 15  1  0
 14 16  1  0
 14 17  1  0
 17 18  1  0
 18 19  2  0
 18 20  1  0
 18 21  1  0
 12 22  1  0
 22 23  1  6
 22 24  1  0
 24 25  1  0
 22 26  1  0
 26 27  1  6
 26 28  1  0
 28 29  1  0
  3 30  1  0
 30 31  1  0
 30 32  1  0
 30 33  1  0
 26  5  1  0
M  CHG  2  20  -1  21  -1
M  END
>  <UniqueID>  (91) 
90

>  <SMILES>  (91) 
C/C(O)=N/[C@H]1[C@@H](O)O[C@H](COP(=O)([O-])[O-])[C@H](O)[C@@H]1O

>  <Energy>  (91) 
34.528340983039826

>  <Genealogy>  (91) 
CC(O)=N[C@H]1C(O)O[C@H](COP(=O)([O-])[O-])[C@H](O)[C@@H]1O (tautomer)
CC(O)=N[C@H]1[C@@H](O)O[C@H](COP(=O)([O-])[O-])[C@H](O)[C@@H]1O (chirality)
C/C(O)=N/[C@H]1[C@@H](O)O[C@H](COP(=O)([O-])[O-])[C@H](O)[C@@H]1O (cis-trans isomerization)
C/C(O)=N/[C@H]1[C@@H](O)O[C@H](COP(=O)([O-])[O-])[C@H](O)[C@@H]1O (3D coordinates assigned)
C/C(O)=N/[C@H]1[C@@H](O)O[C@H](COP(=O)([O-])[O-])[C@H](O)[C@@H]1O (nonaromatic ring conformer: 34.528340983039826 kcal/mol)

$$$$
44119773
     RDKit          3D

 30 30  0  0  0  0  0  0  0  0999 V2000
    0.8965    4.0821    0.3990 C   0  0  0  0  0  0  0  0  0  0  0  0
    1.0850    2.6076    0.5460 C   0  0  0  0  0  0  0  0  0  0  0  0
    1.5279    2.1416    1.6305 O   0  0  0  0  0  0  0  0  0  0  0  0
    0.7957    1.7365   -0.5561 N   0  0  0  0  0  0  0  0  0  0  0  0
    0.9322    0.2782   -0.4603 C   0  0  2  0  0  0  0  0  0  0  0  0
    0.9552   -0.3646   -1.8632 C   0  0  1  0  0  0  0  0  0  0  0  0
    2.0448    0.1495   -2.5800 O   0  0  0  0  0  0  0  0  0  0  0  0
    1.1032   -1.7704   -1.7546 O   0  0  0  0  0  0  0  0  0  0  0  0
   -0.0331   -2.3475   -1.1323 C   0  0  1  0  0  0  0  0  0  0  0  0
    0.1084   -3.8760   -1.1857 C   0  0  0  0  0  0  0  0  0  0  0  0
    0.2335   -4.3101   -2.5132 O   0  0  0  0  0  0  0  0  0  0  0  0
   -0.1479   -1.8601    0.3312 C   0  0  2  0  0  0  0  0  0  0  0  0
   -1.2925   -2.4105    0.9323 O   0  0  0  0  0  0  0  0  0  0  0  0
   -0.2207   -0.3223    0.3714 C   0  0  2  0  0  0  0  0  0  0  0  0
   -1.4638    0.1032   -0.1326 O   0  0  0  0  0  0  0  0  0  0  0  0
    1.6800    4.4896   -0.2732 H   0  0  0  0  0  0  0  0  0  0  0  0
    0.9676    4.5851    1.3868 H   0  0  0  0  0  0  0  0  0  0  0  0
   -0.1033    4.2900   -0.0364 H   0  0  0  0  0  0  0  0  0  0  0  0
    0.4945    2.1677   -1.4600 H   0  0  0  0  0  0  0  0  0  0  0  0
    1.8990    0.0381    0.0379 H   0  0  0  0  0  0  0  0  0  0  0  0
    0.0165   -0.1070   -2.4123 H   0  0  0  0  0  0  0  0  0  0  0  0
    1.9642   -0.2037   -3.5043 H   0  0  0  0  0  0  0  0  0  0  0  0
   -0.9623   -2.0811   -1.6896 H   0  0  0  0  0  0  0  0  0  0  0  0
    1.0179   -4.1860   -0.6277 H   0  0  0  0  0  0  0  0  0  0  0  0
   -0.7687   -4.3684   -0.7071 H   0  0  0  0  0  0  0  0  0  0  0  0
   -0.6724   -4.2572   -2.9162 H   0  0  0  0  0  0  0  0  0  0  0  0
    0.7632   -2.1901    0.8854 H   0  0  0  0  0  0  0  0  0  0  0  0
   -1.1862   -2.2908    1.9122 H   0  0  0  0  0  0  0  0  0  0  0  0
   -0.1129   -0.0030    1.4347 H   0  0  0  0  0  0  0  0  0  0  0  0
   -1.6542    0.9891    0.2730 H   0  0  0  0  0  0  0  0  0  0  0  0
  1  2  1  0
  2  3  2  0
  2  4  1  0
  4  5  1  0
  5  6  1  0
  6  7  1  0
  6  8  1  0
  8  9  1  0
  9 10  1  0
 10 11  1  0
  9 12  1  0
 12 13  1  0
 12 14  1  0
 14 15  1  0
 14  5  1  0
  1 16  1  0
  1 17  1  0
  1 18  1  0
  4 19  1  0
  5 20  1  1
  6 21  1  6
  7 22  1  0
  9 23  1  6
 10 24  1  0
 10 25  1  0
 11 26  1  0
 12 27  1  1
 13 28  1  0
 14 29  1  1
 15 30  1  0
M  END
>  <UniqueID>  (92) 
91

>  <SMILES>  (92) 
CC(=O)N[C@@H]1[C@@H](O)O[C@@H](CO)[C@H](O)[C@@H]1O

>  <Energy>  (92) 
23.20016121900898

>  <Genealogy>  (92) 
CC(=O)N[C@@H]1[C@@H](O)O[C@@H](CO)[C@H](O)[C@@H]1O (chirality)
CC(=O)N[C@@H]1[C@@H](O)O[C@@H](CO)[C@H](O)[C@@H]1O (3D coordinates assigned)
CC(=O)N[C@@H]1[C@@H](O)O[C@@H](CO)[C@H](O)[C@@H]1O (nonaromatic ring conformer: 23.20016121900898 kcal/mol)

$$$$
44119773
     RDKit          3D

 30 30  0  0  0  0  0  0  0  0999 V2000
    0.1986    1.5852   -2.8197 H   0  0  0  0  0  0  0  0  0  0  0  0
    0.1498    2.5280   -2.4582 O   0  0  0  0  0  0  0  0  0  0  0  0
   -0.2420    2.8370   -1.1525 C   0  0  0  0  0  0  0  0  0  0  0  0
   -0.5529    1.9201   -0.2812 N   0  0  0  0  0  0  0  0  0  0  0  0
   -0.5106    0.4703   -0.4880 C   0  0  2  0  0  0  0  0  0  0  0  0
   -0.9622    0.2142   -1.4724 H   0  0  0  0  0  0  0  0  0  0  0  0
   -1.3484   -0.2270    0.6059 C   0  0  1  0  0  0  0  0  0  0  0  0
   -0.9575    0.0496    1.6124 H   0  0  0  0  0  0  0  0  0  0  0  0
   -2.6787    0.2180    0.5487 O   0  0  0  0  0  0  0  0  0  0  0  0
   -3.0716   -0.1381   -0.2911 H   0  0  0  0  0  0  0  0  0  0  0  0
   -1.3190   -1.6357    0.4394 O   0  0  0  0  0  0  0  0  0  0  0  0
   -0.0055   -2.1366    0.6294 C   0  0  1  0  0  0  0  0  0  0  0  0
    0.3762   -1.8464    1.6367 H   0  0  0  0  0  0  0  0  0  0  0  0
   -0.0645   -3.6696    0.6092 C   0  0  0  0  0  0  0  0  0  0  0  0
   -0.7428   -4.0138    1.4219 H   0  0  0  0  0  0  0  0  0  0  0  0
    0.9455   -4.0940    0.8042 H   0  0  0  0  0  0  0  0  0  0  0  0
   -0.5470   -4.1252   -0.6254 O   0  0  0  0  0  0  0  0  0  0  0  0
   -0.5537   -5.1159   -0.5696 H   0  0  0  0  0  0  0  0  0  0  0  0
    0.9481   -1.5847   -0.4613 C   0  0  2  0  0  0  0  0  0  0  0  0
    0.5793   -1.9026   -1.4668 H   0  0  0  0  0  0  0  0  0  0  0  0
    2.2589   -2.0489   -0.2531 O   0  0  0  0  0  0  0  0  0  0  0  0
    2.3664   -2.8759   -0.7917 H   0  0  0  0  0  0  0  0  0  0  0  0
    0.9419   -0.0450   -0.4321 C   0  0  2  0  0  0  0  0  0  0  0  0
    1.4906    0.3287   -1.3272 H   0  0  0  0  0  0  0  0  0  0  0  0
    1.5661    0.4257    0.7385 O   0  0  0  0  0  0  0  0  0  0  0  0
    2.5432    0.4380    0.5631 H   0  0  0  0  0  0  0  0  0  0  0  0
   -0.3326    4.2710   -0.7519 C   0  0  0  0  0  0  0  0  0  0  0  0
   -1.3986    4.5584   -0.6372 H   0  0  0  0  0  0  0  0  0  0  0  0
    0.1963    4.4292    0.2117 H   0  0  0  0  0  0  0  0  0  0  0  0
    0.1346    4.9157   -1.5257 H   0  0  0  0  0  0  0  0  0  0  0  0
  1  2  1  0
  2  3  1  0
  3  4  2  0
  4  5  1  0
  5  6  1  6
  5  7  1  0
  7  8  1  1
  7  9  1  0
  9 10  1  0
  7 11  1  0
 11 12  1  0
 12 13  1  1
 12 14  1  0
 14 15  1  0
 14 16  1  0
 14 17  1  0
 17 18  1  0
 12 19  1  0
 19 20  1  6
 19 21  1  0
 21 22  1  0
 19 23  1  0
 23 24  1  6
 23 25  1  0
 25 26  1  0
  3 27  1  0
 27 28  1  0
 27 29  1  0
 27 30  1  0
 23  5  1  0
M  END
>  <UniqueID>  (93) 
92

>  <SMILES>  (93) 
C/C(O)=N/[C@@H]1[C@@H](O)O[C@@H](CO)[C@H](O)[C@@H]1O

>  <Energy>  (93) 
26.36317154509698

>  <Genealogy>  (93) 
CC(O)=N[C@@H]1[C@@H](O)OC(CO)[C@H](O)[C@@H]1O (tautomer)
CC(O)=N[C@@H]1[C@@H](O)O[C@@H](CO)[C@H](O)[C@@H]1O (chirality)
C/C(O)=N/[C@@H]1[C@@H](O)O[C@@H](CO)[C@H](O)[C@@H]1O (cis-trans isomerization)
C/C(O)=N/[C@@H]1[C@@H](O)O[C@@H](CO)[C@H](O)[C@@H]1O (3D coordinates assigned)
C/C(O)=N/[C@@H]1[C@@H](O)O[C@@H](CO)[C@H](O)[C@@H]1O (nonaromatic ring conformer: 26.36317154509698 kcal/mol)

$$$$
44119773
     RDKit          3D

 30 30  0  0  0  0  0  0  0  0999 V2000
   -1.2656    2.0101   -3.3553 H   0  0  0  0  0  0  0  0  0  0  0  0
   -1.2779    0.9977   -3.3123 O   0  0  0  0  0  0  0  0  0  0  0  0
   -0.7384    0.3171   -2.2245 C   0  0  0  0  0  0  0  0  0  0  0  0
   -0.2197    1.0013   -1.2437 N   0  0  0  0  0  0  0  0  0  0  0  0
    0.4095    0.4613   -0.0334 C   0  0  2  0  0  0  0  0  0  0  0  0
   -0.1005   -0.4757    0.2834 H   0  0  0  0  0  0  0  0  0  0  0  0
    0.2675    1.4783    1.1134 C   0  0  1  0  0  0  0  0  0  0  0  0
    0.7294    2.4514    0.8154 H   0  0  0  0  0  0  0  0  0  0  0  0
   -1.0954    1.6933    1.3620 O   0  0  0  0  0  0  0  0  0  0  0  0
   -1.1465    2.4249    2.0311 H   0  0  0  0  0  0  0  0  0  0  0  0
    0.8722    0.9735    2.2917 O   0  0  0  0  0  0  0  0  0  0  0  0
    2.2758    0.8527    2.1267 C   0  0  1  0  0  0  0  0  0  0  0  0
    2.7164    1.8368    1.8397 H   0  0  0  0  0  0  0  0  0  0  0  0
    2.8755    0.4625    3.4862 C   0  0  0  0  0  0  0  0  0  0  0  0
    2.4889    1.1595    4.2603 H   0  0  0  0  0  0  0  0  0  0  0  0
    2.5469   -0.5640    3.7756 H   0  0  0  0  0  0  0  0  0  0  0  0
    4.2747    0.5753    3.4659 O   0  0  0  0  0  0  0  0  0  0  0  0
    4.6428   -0.3463    3.4422 H   0  0  0  0  0  0  0  0  0  0  0  0
    2.5949   -0.2050    1.0404 C   0  0  2  0  0  0  0  0  0  0  0  0
    2.1973   -1.1903    1.3823 H   0  0  0  0  0  0  0  0  0  0  0  0
    3.9828   -0.2985    0.8447 O   0  0  0  0  0  0  0  0  0  0  0  0
    4.1459   -1.1470    0.3555 H   0  0  0  0  0  0  0  0  0  0  0  0
    1.9017    0.1724   -0.2855 C   0  0  2  0  0  0  0  0  0  0  0  0
    1.9845   -0.6894   -0.9861 H   0  0  0  0  0  0  0  0  0  0  0  0
    2.5143    1.3064   -0.8512 O   0  0  0  0  0  0  0  0  0  0  0  0
    3.3067    0.9875   -1.3572 H   0  0  0  0  0  0  0  0  0  0  0  0
   -0.7991   -1.1825   -2.2208 C   0  0  0  0  0  0  0  0  0  0  0  0
   -1.2614   -1.5436   -3.1634 H   0  0  0  0  0  0  0  0  0  0  0  0
   -1.4211   -1.5366   -1.3726 H   0  0  0  0  0  0  0  0  0  0  0  0
    0.2185   -1.6148   -2.1496 H   0  0  0  0  0  0  0  0  0  0  0  0
  1  2  1  0
  2  3  1  0
  3  4  2  0
  4  5  1  0
  5  6  1  1
  5  7  1  0
  7  8  1  6
  7  9  1  0
  9 10  1  0
  7 11  1  0
 11 12  1  0
 12 13  1  6
 12 14  1  0
 14 15  1  0
 14 16  1  0
 14 17  1  0
 17 18  1  0
 12 19  1  0
 19 20  1  1
 19 21  1  0
 21 22  1  0
 19 23  1  0
 23 24  1  6
 23 25  1  0
 25 26  1  0
  3 27  1  0
 27 28  1  0
 27 29  1  0
 27 30  1  0
 23  5  1  0
M  END
>  <UniqueID>  (94) 
93

>  <SMILES>  (94) 
C/C(O)=N\[C@@H]1[C@@H](O)O[C@@H](CO)[C@H](O)[C@@H]1O

>  <Energy>  (94) 
26.982286914189284

>  <Genealogy>  (94) 
CC(O)=N[C@@H]1[C@@H](O)OC(CO)[C@H](O)[C@@H]1O (tautomer)
CC(O)=N[C@@H]1[C@@H](O)O[C@@H](CO)[C@H](O)[C@@H]1O (chirality)
C/C(O)=N\[C@@H]1[C@@H](O)O[C@@H](CO)[C@H](O)[C@@H]1O (cis-trans isomerization)
C/C(O)=N\[C@@H]1[C@@H](O)O[C@@H](CO)[C@H](O)[C@@H]1O (3D coordinates assigned)
C/C(O)=N\[C@@H]1[C@@H](O)O[C@@H](CO)[C@H](O)[C@@H]1O (nonaromatic ring conformer: 26.982286914189284 kcal/mol)

$$$$
42612215
     RDKit          3D

 32 32  0  0  0  0  0  0  0  0999 V2000
    3.5094    1.9860   -0.3555 H   0  0  0  0  0  0  0  0  0  0  0  0
    3.0342    2.7302    0.1417 O   0  0  0  0  0  0  0  0  0  0  0  0
    1.6822    2.6325    0.4644 C   0  0  0  0  0  0  0  0  0  0  0  0
    1.0276    1.5660    0.0987 N   0  0  0  0  0  0  0  0  0  0  0  0
   -0.3892    1.2655    0.3462 C   0  0  2  0  0  0  0  0  0  0  0  0
   -0.9693    2.1951    0.5324 H   0  0  0  0  0  0  0  0  0  0  0  0
   -0.5237    0.3219    1.5586 C   0  0  2  0  0  0  0  0  0  0  0  0
   -1.6077    0.1560    1.7734 H   0  0  0  0  0  0  0  0  0  0  0  0
    0.0552    0.9213    2.6851 O   0  0  0  0  0  0  0  0  0  0  0  0
   -0.1415    0.3243    3.4534 H   0  0  0  0  0  0  0  0  0  0  0  0
    0.1335   -0.9089    1.3011 O   0  0  0  0  0  0  0  0  0  0  0  0
   -0.5209   -1.6188    0.2609 C   0  0  2  0  0  0  0  0  0  0  0  0
   -1.5953   -1.7746    0.5185 H   0  0  0  0  0  0  0  0  0  0  0  0
    0.1083   -3.0168    0.1466 C   0  0  0  0  0  0  0  0  0  0  0  0
   -0.0231   -3.5662    1.1070 H   0  0  0  0  0  0  0  0  0  0  0  0
   -0.4166   -3.6029   -0.6374 H   0  0  0  0  0  0  0  0  0  0  0  0
    1.4692   -2.9369   -0.1861 O   0  0  0  0  0  0  0  0  0  0  0  0
    1.9564   -2.7185    0.6508 H   0  0  0  0  0  0  0  0  0  0  0  0
   -0.4246   -0.8442   -1.0759 C   0  0  1  0  0  0  0  0  0  0  0  0
    0.6495   -0.7698   -1.3690 H   0  0  0  0  0  0  0  0  0  0  0  0
   -1.1494   -1.5242   -2.0687 O   0  0  0  0  0  0  0  0  0  0  0  0
   -0.8111   -1.2004   -2.9441 H   0  0  0  0  0  0  0  0  0  0  0  0
   -1.0046    0.5750   -0.8875 C   0  0  2  0  0  0  0  0  0  0  0  0
   -2.0989    0.4755   -0.7079 H   0  0  0  0  0  0  0  0  0  0  0  0
   -0.8443    1.3612   -2.0437 O   0  0  0  0  0  0  0  0  0  0  0  0
    0.1168    1.3532   -2.2911 H   0  0  0  0  0  0  0  0  0  0  0  0
    1.0197    3.7751    1.1907 C   0  0  0  0  0  0  0  0  0  0  0  0
    0.4706    3.3959    2.0795 H   0  0  0  0  0  0  0  0  0  0  0  0
    0.2939    4.2649    0.5082 H   0  0  0  0  0  0  0  0  0  0  0  0
    2.0109    4.7638    1.5985 N   0  0  0  0  0  0  0  0  0  0  0  0
    2.1558    5.0684    2.7828 N   0  0  0  0  0  4  0  0  0  0  0  0
    2.3009    5.3726    3.9657 N   0  0  0  0  0  2  0  0  0  0  0  0
  1  2  1  0
  2  3  1  0
  3  4  2  0
  4  5  1  0
  5  6  1  1
  5  7  1  0
  7  8  1  1
  7  9  1  0
  9 10  1  0
  7 11  1  0
 11 12  1  0
 12 13  1  1
 12 14  1  0
 14 15  1  0
 14 16  1  0
 14 17  1  0
 17 18  1  0
 12 19  1  0
 19 20  1  6
 19 21  1  0
 21 22  1  0
 19 23  1  0
 23 24  1  1
 23 25  1  0
 25 26  1  0
  3 27  1  0
 27 28  1  0
 27 29  1  0
 27 30  1  0
 30 31  2  0
 31 32  2  0
 23  5  1  0
M  CHG  2  31   1  32  -1
M  END
>  <UniqueID>  (95) 
94

>  <SMILES>  (95) 
[N-]=[N+]=NC/C(O)=N\[C@@H]1[C@H](O)O[C@H](CO)[C@@H](O)[C@@H]1O

>  <Energy>  (95) 
30.278453181593935

>  <Genealogy>  (95) 
[N-]=[N+]=NCC(O)=N[C@@H]1C(O)O[C@H](CO)[C@@H](O)[C@@H]1O (tautomer)
[N-]=[N+]=NCC(O)=N[C@@H]1[C@H](O)O[C@H](CO)[C@@H](O)[C@@H]1O (chirality)
[N-]=[N+]=NC/C(O)=N\[C@@H]1[C@H](O)O[C@H](CO)[C@@H](O)[C@@H]1O (cis-trans isomerization)
[N-]=[N+]=NC/C(O)=N\[C@@H]1[C@H](O)O[C@H](CO)[C@@H](O)[C@@H]1O (3D coordinates assigned)
[N-]=[N+]=NC/C(O)=N\[C@@H]1[C@H](O)O[C@H](CO)[C@@H](O)[C@@H]1O (nonaromatic ring conformer: 30.278453181593935 kcal/mol)

$$$$
42612215
     RDKit          3D

 32 32  0  0  0  0  0  0  0  0999 V2000
   -2.7748    0.4048    2.5970 H   0  0  0  0  0  0  0  0  0  0  0  0
   -2.9280    1.2272    2.0260 O   0  0  0  0  0  0  0  0  0  0  0  0
   -2.0181    1.5964    1.0380 C   0  0  0  0  0  0  0  0  0  0  0  0
   -2.2339    2.6882    0.2812 C   0  0  0  0  0  0  0  0  0  0  0  0
   -1.5572    2.9061   -0.5334 H   0  0  0  0  0  0  0  0  0  0  0  0
   -3.3484    3.5801    0.4482 N   0  0  0  0  0  0  0  0  0  0  0  0
   -4.1649    3.4860    1.3660 N   0  0  0  0  0  4  0  0  0  0  0  0
   -4.9830    3.3977    2.2806 N   0  0  0  0  0  2  0  0  0  0  0  0
   -0.8697    0.7614    0.8154 N   0  0  0  0  0  0  0  0  0  0  0  0
   -0.9661   -0.2475    1.0696 H   0  0  0  0  0  0  0  0  0  0  0  0
    0.4878    1.2904    0.6103 C   0  0  2  0  0  0  0  0  0  0  0  0
    0.4483    2.3475    0.2722 H   0  0  0  0  0  0  0  0  0  0  0  0
    1.2198    0.4752   -0.4708 C   0  0  2  0  0  0  0  0  0  0  0  0
    2.1982    0.9652   -0.6982 H   0  0  0  0  0  0  0  0  0  0  0  0
    0.4499    0.4715   -1.6423 O   0  0  0  0  0  0  0  0  0  0  0  0
    0.9984    0.0217   -2.3368 H   0  0  0  0  0  0  0  0  0  0  0  0
    1.4140   -0.8605   -0.0371 O   0  0  0  0  0  0  0  0  0  0  0  0
    2.3081   -0.9008    1.0637 C   0  0  2  0  0  0  0  0  0  0  0  0
    3.2749   -0.4088    0.8011 H   0  0  0  0  0  0  0  0  0  0  0  0
    2.6184   -2.3679    1.3818 C   0  0  0  0  0  0  0  0  0  0  0  0
    1.6779   -2.8996    1.6518 H   0  0  0  0  0  0  0  0  0  0  0  0
    3.3241   -2.4277    2.2405 H   0  0  0  0  0  0  0  0  0  0  0  0
    3.1995   -2.9798    0.2635 O   0  0  0  0  0  0  0  0  0  0  0  0
    3.3682   -3.9230    0.5221 H   0  0  0  0  0  0  0  0  0  0  0  0
    1.6877   -0.1946    2.2927 C   0  0  1  0  0  0  0  0  0  0  0  0
    0.7767   -0.7578    2.6055 H   0  0  0  0  0  0  0  0  0  0  0  0
    2.6201   -0.1756    3.3439 O   0  0  0  0  0  0  0  0  0  0  0  0
    2.1077   -0.0286    4.1814 H   0  0  0  0  0  0  0  0  0  0  0  0
    1.2958    1.2497    1.9252 C   0  0  2  0  0  0  0  0  0  0  0  0
    2.2362    1.8332    1.7785 H   0  0  0  0  0  0  0  0  0  0  0  0
    0.5568    1.8198    2.9749 O   0  0  0  0  0  0  0  0  0  0  0  0
    0.5317    2.7983    2.8082 H   0  0  0  0  0  0  0  0  0  0  0  0
  1  2  1  0
  2  3  1  0
  3  4  2  0
  4  5  1  0
  4  6  1  0
  6  7  2  0
  7  8  2  0
  3  9  1  0
  9 10  1  0
  9 11  1  0
 11 12  1  6
 11 13  1  0
 13 14  1  6
 13 15  1  0
 15 16  1  0
 13 17  1  0
 17 18  1  0
 18 19  1  6
 18 20  1  0
 20 21  1  0
 20 22  1  0
 20 23  1  0
 23 24  1  0
 18 25  1  0
 25 26  1  1
 25 27  1  0
 27 28  1  0
 25 29  1  0
 29 30  1  6
 29 31  1  0
 31 32  1  0
 29 11  1  0
M  CHG  2   7   1   8  -1
M  END
>  <UniqueID>  (96) 
95

>  <SMILES>  (96) 
[N-]=[N+]=N/C=C(\O)N[C@@H]1[C@H](O)O[C@H](CO)[C@@H](O)[C@@H]1O

>  <Energy>  (96) 
31.188968641541038

>  <Genealogy>  (96) 
[N-]=[N+]=NC=C(O)N[C@@H]1C(O)O[C@H](CO)[C@@H](O)[C@@H]1O (tautomer)
[N-]=[N+]=NC=C(O)N[C@@H]1[C@H](O)O[C@H](CO)[C@@H](O)[C@@H]1O (chirality)
[N-]=[N+]=N/C=C(\O)N[C@@H]1[C@H](O)O[C@H](CO)[C@@H](O)[C@@H]1O (cis-trans isomerization)
[N-]=[N+]=N/C=C(\O)N[C@@H]1[C@H](O)O[C@H](CO)[C@@H](O)[C@@H]1O (3D coordinates assigned)
[N-]=[N+]=N/C=C(\O)N[C@@H]1[C@H](O)O[C@H](CO)[C@@H](O)[C@@H]1O (nonaromatic ring conformer: 31.188968641541038 kcal/mol)

$$$$
42612215
     RDKit          3D

 32 32  0  0  0  0  0  0  0  0999 V2000
    3.5862   -1.5844   -2.4986 H   0  0  0  0  0  0  0  0  0  0  0  0
    2.6841   -1.4909   -2.0457 O   0  0  0  0  0  0  0  0  0  0  0  0
    2.5208   -0.7695   -0.8633 C   0  0  0  0  0  0  0  0  0  0  0  0
    3.5813   -0.1929   -0.2825 C   0  0  0  0  0  0  0  0  0  0  0  0
    4.5524   -0.2623   -0.7596 H   0  0  0  0  0  0  0  0  0  0  0  0
    3.4747    0.4512    0.9872 N   0  0  0  0  0  0  0  0  0  0  0  0
    4.4634    0.9550    1.5194 N   0  0  0  0  0  4  0  0  0  0  0  0
    5.4511    1.4587    2.0518 N   0  0  0  0  0  2  0  0  0  0  0  0
    1.2122   -0.7007   -0.2801 N   0  0  0  0  0  0  0  0  0  0  0  0
    0.6238   -1.5607   -0.3534 H   0  0  0  0  0  0  0  0  0  0  0  0
    0.5361    0.5768   -0.0085 C   0  0  2  0  0  0  0  0  0  0  0  0
    1.2842    1.3933    0.0870 H   0  0  0  0  0  0  0  0  0  0  0  0
   -0.2607    0.4966    1.3110 C   0  0  2  0  0  0  0  0  0  0  0  0
   -0.6726    1.5052    1.5470 H   0  0  0  0  0  0  0  0  0  0  0  0
    0.5898    0.1532    2.3744 O   0  0  0  0  0  0  0  0  0  0  0  0
    0.7772   -0.8193    2.3055 H   0  0  0  0  0  0  0  0  0  0  0  0
   -1.3118   -0.4517    1.2094 O   0  0  0  0  0  0  0  0  0  0  0  0
   -2.2840   -0.0187    0.2710 C   0  0  2  0  0  0  0  0  0  0  0  0
   -2.6779    0.9853    0.5567 H   0  0  0  0  0  0  0  0  0  0  0  0
   -3.4671   -0.9970    0.3064 C   0  0  0  0  0  0  0  0  0  0  0  0
   -4.2349   -0.6839   -0.4324 H   0  0  0  0  0  0  0  0  0  0  0  0
   -3.1310   -2.0237    0.0316 H   0  0  0  0  0  0  0  0  0  0  0  0
   -4.0622   -0.9984    1.5764 O   0  0  0  0  0  0  0  0  0  0  0  0
   -3.5157   -1.5979    2.1487 H   0  0  0  0  0  0  0  0  0  0  0  0
   -1.6724    0.0470   -1.1536 C   0  0  1  0  0  0  0  0  0  0  0  0
   -1.3712   -0.9791   -1.4577 H   0  0  0  0  0  0  0  0  0  0  0  0
   -2.6155    0.5086   -2.0901 O   0  0  0  0  0  0  0  0  0  0  0  0
   -2.9046    1.4150   -1.8056 H   0  0  0  0  0  0  0  0  0  0  0  0
   -0.4181    0.9499   -1.1603 C   0  0  2  0  0  0  0  0  0  0  0  0
   -0.7337    2.0090   -1.0006 H   0  0  0  0  0  0  0  0  0  0  0  0
    0.2546    0.8439   -2.3891 O   0  0  0  0  0  0  0  0  0  0  0  0
   -0.2588    1.3822   -3.0464 H   0  0  0  0  0  0  0  0  0  0  0  0
  1  2  1  0
  2  3  1  0
  3  4  2  0
  4  5  1  0
  4  6  1  0
  6  7  2  0
  7  8  2  0
  3  9  1  0
  9 10  1  0
  9 11  1  0
 11 12  1  1
 11 13  1  0
 13 14  1  1
 13 15  1  0
 15 16  1  0
 13 17  1  0
 17 18  1  0
 18 19  1  1
 18 20  1  0
 20 21  1  0
 20 22  1  0
 20 23  1  0
 23 24  1  0
 18 25  1  0
 25 26  1  6
 25 27  1  0
 27 28  1  0
 25 29  1  0
 29 30  1  1
 29 31  1  0
 31 32  1  0
 29 11  1  0
M  CHG  2   7   1   8  -1
M  END
>  <UniqueID>  (97) 
96

>  <SMILES>  (97) 
[N-]=[N+]=N/C=C(/O)N[C@@H]1[C@H](O)O[C@H](CO)[C@@H](O)[C@@H]1O

>  <Energy>  (97) 
31.588454128984345

>  <Genealogy>  (97) 
[N-]=[N+]=NC=C(O)N[C@@H]1C(O)O[C@H](CO)[C@@H](O)[C@@H]1O (tautomer)
[N-]=[N+]=NC=C(O)N[C@@H]1[C@H](O)O[C@H](CO)[C@@H](O)[C@@H]1O (chirality)
[N-]=[N+]=N/C=C(/O)N[C@@H]1[C@H](O)O[C@H](CO)[C@@H](O)[C@@H]1O (cis-trans isomerization)
[N-]=[N+]=N/C=C(/O)N[C@@H]1[C@H](O)O[C@H](CO)[C@@H](O)[C@@H]1O (3D coordinates assigned)
[N-]=[N+]=N/C=C(/O)N[C@@H]1[C@H](O)O[C@H](CO)[C@@H](O)[C@@H]1O (nonaromatic ring conformer: 31.588454128984345 kcal/mol)

$$$$
25243963
     RDKit          3D

 33 33  0  0  0  0  0  0  0  0999 V2000
   -2.3852    1.8079   -4.5154 C   0  0  0  0  0  0  0  0  0  0  0  0
   -1.8713    0.9822   -3.3815 C   0  0  0  0  0  0  0  0  0  0  0  0
   -1.5567   -0.2221   -3.5823 O   0  0  0  0  0  0  0  0  0  0  0  0
   -1.7088    1.5734   -2.0845 N   0  0  0  0  0  0  0  0  0  0  0  0
   -1.1402    0.8488   -0.9432 C   0  0  1  0  0  0  0  0  0  0  0  0
    0.3165    1.2893   -0.7108 C   0  0  2  0  0  0  0  0  0  0  0  0
    1.0749    0.9694   -1.8454 O   0  0  0  0  0  0  0  0  0  0  0  0
    0.8600    0.6100    0.4089 O   0  0  0  0  0  0  0  0  0  0  0  0
    0.1970    0.9977    1.6022 C   0  0  2  0  0  0  0  0  0  0  0  0
    0.9397    0.3761    2.7911 C   0  0  0  0  0  0  0  0  0  0  0  0
    2.2815    0.8039    2.7711 O   0  0  0  0  0  0  0  0  0  0  0  0
    3.0942    0.0799    4.0831 P   0  0  0  0  0  5  0  0  0  0  0  0
    4.5337    0.5396    4.0841 O   0  0  0  0  0  0  0  0  0  0  0  0
    2.3685    0.5359    5.5421 O   0  0  0  0  0  1  0  0  0  0  0  0
    3.0535   -1.6052    3.9347 O   0  0  0  0  0  1  0  0  0  0  0  0
   -1.2809    0.5366    1.5665 C   0  0  1  0  0  0  0  0  0  0  0  0
   -1.9589    0.9780    2.7162 O   0  0  0  0  0  0  0  0  0  0  0  0
   -1.9711    1.1295    0.3245 C   0  0  2  0  0  0  0  0  0  0  0  0
   -3.2788    0.6295    0.1901 O   0  0  0  0  0  0  0  0  0  0  0  0
   -3.2929    2.3608   -4.1950 H   0  0  0  0  0  0  0  0  0  0  0  0
   -2.6467    1.1627   -5.3810 H   0  0  0  0  0  0  0  0  0  0  0  0
   -1.6055    2.5339   -4.8263 H   0  0  0  0  0  0  0  0  0  0  0  0
   -1.9004    2.5961   -1.9802 H   0  0  0  0  0  0  0  0  0  0  0  0
   -1.1491   -0.2479   -1.1349 H   0  0  0  0  0  0  0  0  0  0  0  0
    0.3540    2.3962   -0.5601 H   0  0  0  0  0  0  0  0  0  0  0  0
    1.9753    1.3616   -1.7006 H   0  0  0  0  0  0  0  0  0  0  0  0
    0.2390    2.1055    1.7307 H   0  0  0  0  0  0  0  0  0  0  0  0
    0.8782   -0.7333    2.7053 H   0  0  0  0  0  0  0  0  0  0  0  0
    0.4464    0.7063    3.7331 H   0  0  0  0  0  0  0  0  0  0  0  0
   -1.3121   -0.5780    1.4920 H   0  0  0  0  0  0  0  0  0  0  0  0
   -1.9359    0.2347    3.3738 H   0  0  0  0  0  0  0  0  0  0  0  0
   -2.0431    2.2321    0.4629 H   0  0  0  0  0  0  0  0  0  0  0  0
   -3.2154   -0.3531    0.0620 H   0  0  0  0  0  0  0  0  0  0  0  0
  1  2  1  0
  2  3  2  0
  2  4  1  0
  4  5  1  0
  5  6  1  0
  6  7  1  0
  6  8  1  0
  8  9  1  0
  9 10  1  0
 10 11  1  0
 11 12  1  0
 12 13  2  0
 12 14  1  0
 12 15  1  0
  9 16  1  0
 16 17  1  0
 16 18  1  0
 18 19  1  0
 18  5  1  0
  1 20  1  0
  1 21  1  0
  1 22  1  0
  4 23  1  0
  5 24  1  6
  6 25  1  1
  7 26  1  0
  9 27  1  1
 10 28  1  0
 10 29  1  0
 16 30  1  6
 17 31  1  0
 18 32  1  1
 19 33  1  0
M  CHG  2  14  -1  15  -1
M  END
>  <UniqueID>  (98) 
97

>  <SMILES>  (98) 
CC(=O)N[C@H]1[C@H](O)O[C@H](COP(=O)([O-])[O-])[C@@H](O)[C@@H]1O

>  <Energy>  (98) 
25.5067975999961

>  <Genealogy>  (98) 
CC(=O)N[C@H]1[C@H](O)O[C@H](COP(=O)([O-])[O-])[C@@H](O)[C@@H]1O (chirality)
CC(=O)N[C@H]1[C@H](O)O[C@H](COP(=O)([O-])[O-])[C@@H](O)[C@@H]1O (3D coordinates assigned)
CC(=O)N[C@H]1[C@H](O)O[C@H](COP(=O)([O-])[O-])[C@@H](O)[C@@H]1O (nonaromatic ring conformer: 25.5067975999961 kcal/mol)

$$$$
25243963
     RDKit          3D

 33 33  0  0  0  0  0  0  0  0999 V2000
    3.6064    1.3143   -3.5222 H   0  0  0  0  0  0  0  0  0  0  0  0
    3.2077    0.4654   -3.9059 O   0  0  0  0  0  0  0  0  0  0  0  0
    2.1078   -0.1458   -3.3107 C   0  0  0  0  0  0  0  0  0  0  0  0
    1.5956    0.3828   -2.2346 N   0  0  0  0  0  0  0  0  0  0  0  0
    0.4354   -0.1022   -1.4782 C   0  0  1  0  0  0  0  0  0  0  0  0
    0.2543   -1.1816   -1.6762 H   0  0  0  0  0  0  0  0  0  0  0  0
    0.7181    0.0396    0.0297 C   0  0  1  0  0  0  0  0  0  0  0  0
    1.5663   -0.6414    0.2690 H   0  0  0  0  0  0  0  0  0  0  0  0
    1.1010    1.3545    0.3510 O   0  0  0  0  0  0  0  0  0  0  0  0
    1.3730    1.3407    1.3055 H   0  0  0  0  0  0  0  0  0  0  0  0
   -0.3974   -0.3763    0.8048 O   0  0  0  0  0  0  0  0  0  0  0  0
   -1.5390    0.4322    0.5583 C   0  0  2  0  0  0  0  0  0  0  0  0
   -1.3202    1.4983    0.7994 H   0  0  0  0  0  0  0  0  0  0  0  0
   -2.6623   -0.0194    1.4991 C   0  0  0  0  0  0  0  0  0  0  0  0
   -3.5579    0.6177    1.3183 H   0  0  0  0  0  0  0  0  0  0  0  0
   -2.9083   -1.0818    1.2711 H   0  0  0  0  0  0  0  0  0  0  0  0
   -2.2283    0.1145    2.8327 O   0  0  0  0  0  0  0  0  0  0  0  0
   -3.4907   -0.3861    3.8645 P   0  0  0  0  0  5  0  0  0  0  0  0
   -4.6814    0.5340    3.7135 O   0  0  0  0  0  0  0  0  0  0  0  0
   -3.9526   -1.9732    3.5020 O   0  0  0  0  0  1  0  0  0  0  0  0
   -2.9470   -0.3249    5.4643 O   0  0  0  0  0  1  0  0  0  0  0  0
   -1.9821    0.3139   -0.9222 C   0  0  1  0  0  0  0  0  0  0  0  0
   -2.2550   -0.7461   -1.1254 H   0  0  0  0  0  0  0  0  0  0  0  0
   -3.1120    1.1100   -1.1852 O   0  0  0  0  0  0  0  0  0  0  0  0
   -2.8742    2.0506   -0.9732 H   0  0  0  0  0  0  0  0  0  0  0  0
   -0.8229    0.7022   -1.8554 C   0  0  2  0  0  0  0  0  0  0  0  0
   -0.6130    1.7920   -1.7287 H   0  0  0  0  0  0  0  0  0  0  0  0
   -1.1950    0.4366   -3.1830 O   0  0  0  0  0  0  0  0  0  0  0  0
   -0.6508    1.0328   -3.7609 H   0  0  0  0  0  0  0  0  0  0  0  0
    1.5756   -1.4073   -3.9252 C   0  0  0  0  0  0  0  0  0  0  0  0
    0.4962   -1.3054   -4.1562 H   0  0  0  0  0  0  0  0  0  0  0  0
    1.7335   -2.2600   -3.2324 H   0  0  0  0  0  0  0  0  0  0  0  0
    2.1132   -1.6228   -4.8724 H   0  0  0  0  0  0  0  0  0  0  0  0
  1  2  1  0
  2  3  1  0
  3  4  2  0
  4  5  1  0
  5  6  1  1
  5  7  1  0
  7  8  1  1
  7  9  1  0
  9 10  1  0
  7 11  1  0
 11 12  1  0
 12 13  1  1
 12 14  1  0
 14 15  1  0
 14 16  1  0
 14 17  1  0
 17 18  1  0
 18 19  2  0
 18 20  1  0
 18 21  1  0
 12 22  1  0
 22 23  1  6
 22 24  1  0
 24 25  1  0
 22 26  1  0
 26 27  1  6
 26 28  1  0
 28 29  1  0
  3 30  1  0
 30 31  1  0
 30 32  1  0
 30 33  1  0
 26  5  1  0
M  CHG  2  20  -1  21  -1
M  END
>  <UniqueID>  (99) 
98

>  <SMILES>  (99) 
C/C(O)=N/[C@H]1[C@@H](O)O[C@H](COP(=O)([O-])[O-])[C@@H](O)[C@@H]1O

>  <Energy>  (99) 
30.196165373708315

>  <Genealogy>  (99) 
CC(O)=N[C@H]1C(O)O[C@H](COP(=O)([O-])[O-])[C@@H](O)[C@@H]1O (tautomer)
CC(O)=N[C@H]1[C@@H](O)O[C@H](COP(=O)([O-])[O-])[C@@H](O)[C@@H]1O (chirality)
C/C(O)=N/[C@H]1[C@@H](O)O[C@H](COP(=O)([O-])[O-])[C@@H](O)[C@@H]1O (cis-trans isomerization)
C/C(O)=N/[C@H]1[C@@H](O)O[C@H](COP(=O)([O-])[O-])[C@@H](O)[C@@H]1O (3D coordinates assigned)
C/C(O)=N/[C@H]1[C@@H](O)O[C@H](COP(=O)([O-])[O-])[C@@H](O)[C@@H]1O (nonaromatic ring conformer: 30.196165373708315 kcal/mol)

$$$$
25243963
     RDKit          3D

 33 33  0  0  0  0  0  0  0  0999 V2000
   -3.5929    2.6956    3.3762 H   0  0  0  0  0  0  0  0  0  0  0  0
   -3.5122    1.8098    3.8617 O   0  0  0  0  0  0  0  0  0  0  0  0
   -2.8160    0.7430    3.3007 C   0  0  0  0  0  0  0  0  0  0  0  0
   -2.2742    0.8890    2.1242 N   0  0  0  0  0  0  0  0  0  0  0  0
   -1.4914   -0.1134    1.3916 C   0  0  1  0  0  0  0  0  0  0  0  0
   -1.8952   -1.1304    1.5924 H   0  0  0  0  0  0  0  0  0  0  0  0
   -1.6154    0.1441   -0.1184 C   0  0  1  0  0  0  0  0  0  0  0  0
   -1.1023   -0.6741   -0.6726 H   0  0  0  0  0  0  0  0  0  0  0  0
   -2.9716    0.1099   -0.4731 O   0  0  0  0  0  0  0  0  0  0  0  0
   -3.0055    0.1815   -1.4628 H   0  0  0  0  0  0  0  0  0  0  0  0
   -1.0819    1.4121   -0.4664 O   0  0  0  0  0  0  0  0  0  0  0  0
    0.3134    1.5067   -0.2074 C   0  0  2  0  0  0  0  0  0  0  0  0
    0.5880    2.5678   -0.3989 H   0  0  0  0  0  0  0  0  0  0  0  0
    1.1638    0.6979   -1.2079 C   0  0  0  0  0  0  0  0  0  0  0  0
    2.2279    0.9990   -1.0741 H   0  0  0  0  0  0  0  0  0  0  0  0
    1.0820   -0.3885   -0.9964 H   0  0  0  0  0  0  0  0  0  0  0  0
    0.7372    0.9898   -2.5181 O   0  0  0  0  0  0  0  0  0  0  0  0
    1.6649    0.0605   -3.6051 P   0  0  0  0  0  5  0  0  0  0  0  0
    1.2489    0.3960   -5.0186 O   0  0  0  0  0  0  0  0  0  0  0  0
    1.4021   -1.5882   -3.3294 O   0  0  0  0  0  1  0  0  0  0  0  0
    3.3099    0.4096   -3.4165 O   0  0  0  0  0  1  0  0  0  0  0  0
    0.6664    1.2280    1.2794 C   0  0  1  0  0  0  0  0  0  0  0  0
    1.7711    1.1055    1.3827 H   0  0  0  0  0  0  0  0  0  0  0  0
    0.2572    2.3167    2.0694 O   0  0  0  0  0  0  0  0  0  0  0  0
    0.9339    3.0335    1.9497 H   0  0  0  0  0  0  0  0  0  0  0  0
   -0.0078   -0.0518    1.8110 C   0  0  2  0  0  0  0  0  0  0  0  0
    0.0671   -0.0362    2.9228 H   0  0  0  0  0  0  0  0  0  0  0  0
    0.6784   -1.1818    1.3356 O   0  0  0  0  0  0  0  0  0  0  0  0
    0.4022   -1.9476    1.9043 H   0  0  0  0  0  0  0  0  0  0  0  0
   -2.7451   -0.5453    4.0679 C   0  0  0  0  0  0  0  0  0  0  0  0
   -3.1989   -0.4124    5.0723 H   0  0  0  0  0  0  0  0  0  0  0  0
   -3.3105   -1.3353    3.5312 H   0  0  0  0  0  0  0  0  0  0  0  0
   -1.6927   -0.8653    4.2044 H   0  0  0  0  0  0  0  0  0  0  0  0
  1  2  1  0
  2  3  1  0
  3  4  2  0
  4  5  1  0
  5  6  1  6
  5  7  1  0
  7  8  1  6
  7  9  1  0
  9 10  1  0
  7 11  1  0
 11 12  1  0
 12 13  1  6
 12 14  1  0
 14 15  1  0
 14 16  1  0
 14 17  1  0
 17 18  1  0
 18 19  2  0
 18 20  1  0
 18 21  1  0
 12 22  1  0
 22 23  1  6
 22 24  1  0
 24 25  1  0
 22 26  1  0
 26 27  1  1
 26 28  1  0
 28 29  1  0
  3 30  1  0
 30 31  1  0
 30 32  1  0
 30 33  1  0
 26  5  1  0
M  CHG  2  20  -1  21  -1
M  END
>  <UniqueID>  (100) 
99

>  <SMILES>  (100) 
C/C(O)=N\[C@H]1[C@@H](O)O[C@H](COP(=O)([O-])[O-])[C@@H](O)[C@@H]1O

>  <Energy>  (100) 
32.300482756211075

>  <Genealogy>  (100) 
CC(O)=N[C@H]1C(O)O[C@H](COP(=O)([O-])[O-])[C@@H](O)[C@@H]1O (tautomer)
CC(O)=N[C@H]1[C@@H](O)O[C@H](COP(=O)([O-])[O-])[C@@H](O)[C@@H]1O (chirality)
C/C(O)=N\[C@H]1[C@@H](O)O[C@H](COP(=O)([O-])[O-])[C@@H](O)[C@@H]1O (cis-trans isomerization)
C/C(O)=N\[C@H]1[C@@H](O)O[C@H](COP(=O)([O-])[O-])[C@@H](O)[C@@H]1O (3D coordinates assigned)
C/C(O)=N\[C@H]1[C@@H](O)O[C@H](COP(=O)([O-])[O-])[C@@H](O)[C@@H]1O (nonaromatic ring conformer: 32.300482756211075 kcal/mol)

$$$$
25243937
     RDKit          3D

 33 33  0  0  0  0  0  0  0  0999 V2000
    2.8398   -2.1879    1.9296 C   0  0  0  0  0  0  0  0  0  0  0  0
    1.7602   -1.1705    1.7544 C   0  0  0  0  0  0  0  0  0  0  0  0
    1.5829   -0.2916    2.6408 O   0  0  0  0  0  0  0  0  0  0  0  0
    0.9151   -1.2177    0.5965 N   0  0  0  0  0  0  0  0  0  0  0  0
   -0.1210   -0.2104    0.3382 C   0  0  1  0  0  0  0  0  0  0  0  0
    0.5232    1.0898   -0.1867 C   0  0  1  0  0  0  0  0  0  0  0  0
    1.3225    0.8119   -1.3229 O   0  0  0  0  0  0  0  0  0  0  0  0
    2.4371    2.0832   -1.5552 P   0  0  0  0  0  5  0  0  0  0  0  0
    3.2026    1.8365   -2.8345 O   0  0  0  0  0  0  0  0  0  0  0  0
    1.6308    3.5661   -1.6736 O   0  0  0  0  0  1  0  0  0  0  0  0
    3.5273    2.1354   -0.2625 O   0  0  0  0  0  1  0  0  0  0  0  0
   -0.4710    2.0635   -0.4736 O   0  0  0  0  0  0  0  0  0  0  0  0
   -1.3513    1.6318   -1.5004 C   0  0  2  0  0  0  0  0  0  0  0  0
   -2.3070    2.7844   -1.8304 C   0  0  0  0  0  0  0  0  0  0  0  0
   -1.5720    3.8998   -2.2527 O   0  0  0  0  0  0  0  0  0  0  0  0
   -2.1392    0.3812   -1.0520 C   0  0  1  0  0  0  0  0  0  0  0  0
   -2.9693   -0.0549   -2.0989 O   0  0  0  0  0  0  0  0  0  0  0  0
   -1.1598   -0.7402   -0.6704 C   0  0  2  0  0  0  0  0  0  0  0  0
   -1.8790   -1.8048   -0.1012 O   0  0  0  0  0  0  0  0  0  0  0  0
    3.4993   -1.9153    2.7808 H   0  0  0  0  0  0  0  0  0  0  0  0
    3.4530   -2.2442    1.0060 H   0  0  0  0  0  0  0  0  0  0  0  0
    2.3840   -3.1803    2.1272 H   0  0  0  0  0  0  0  0  0  0  0  0
    1.0657   -1.9904   -0.0917 H   0  0  0  0  0  0  0  0  0  0  0  0
   -0.6548    0.0153    1.2896 H   0  0  0  0  0  0  0  0  0  0  0  0
    1.1442    1.4801    0.6521 H   0  0  0  0  0  0  0  0  0  0  0  0
   -0.7861    1.4006   -2.4332 H   0  0  0  0  0  0  0  0  0  0  0  0
   -2.9008    3.0491   -0.9263 H   0  0  0  0  0  0  0  0  0  0  0  0
   -3.0049    2.4777   -2.6414 H   0  0  0  0  0  0  0  0  0  0  0  0
   -2.2363    4.6129   -2.4400 H   0  0  0  0  0  0  0  0  0  0  0  0
   -2.7549    0.6506   -0.1599 H   0  0  0  0  0  0  0  0  0  0  0  0
   -3.6866   -0.6048   -1.6884 H   0  0  0  0  0  0  0  0  0  0  0  0
   -0.6407   -1.0811   -1.5989 H   0  0  0  0  0  0  0  0  0  0  0  0
   -1.3344   -2.6248   -0.2282 H   0  0  0  0  0  0  0  0  0  0  0  0
  1  2  1  0
  2  3  2  0
  2  4  1  0
  4  5  1  0
  5  6  1  0
  6  7  1  0
  7  8  1  0
  8  9  2  0
  8 10  1  0
  8 11  1  0
  6 12  1  0
 12 13  1  0
 13 14  1  0
 14 15  1  0
 13 16  1  0
 16 17  1  0
 16 18  1  0
 18 19  1  0
 18  5  1  0
  1 20  1  0
  1 21  1  0
  1 22  1  0
  4 23  1  0
  5 24  1  1
  6 25  1  1
 13 26  1  6
 14 27  1  0
 14 28  1  0
 15 29  1  0
 16 30  1  1
 17 31  1  0
 18 32  1  6
 19 33  1  0
M  CHG  2  10  -1  11  -1
M  END
>  <UniqueID>  (101) 
100

>  <SMILES>  (101) 
CC(=O)N[C@H]1[C@@H](OP(=O)([O-])[O-])O[C@H](CO)[C@@H](O)[C@@H]1O

>  <Energy>  (101) 
26.201436283868297

>  <Genealogy>  (101) 
CC(=O)N[C@H]1[C@@H](OP(=O)([O-])[O-])O[C@H](CO)[C@@H](O)[C@@H]1O (3D coordinates assigned)
CC(=O)N[C@H]1[C@@H](OP(=O)([O-])[O-])O[C@H](CO)[C@@H](O)[C@@H]1O (nonaromatic ring conformer: 26.201436283868297 kcal/mol)

$$$$
25243937
     RDKit          3D

 33 33  0  0  0  0  0  0  0  0999 V2000
    2.2110   -0.0674   -4.1286 H   0  0  0  0  0  0  0  0  0  0  0  0
    1.3822    0.5148   -4.0960 O   0  0  0  0  0  0  0  0  0  0  0  0
    0.6478    0.6560   -2.9220 C   0  0  0  0  0  0  0  0  0  0  0  0
    1.0462    0.0341   -1.8479 N   0  0  0  0  0  0  0  0  0  0  0  0
    0.3948    0.0432   -0.5336 C   0  0  1  0  0  0  0  0  0  0  0  0
   -0.0952    1.0249   -0.3490 H   0  0  0  0  0  0  0  0  0  0  0  0
   -0.6715   -1.0695   -0.4544 C   0  0  1  0  0  0  0  0  0  0  0  0
   -1.4693   -0.7832   -1.1738 H   0  0  0  0  0  0  0  0  0  0  0  0
   -0.1026   -2.3181   -0.8095 O   0  0  0  0  0  0  0  0  0  0  0  0
   -1.3465   -3.4225   -1.1965 P   0  0  0  0  0  5  0  0  0  0  0  0
   -2.2651   -3.6199   -0.0114 O   0  0  0  0  0  0  0  0  0  0  0  0
   -0.6493   -4.9078   -1.6041 O   0  0  0  0  0  1  0  0  0  0  0  0
   -2.2397   -2.8562   -2.5173 O   0  0  0  0  0  1  0  0  0  0  0  0
   -1.2562   -1.1084    0.8407 O   0  0  0  0  0  0  0  0  0  0  0  0
   -0.3063   -1.4364    1.8443 C   0  0  2  0  0  0  0  0  0  0  0  0
    0.1655   -2.4218    1.6238 H   0  0  0  0  0  0  0  0  0  0  0  0
   -1.0643   -1.5841    3.1745 C   0  0  0  0  0  0  0  0  0  0  0  0
   -1.4581   -0.5965    3.4969 H   0  0  0  0  0  0  0  0  0  0  0  0
   -1.9398   -2.2587    3.0333 H   0  0  0  0  0  0  0  0  0  0  0  0
   -0.2326   -2.0928    4.1827 O   0  0  0  0  0  0  0  0  0  0  0  0
   -0.1177   -3.0610    3.9954 H   0  0  0  0  0  0  0  0  0  0  0  0
    0.7864   -0.3448    1.9360 C   0  0  1  0  0  0  0  0  0  0  0  0
    0.3014    0.6151    2.2361 H   0  0  0  0  0  0  0  0  0  0  0  0
    1.7548   -0.7155    2.8837 O   0  0  0  0  0  0  0  0  0  0  0  0
    2.2188    0.1168    3.1622 H   0  0  0  0  0  0  0  0  0  0  0  0
    1.4565   -0.1721    0.5591 C   0  0  2  0  0  0  0  0  0  0  0  0
    2.0218   -1.1028    0.3269 H   0  0  0  0  0  0  0  0  0  0  0  0
    2.3773    0.8914    0.5775 O   0  0  0  0  0  0  0  0  0  0  0  0
    1.8771    1.7213    0.7948 H   0  0  0  0  0  0  0  0  0  0  0  0
   -0.5639    1.5414   -2.9420 C   0  0  0  0  0  0  0  0  0  0  0  0
   -0.4231    2.3956   -2.2476 H   0  0  0  0  0  0  0  0  0  0  0  0
   -0.7169    1.9480   -3.9637 H   0  0  0  0  0  0  0  0  0  0  0  0
   -1.4707    0.9706   -2.6605 H   0  0  0  0  0  0  0  0  0  0  0  0
  1  2  1  0
  2  3  1  0
  3  4  2  0
  4  5  1  0
  5  6  1  1
  5  7  1  0
  7  8  1  6
  7  9  1  0
  9 10  1  0
 10 11  2  0
 10 12  1  0
 10 13  1  0
  7 14  1  0
 14 15  1  0
 15 16  1  6
 15 17  1  0
 17 18  1  0
 17 19  1  0
 17 20  1  0
 20 21  1  0
 15 22  1  0
 22 23  1  1
 22 24  1  0
 24 25  1  0
 22 26  1  0
 26 27  1  6
 26 28  1  0
 28 29  1  0
  3 30  1  0
 30 31  1  0
 30 32  1  0
 30 33  1  0
 26  5  1  0
M  CHG  2  12  -1  13  -1
M  END
>  <UniqueID>  (102) 
101

>  <SMILES>  (102) 
C/C(O)=N/[C@H]1[C@@H](OP(=O)([O-])[O-])O[C@H](CO)[C@@H](O)[C@@H]1O

>  <Energy>  (102) 
30.861591092392487

>  <Genealogy>  (102) 
CC(O)=N[C@H]1[C@@H](OP(=O)([O-])[O-])O[C@H](CO)[C@@H](O)[C@@H]1O (tautomer)
C/C(O)=N/[C@H]1[C@@H](OP(=O)([O-])[O-])O[C@H](CO)[C@@H](O)[C@@H]1O (cis-trans isomerization)
C/C(O)=N/[C@H]1[C@@H](OP(=O)([O-])[O-])O[C@H](CO)[C@@H](O)[C@@H]1O (3D coordinates assigned)
C/C(O)=N/[C@H]1[C@@H](OP(=O)([O-])[O-])O[C@H](CO)[C@@H](O)[C@@H]1O (nonaromatic ring conformer: 30.861591092392487 kcal/mol)

$$$$
25243937
     RDKit          3D

 33 33  0  0  0  0  0  0  0  0999 V2000
   -2.5011    2.3198    3.8887 H   0  0  0  0  0  0  0  0  0  0  0  0
   -1.8393    1.6499    3.5156 O   0  0  0  0  0  0  0  0  0  0  0  0
   -1.5138    1.6197    2.1619 C   0  0  0  0  0  0  0  0  0  0  0  0
   -0.6421    0.7406    1.7566 N   0  0  0  0  0  0  0  0  0  0  0  0
   -0.1688    0.5304    0.3833 C   0  0  1  0  0  0  0  0  0  0  0  0
   -0.3332    1.4386   -0.2377 H   0  0  0  0  0  0  0  0  0  0  0  0
    1.3502    0.2662    0.4070 C   0  0  1  0  0  0  0  0  0  0  0  0
    1.8108    1.2135    0.7721 H   0  0  0  0  0  0  0  0  0  0  0  0
    1.6476   -0.8067    1.2834 O   0  0  0  0  0  0  0  0  0  0  0  0
    3.3070   -0.7683    1.6821 P   0  0  0  0  0  5  0  0  0  0  0  0
    3.6265   -1.9546    2.5620 O   0  0  0  0  0  0  0  0  0  0  0  0
    4.2553   -0.8511    0.2831 O   0  0  0  0  0  1  0  0  0  0  0  0
    3.6675    0.6539    2.5248 O   0  0  0  0  0  1  0  0  0  0  0  0
    1.8392    0.0215   -0.9056 O   0  0  0  0  0  0  0  0  0  0  0  0
    1.2626   -1.1454   -1.4733 C   0  0  2  0  0  0  0  0  0  0  0  0
    1.4811   -2.0334   -0.8364 H   0  0  0  0  0  0  0  0  0  0  0  0
    1.9320   -1.4079   -2.8283 C   0  0  0  0  0  0  0  0  0  0  0  0
    3.0205   -1.5740   -2.6648 H   0  0  0  0  0  0  0  0  0  0  0  0
    1.5083   -2.3271   -3.2912 H   0  0  0  0  0  0  0  0  0  0  0  0
    1.7503   -0.3132   -3.6844 O   0  0  0  0  0  0  0  0  0  0  0  0
    2.2041   -0.5504   -4.5345 H   0  0  0  0  0  0  0  0  0  0  0  0
   -0.2714   -0.9829   -1.6226 C   0  0  1  0  0  0  0  0  0  0  0  0
   -0.4751   -0.1299   -2.3077 H   0  0  0  0  0  0  0  0  0  0  0  0
   -0.8573   -2.1348   -2.1789 O   0  0  0  0  0  0  0  0  0  0  0  0
   -0.6520   -2.8981   -1.5778 H   0  0  0  0  0  0  0  0  0  0  0  0
   -0.9035   -0.6627   -0.2578 C   0  0  2  0  0  0  0  0  0  0  0  0
   -0.7979   -1.5570    0.4032 H   0  0  0  0  0  0  0  0  0  0  0  0
   -2.2624   -0.3607   -0.4419 O   0  0  0  0  0  0  0  0  0  0  0  0
   -2.7200   -0.5494    0.4186 H   0  0  0  0  0  0  0  0  0  0  0  0
   -2.1517    2.6123    1.2279 C   0  0  0  0  0  0  0  0  0  0  0  0
   -2.6353    2.0928    0.3764 H   0  0  0  0  0  0  0  0  0  0  0  0
   -2.9315    3.1991    1.7563 H   0  0  0  0  0  0  0  0  0  0  0  0
   -1.3833    3.3176    0.8483 H   0  0  0  0  0  0  0  0  0  0  0  0
  1  2  1  0
  2  3  1  0
  3  4  2  0
  4  5  1  0
  5  6  1  6
  5  7  1  0
  7  8  1  1
  7  9  1  0
  9 10  1  0
 10 11  2  0
 10 12  1  0
 10 13  1  0
  7 14  1  0
 14 15  1  0
 15 16  1  1
 15 17  1  0
 17 18  1  0
 17 19  1  0
 17 20  1  0
 20 21  1  0
 15 22  1  0
 22 23  1  6
 22 24  1  0
 24 25  1  0
 22 26  1  0
 26 27  1  1
 26 28  1  0
 28 29  1  0
  3 30  1  0
 30 31  1  0
 30 32  1  0
 30 33  1  0
 26  5  1  0
M  CHG  2  12  -1  13  -1
M  END
>  <UniqueID>  (103) 
102

>  <SMILES>  (103) 
C/C(O)=N\[C@H]1[C@@H](OP(=O)([O-])[O-])O[C@H](CO)[C@@H](O)[C@@H]1O

>  <Energy>  (103) 
31.053994496993106

>  <Genealogy>  (103) 
CC(O)=N[C@H]1[C@@H](OP(=O)([O-])[O-])O[C@H](CO)[C@@H](O)[C@@H]1O (tautomer)
C/C(O)=N\[C@H]1[C@@H](OP(=O)([O-])[O-])O[C@H](CO)[C@@H](O)[C@@H]1O (cis-trans isomerization)
C/C(O)=N\[C@H]1[C@@H](OP(=O)([O-])[O-])O[C@H](CO)[C@@H](O)[C@@H]1O (3D coordinates assigned)
C/C(O)=N\[C@H]1[C@@H](OP(=O)([O-])[O-])O[C@H](CO)[C@@H](O)[C@@H]1O (nonaromatic ring conformer: 31.053994496993106 kcal/mol)

$$$$
24847493
     RDKit          3D

 36 36  0  0  0  0  0  0  0  0999 V2000
    3.8027    1.7011    0.7366 O   0  0  0  0  0  0  0  0  0  0  0  0
    3.4131    2.6148   -0.0199 N   0  0  0  0  0  0  0  0  0  0  0  0
    2.3455    2.4279   -0.9169 N   0  0  0  0  0  0  0  0  0  0  0  0
    2.1072    3.4507   -1.9377 C   0  0  0  0  0  0  0  0  0  0  0  0
    0.8798    4.2931   -1.5903 C   0  0  0  0  0  0  0  0  0  0  0  0
    1.1321    5.1944   -0.0721 Cl  0  0  0  0  0  0  0  0  0  0  0  0
    1.4811    1.2792   -0.8288 C   0  0  0  0  0  0  0  0  0  0  0  0
    0.9777    0.7968   -1.8800 O   0  0  0  0  0  0  0  0  0  0  0  0
    1.1506    0.7148    0.4494 N   0  0  0  0  0  0  0  0  0  0  0  0
    0.3109   -0.4781    0.5961 C   0  0  2  0  0  0  0  0  0  0  0  0
   -1.1331   -0.0702    0.9419 C   0  0  1  0  0  0  0  0  0  0  0  0
   -1.6539    0.6981   -0.1085 O   0  0  0  0  0  0  0  0  0  0  0  0
   -1.9401   -1.2242    1.1079 O   0  0  0  0  0  0  0  0  0  0  0  0
   -1.5217   -1.9701    2.2400 C   0  0  1  0  0  0  0  0  0  0  0  0
   -2.5287   -3.1022    2.4737 C   0  0  0  0  0  0  0  0  0  0  0  0
   -3.8025   -2.5619    2.6923 O   0  0  0  0  0  0  0  0  0  0  0  0
   -0.1014   -2.5385    2.0137 C   0  0  2  0  0  0  0  0  0  0  0  0
    0.3230   -3.2257    3.1632 O   0  0  0  0  0  0  0  0  0  0  0  0
    0.8727   -1.3813    1.7118 C   0  0  1  0  0  0  0  0  0  0  0  0
    2.1457   -1.8699    1.3669 O   0  0  0  0  0  0  0  0  0  0  0  0
    2.9952    4.1141   -2.0282 H   0  0  0  0  0  0  0  0  0  0  0  0
    1.9559    2.9688   -2.9277 H   0  0  0  0  0  0  0  0  0  0  0  0
   -0.0156    3.6444   -1.4861 H   0  0  0  0  0  0  0  0  0  0  0  0
    0.6915    5.0220   -2.4064 H   0  0  0  0  0  0  0  0  0  0  0  0
    1.3720    1.2687    1.3075 H   0  0  0  0  0  0  0  0  0  0  0  0
    0.2966   -1.0598   -0.3534 H   0  0  0  0  0  0  0  0  0  0  0  0
   -1.1341    0.5521    1.8703 H   0  0  0  0  0  0  0  0  0  0  0  0
   -2.5371    1.0314    0.1988 H   0  0  0  0  0  0  0  0  0  0  0  0
   -1.5262   -1.3300    3.1543 H   0  0  0  0  0  0  0  0  0  0  0  0
   -2.2264   -3.6996    3.3628 H   0  0  0  0  0  0  0  0  0  0  0  0
   -2.5543   -3.7706    1.5834 H   0  0  0  0  0  0  0  0  0  0  0  0
   -4.4103   -3.3349    2.8268 H   0  0  0  0  0  0  0  0  0  0  0  0
   -0.1349   -3.2336    1.1406 H   0  0  0  0  0  0  0  0  0  0  0  0
    1.0547   -3.8342    2.8804 H   0  0  0  0  0  0  0  0  0  0  0  0
    0.9829   -0.7734    2.6381 H   0  0  0  0  0  0  0  0  0  0  0  0
    2.0464   -2.4180    0.5449 H   0  0  0  0  0  0  0  0  0  0  0  0
  1  2  2  0
  2  3  1  0
  3  4  1  0
  4  5  1  0
  5  6  1  0
  3  7  1  0
  7  8  2  0
  7  9  1  0
  9 10  1  0
 10 11  1  0
 11 12  1  0
 11 13  1  0
 13 14  1  0
 14 15  1  0
 15 16  1  0
 14 17  1  0
 17 18  1  0
 17 19  1  0
 19 20  1  0
 19 10  1  0
  4 21  1  0
  4 22  1  0
  5 23  1  0
  5 24  1  0
  9 25  1  0
 10 26  1  6
 11 27  1  1
 12 28  1  0
 14 29  1  1
 15 30  1  0
 15 31  1  0
 16 32  1  0
 17 33  1  6
 18 34  1  0
 19 35  1  1
 20 36  1  0
M  END
>  <UniqueID>  (104) 
103

>  <SMILES>  (104) 
O=NN(CCCl)C(=O)N[C@@H]1[C@@H](O)O[C@@H](CO)[C@H](O)[C@H]1O

>  <Energy>  (104) 
30.858566699402125

>  <Genealogy>  (104) 
O=NN(CCCl)C(=O)N[C@@H]1[C@@H](O)O[C@@H](CO)[C@H](O)[C@H]1O (chirality)
O=NN(CCCl)C(=O)N[C@@H]1[C@@H](O)O[C@@H](CO)[C@H](O)[C@H]1O (3D coordinates assigned)
O=NN(CCCl)C(=O)N[C@@H]1[C@@H](O)O[C@@H](CO)[C@H](O)[C@H]1O (nonaromatic ring conformer: 30.858566699402125 kcal/mol)

$$$$
24847493
     RDKit          3D

 36 36  0  0  0  0  0  0  0  0999 V2000
    4.6126    1.4671   -1.3715 O   0  0  0  0  0  0  0  0  0  0  0  0
    3.9372    2.4811   -1.0984 N   0  0  0  0  0  0  0  0  0  0  0  0
    2.6637    2.3931   -0.5038 N   0  0  0  0  0  0  0  0  0  0  0  0
    2.0057    3.6503   -0.1330 C   0  0  0  0  0  0  0  0  0  0  0  0
    0.8159    3.9311   -1.0495 C   0  0  0  0  0  0  0  0  0  0  0  0
    0.0674    5.4899   -0.6220 Cl  0  0  0  0  0  0  0  0  0  0  0  0
    1.9912    1.1199   -0.3644 C   0  0  0  0  0  0  0  0  0  0  0  0
    2.3519    0.1433   -1.0763 O   0  0  0  0  0  0  0  0  0  0  0  0
    0.9050    0.9542    0.5637 N   0  0  0  0  0  0  0  0  0  0  0  0
    0.0851   -0.2609    0.6127 C   0  0  2  0  0  0  0  0  0  0  0  0
   -1.3979    0.1121    0.7889 C   0  0  1  0  0  0  0  0  0  0  0  0
   -1.8062    0.8786   -0.3115 O   0  0  0  0  0  0  0  0  0  0  0  0
   -2.1904   -1.0610    0.8490 O   0  0  0  0  0  0  0  0  0  0  0  0
   -1.8917   -1.8080    2.0169 C   0  0  1  0  0  0  0  0  0  0  0  0
   -2.9024   -2.9640    2.1073 C   0  0  0  0  0  0  0  0  0  0  0  0
   -2.7947   -3.6418    3.3304 O   0  0  0  0  0  0  0  0  0  0  0  0
   -0.4355   -2.3332    1.9583 C   0  0  2  0  0  0  0  0  0  0  0  0
   -0.1281   -3.0173    3.1466 O   0  0  0  0  0  0  0  0  0  0  0  0
    0.5390   -1.1525    1.7794 C   0  0  1  0  0  0  0  0  0  0  0  0
    1.8327   -1.6331    1.5168 O   0  0  0  0  0  0  0  0  0  0  0  0
    2.7295    4.4903   -0.2231 H   0  0  0  0  0  0  0  0  0  0  0  0
    1.6841    3.6245    0.9281 H   0  0  0  0  0  0  0  0  0  0  0  0
    0.0508    3.1336   -0.9474 H   0  0  0  0  0  0  0  0  0  0  0  0
    1.1548    3.9731   -2.1064 H   0  0  0  0  0  0  0  0  0  0  0  0
    0.7632    1.6617    1.3173 H   0  0  0  0  0  0  0  0  0  0  0  0
    0.1812   -0.8313   -0.3391 H   0  0  0  0  0  0  0  0  0  0  0  0
   -1.5255    0.7249    1.7150 H   0  0  0  0  0  0  0  0  0  0  0  0
   -2.7264    1.1915   -0.1094 H   0  0  0  0  0  0  0  0  0  0  0  0
   -2.0273   -1.1737    2.9249 H   0  0  0  0  0  0  0  0  0  0  0  0
   -3.9367   -2.5676    1.9868 H   0  0  0  0  0  0  0  0  0  0  0  0
   -2.7273   -3.6847    1.2799 H   0  0  0  0  0  0  0  0  0  0  0  0
   -3.2093   -3.0571    4.0174 H   0  0  0  0  0  0  0  0  0  0  0  0
   -0.3420   -3.0182    1.0810 H   0  0  0  0  0  0  0  0  0  0  0  0
    0.5916   -3.6658    2.9299 H   0  0  0  0  0  0  0  0  0  0  0  0
    0.5404   -0.5380    2.7127 H   0  0  0  0  0  0  0  0  0  0  0  0
    2.2489   -1.8396    2.3941 H   0  0  0  0  0  0  0  0  0  0  0  0
  1  2  2  0
  2  3  1  0
  3  4  1  0
  4  5  1  0
  5  6  1  0
  3  7  1  0
  7  8  2  0
  7  9  1  0
  9 10  1  0
 10 11  1  0
 11 12  1  0
 11 13  1  0
 13 14  1  0
 14 15  1  0
 15 16  1  0
 14 17  1  0
 17 18  1  0
 17 19  1  0
 19 20  1  0
 19 10  1  0
  4 21  1  0
  4 22  1  0
  5 23  1  0
  5 24  1  0
  9 25  1  0
 10 26  1  6
 11 27  1  1
 12 28  1  0
 14 29  1  1
 15 30  1  0
 15 31  1  0
 16 32  1  0
 17 33  1  6
 18 34  1  0
 19 35  1  1
 20 36  1  0
M  END
>  <UniqueID>  (105) 
104

>  <SMILES>  (105) 
O=NN(CCCl)C(=O)N[C@@H]1[C@@H](O)O[C@@H](CO)[C@H](O)[C@H]1O

>  <Energy>  (105) 
30.87675861513648

>  <Genealogy>  (105) 
O=NN(CCCl)C(=O)N[C@@H]1[C@@H](O)O[C@@H](CO)[C@H](O)[C@H]1O (chirality)
O=NN(CCCl)C(=O)N[C@@H]1[C@@H](O)O[C@@H](CO)[C@H](O)[C@H]1O (3D coordinates assigned)
O=NN(CCCl)C(=O)N[C@@H]1[C@@H](O)O[C@@H](CO)[C@H](O)[C@H]1O (nonaromatic ring conformer: 30.87675861513648 kcal/mol)

$$$$
24847493
     RDKit          3D

 36 36  0  0  0  0  0  0  0  0999 V2000
    3.6940    3.9766   -1.0219 O   0  0  0  0  0  0  0  0  0  0  0  0
    3.4136    2.7599   -1.0139 N   0  0  0  0  0  0  0  0  0  0  0  0
    2.1097    2.3037   -0.7446 N   0  0  0  0  0  0  0  0  0  0  0  0
    1.0344    3.2683   -0.4739 C   0  0  0  0  0  0  0  0  0  0  0  0
    1.0118    3.6379    1.0078 C   0  0  0  0  0  0  0  0  0  0  0  0
   -0.3359    4.7536    1.3408 Cl  0  0  0  0  0  0  0  0  0  0  0  0
    1.8898    0.8799   -0.7013 C   0  0  0  0  0  0  0  0  0  0  0  0
    2.7955    0.1087   -1.1217 O   0  0  0  0  0  0  0  0  0  0  0  0
    0.6719    0.3219   -0.1740 N   0  0  0  0  0  0  0  0  0  0  0  0
    0.4360   -1.1264   -0.1082 C   0  0  2  0  0  0  0  0  0  0  0  0
   -1.0901   -1.4320   -0.2650 C   0  0  1  0  0  0  0  0  0  0  0  0
   -1.2802   -2.3505   -1.3089 O   0  0  0  0  0  0  0  0  0  0  0  0
   -1.6599   -1.9866    0.9097 O   0  0  0  0  0  0  0  0  0  0  0  0
   -1.3769   -1.1746    2.0333 C   0  0  1  0  0  0  0  0  0  0  0  0
   -2.2950   -1.5938    3.1899 C   0  0  0  0  0  0  0  0  0  0  0  0
   -3.6407   -1.4363    2.8287 O   0  0  0  0  0  0  0  0  0  0  0  0
    0.1184   -1.3086    2.4347 C   0  0  2  0  0  0  0  0  0  0  0  0
    0.5719   -0.0936    2.9768 O   0  0  0  0  0  0  0  0  0  0  0  0
    1.0032   -1.6829    1.2181 C   0  0  1  0  0  0  0  0  0  0  0  0
    1.1891   -3.0764    1.1330 O   0  0  0  0  0  0  0  0  0  0  0  0
    0.0516    2.8597   -0.7910 H   0  0  0  0  0  0  0  0  0  0  0  0
    1.1912    4.1876   -1.0783 H   0  0  0  0  0  0  0  0  0  0  0  0
    0.8865    2.7302    1.6339 H   0  0  0  0  0  0  0  0  0  0  0  0
    1.9647    4.1342    1.2884 H   0  0  0  0  0  0  0  0  0  0  0  0
    0.0145    0.9401    0.3481 H   0  0  0  0  0  0  0  0  0  0  0  0
    0.9856   -1.6140   -0.9451 H   0  0  0  0  0  0  0  0  0  0  0  0
   -1.6523   -0.5007   -0.5210 H   0  0  0  0  0  0  0  0  0  0  0  0
   -1.1439   -1.8542   -2.1584 H   0  0  0  0  0  0  0  0  0  0  0  0
   -1.6103   -0.1061    1.8092 H   0  0  0  0  0  0  0  0  0  0  0  0
   -2.1207   -2.6634    3.4355 H   0  0  0  0  0  0  0  0  0  0  0  0
   -2.0716   -0.9937    4.1014 H   0  0  0  0  0  0  0  0  0  0  0  0
   -3.8363   -0.4641    2.8773 H   0  0  0  0  0  0  0  0  0  0  0  0
    0.2455   -2.1141    3.1973 H   0  0  0  0  0  0  0  0  0  0  0  0
    0.2081   -0.0344    3.8984 H   0  0  0  0  0  0  0  0  0  0  0  0
    2.0153   -1.2470    1.3725 H   0  0  0  0  0  0  0  0  0  0  0  0
    0.2994   -3.5057    1.0489 H   0  0  0  0  0  0  0  0  0  0  0  0
  1  2  2  0
  2  3  1  0
  3  4  1  0
  4  5  1  0
  5  6  1  0
  3  7  1  0
  7  8  2  0
  7  9  1  0
  9 10  1  0
 10 11  1  0
 11 12  1  0
 11 13  1  0
 13 14  1  0
 14 15  1  0
 15 16  1  0
 14 17  1  0
 17 18  1  0
 17 19  1  0
 19 20  1  0
 19 10  1  0
  4 21  1  0
  4 22  1  0
  5 23  1  0
  5 24  1  0
  9 25  1  0
 10 26  1  6
 11 27  1  6
 12 28  1  0
 14 29  1  6
 15 30  1  0
 15 31  1  0
 16 32  1  0
 17 33  1  1
 18 34  1  0
 19 35  1  1
 20 36  1  0
M  END
>  <UniqueID>  (106) 
105

>  <SMILES>  (106) 
O=NN(CCCl)C(=O)N[C@@H]1[C@@H](O)O[C@@H](CO)[C@H](O)[C@H]1O

>  <Energy>  (106) 
39.33236186872171

>  <Genealogy>  (106) 
O=NN(CCCl)C(=O)N[C@@H]1[C@@H](O)O[C@@H](CO)[C@H](O)[C@H]1O (chirality)
O=NN(CCCl)C(=O)N[C@@H]1[C@@H](O)O[C@@H](CO)[C@H](O)[C@H]1O (3D coordinates assigned)
O=NN(CCCl)C(=O)N[C@@H]1[C@@H](O)O[C@@H](CO)[C@H](O)[C@H]1O (nonaromatic ring conformer: 39.33236186872171 kcal/mol)

$$$$
24779679
     RDKit          3D

 43 43  0  0  0  0  0  0  0  0999 V2000
    2.7389   -4.3631    1.3283 H   0  0  0  0  0  0  0  0  0  0  0  0
    2.2426   -3.7178    0.7256 O   0  0  0  0  0  0  0  0  0  0  0  0
    2.6772   -2.4026    0.5633 C   0  0  0  0  0  0  0  0  0  0  0  0
    2.0451   -1.5885   -0.2279 N   0  0  0  0  0  0  0  0  0  0  0  0
    0.8362   -1.9348   -0.9787 C   0  0  1  0  0  0  0  0  0  0  0  0
    0.9630   -2.9364   -1.4499 H   0  0  0  0  0  0  0  0  0  0  0  0
   -0.3903   -1.9785   -0.0440 C   0  0  1  0  0  0  0  0  0  0  0  0
   -0.2443   -2.8180    0.6693 H   0  0  0  0  0  0  0  0  0  0  0  0
   -0.4948   -0.7671    0.7087 O   0  0  0  0  0  0  0  0  0  0  0  0
   -1.4472   -0.5693    1.7138 C   0  0  0  0  0  0  0  0  0  0  0  0
   -2.2445   -1.4936    2.0298 O   0  0  0  0  0  0  0  0  0  0  0  0
   -1.5227    0.6888    2.3911 N   0  0  0  0  0  0  0  0  0  0  0  0
   -2.2098    0.8016    3.1702 H   0  0  0  0  0  0  0  0  0  0  0  0
   -0.6229    1.7995    2.0830 C   0  0  0  0  0  0  0  0  0  0  0  0
   -0.7041    2.5710    2.8796 H   0  0  0  0  0  0  0  0  0  0  0  0
    0.4279    1.4367    2.0755 H   0  0  0  0  0  0  0  0  0  0  0  0
   -0.9580    2.4371    0.7282 C   0  0  0  0  0  0  0  0  0  0  0  0
   -0.8381    1.6941   -0.0871 H   0  0  0  0  0  0  0  0  0  0  0  0
   -0.2396    3.2632    0.5368 H   0  0  0  0  0  0  0  0  0  0  0  0
   -2.3761    3.0029    0.6930 C   0  0  0  0  0  0  0  0  0  0  0  0
   -2.5141    3.7514    1.5021 H   0  0  0  0  0  0  0  0  0  0  0  0
   -2.5521    3.4997   -0.2844 H   0  0  0  0  0  0  0  0  0  0  0  0
   -3.1226    2.1892    0.8120 H   0  0  0  0  0  0  0  0  0  0  0  0
   -1.5804   -2.2404   -0.7731 O   0  0  0  0  0  0  0  0  0  0  0  0
   -1.8603   -1.2120   -1.7119 C   0  0  2  0  0  0  0  0  0  0  0  0
   -1.9594   -0.2276   -1.1999 H   0  0  0  0  0  0  0  0  0  0  0  0
   -3.2150   -1.5112   -2.3639 C   0  0  0  0  0  0  0  0  0  0  0  0
   -3.4663   -0.7132   -3.0980 H   0  0  0  0  0  0  0  0  0  0  0  0
   -3.1669   -2.4877   -2.8968 H   0  0  0  0  0  0  0  0  0  0  0  0
   -4.2102   -1.5617   -1.3791 O   0  0  0  0  0  0  0  0  0  0  0  0
   -5.0578   -1.7643   -1.8540 H   0  0  0  0  0  0  0  0  0  0  0  0
   -0.7468   -1.1270   -2.7797 C   0  0  1  0  0  0  0  0  0  0  0  0
   -0.7191   -2.0933   -3.3384 H   0  0  0  0  0  0  0  0  0  0  0  0
   -1.0160   -0.0656   -3.6601 O   0  0  0  0  0  0  0  0  0  0  0  0
   -0.5054   -0.2455   -4.4922 H   0  0  0  0  0  0  0  0  0  0  0  0
    0.6110   -0.8938   -2.0893 C   0  0  2  0  0  0  0  0  0  0  0  0
    0.5989    0.1195   -1.6280 H   0  0  0  0  0  0  0  0  0  0  0  0
    1.6624   -0.9239   -3.0234 O   0  0  0  0  0  0  0  0  0  0  0  0
    1.6687   -1.8240   -3.4430 H   0  0  0  0  0  0  0  0  0  0  0  0
    3.9035   -1.9322    1.2764 C   0  0  0  0  0  0  0  0  0  0  0  0
    3.9425   -0.8219    1.3017 H   0  0  0  0  0  0  0  0  0  0  0  0
    3.8989   -2.3105    2.3201 H   0  0  0  0  0  0  0  0  0  0  0  0
    4.8039   -2.3162    0.7532 H   0  0  0  0  0  0  0  0  0  0  0  0
  1  2  1  0
  2  3  1  0
  3  4  2  0
  4  5  1  0
  5  6  1  6
  5  7  1  0
  7  8  1  1
  7  9  1  0
  9 10  1  0
 10 11  2  0
 10 12  1  0
 12 13  1  0
 12 14  1  0
 14 15  1  0
 14 16  1  0
 14 17  1  0
 17 18  1  0
 17 19  1  0
 17 20  1  0
 20 21  1  0
 20 22  1  0
 20 23  1  0
  7 24  1  0
 24 25  1  0
 25 26  1  1
 25 27  1  0
 27 28  1  0
 27 29  1  0
 27 30  1  0
 30 31  1  0
 25 32  1  0
 32 33  1  6
 32 34  1  0
 34 35  1  0
 32 36  1  0
 36 37  1  1
 36 38  1  0
 38 39  1  0
  3 40  1  0
 40 41  1  0
 40 42  1  0
 40 43  1  0
 36  5  1  0
M  END
>  <UniqueID>  (107) 
106

>  <SMILES>  (107) 
CCCNC(=O)O[C@H]1O[C@H](CO)[C@@H](O)[C@H](O)[C@H]1/N=C(/C)O

>  <Energy>  (107) 
26.218226464442804

>  <Genealogy>  (107) 
CCCNC(=O)O[C@H]1O[C@H](CO)[C@@H](O)[C@H](O)[C@H]1N=C(C)O (tautomer)
CCCNC(=O)O[C@H]1O[C@H](CO)[C@@H](O)[C@H](O)[C@H]1/N=C(/C)O (cis-trans isomerization)
CCCNC(=O)O[C@H]1O[C@H](CO)[C@@H](O)[C@H](O)[C@H]1/N=C(/C)O (3D coordinates assigned)
CCCNC(=O)O[C@H]1O[C@H](CO)[C@@H](O)[C@H](O)[C@H]1/N=C(/C)O (nonaromatic ring conformer: 26.218226464442804 kcal/mol)

$$$$
24779679
     RDKit          3D

 43 43  0  0  0  0  0  0  0  0999 V2000
    2.5855    2.3988    3.9001 H   0  0  0  0  0  0  0  0  0  0  0  0
    1.9073    2.3702    3.1483 O   0  0  0  0  0  0  0  0  0  0  0  0
    2.2195    1.8340    1.9015 C   0  0  0  0  0  0  0  0  0  0  0  0
    1.3010    1.8433    0.9783 N   0  0  0  0  0  0  0  0  0  0  0  0
    1.4186    1.3144   -0.3847 C   0  0  1  0  0  0  0  0  0  0  0  0
    2.4596    1.4309   -0.7597 H   0  0  0  0  0  0  0  0  0  0  0  0
    1.0432   -0.1812   -0.4147 C   0  0  1  0  0  0  0  0  0  0  0  0
    1.8031   -0.7351    0.1748 H   0  0  0  0  0  0  0  0  0  0  0  0
   -0.2336   -0.3986    0.1935 O   0  0  0  0  0  0  0  0  0  0  0  0
   -0.7596   -1.6729    0.4259 C   0  0  0  0  0  0  0  0  0  0  0  0
   -0.1047   -2.7032    0.1063 O   0  0  0  0  0  0  0  0  0  0  0  0
   -2.0553   -1.7954    1.0226 N   0  0  0  0  0  0  0  0  0  0  0  0
   -2.6006   -0.9243    1.2104 H   0  0  0  0  0  0  0  0  0  0  0  0
   -2.6773   -3.0876    1.3034 C   0  0  0  0  0  0  0  0  0  0  0  0
   -2.5793   -3.7524    0.4174 H   0  0  0  0  0  0  0  0  0  0  0  0
   -3.7613   -2.9318    1.4966 H   0  0  0  0  0  0  0  0  0  0  0  0
   -2.0357   -3.7346    2.5345 C   0  0  0  0  0  0  0  0  0  0  0  0
   -0.9536   -3.9075    2.3515 H   0  0  0  0  0  0  0  0  0  0  0  0
   -2.1387   -3.0528    3.4065 H   0  0  0  0  0  0  0  0  0  0  0  0
   -2.6983   -5.0686    2.8648 C   0  0  0  0  0  0  0  0  0  0  0  0
   -3.7774   -4.9203    3.0833 H   0  0  0  0  0  0  0  0  0  0  0  0
   -2.2130   -5.5134    3.7591 H   0  0  0  0  0  0  0  0  0  0  0  0
   -2.5896   -5.7742    2.0136 H   0  0  0  0  0  0  0  0  0  0  0  0
    1.0781   -0.6901   -1.7398 O   0  0  0  0  0  0  0  0  0  0  0  0
    0.1251   -0.0492   -2.5755 C   0  0  2  0  0  0  0  0  0  0  0  0
   -0.9043   -0.1708   -2.1654 H   0  0  0  0  0  0  0  0  0  0  0  0
    0.1436   -0.7381   -3.9481 C   0  0  0  0  0  0  0  0  0  0  0  0
   -0.5827   -0.2439   -4.6276 H   0  0  0  0  0  0  0  0  0  0  0  0
    1.1535   -0.6533   -4.4123 H   0  0  0  0  0  0  0  0  0  0  0  0
   -0.2277   -2.0849   -3.8232 O   0  0  0  0  0  0  0  0  0  0  0  0
    0.5806   -2.5793   -3.5270 H   0  0  0  0  0  0  0  0  0  0  0  0
    0.4464    1.4557   -2.7156 C   0  0  1  0  0  0  0  0  0  0  0  0
    1.4462    1.5592   -3.2016 H   0  0  0  0  0  0  0  0  0  0  0  0
   -0.5397    2.0799   -3.4981 O   0  0  0  0  0  0  0  0  0  0  0  0
   -0.1425    2.9216   -3.8435 H   0  0  0  0  0  0  0  0  0  0  0  0
    0.4837    2.1038   -1.3178 C   0  0  2  0  0  0  0  0  0  0  0  0
   -0.5454    2.0791   -0.8936 H   0  0  0  0  0  0  0  0  0  0  0  0
    0.8792    3.4514   -1.3981 O   0  0  0  0  0  0  0  0  0  0  0  0
    1.7925    3.4763   -1.7872 H   0  0  0  0  0  0  0  0  0  0  0  0
    3.6023    1.2927    1.6560 C   0  0  0  0  0  0  0  0  0  0  0  0
    3.5555    0.2374    1.3217 H   0  0  0  0  0  0  0  0  0  0  0  0
    4.2050    1.3282    2.5870 H   0  0  0  0  0  0  0  0  0  0  0  0
    4.1171    1.9070    0.8882 H   0  0  0  0  0  0  0  0  0  0  0  0
  1  2  1  0
  2  3  1  0
  3  4  2  0
  4  5  1  0
  5  6  1  6
  5  7  1  0
  7  8  1  1
  7  9  1  0
  9 10  1  0
 10 11  2  0
 10 12  1  0
 12 13  1  0
 12 14  1  0
 14 15  1  0
 14 16  1  0
 14 17  1  0
 17 18  1  0
 17 19  1  0
 17 20  1  0
 20 21  1  0
 20 22  1  0
 20 23  1  0
  7 24  1  0
 24 25  1  0
 25 26  1  1
 25 27  1  0
 27 28  1  0
 27 29  1  0
 27 30  1  0
 30 31  1  0
 25 32  1  0
 32 33  1  6
 32 34  1  0
 34 35  1  0
 32 36  1  0
 36 37  1  1
 36 38  1  0
 38 39  1  0
  3 40  1  0
 40 41  1  0
 40 42  1  0
 40 43  1  0
 36  5  1  0
M  END
>  <UniqueID>  (108) 
107

>  <SMILES>  (108) 
CCCNC(=O)O[C@H]1O[C@H](CO)[C@@H](O)[C@H](O)[C@H]1/N=C(\C)O

>  <Energy>  (108) 
30.721269495054845

>  <Genealogy>  (108) 
CCCNC(=O)O[C@H]1O[C@H](CO)[C@@H](O)[C@H](O)[C@H]1N=C(C)O (tautomer)
CCCNC(=O)O[C@H]1O[C@H](CO)[C@@H](O)[C@H](O)[C@H]1/N=C(\C)O (cis-trans isomerization)
CCCNC(=O)O[C@H]1O[C@H](CO)[C@@H](O)[C@H](O)[C@H]1/N=C(\C)O (3D coordinates assigned)
CCCNC(=O)O[C@H]1O[C@H](CO)[C@@H](O)[C@H](O)[C@H]1/N=C(\C)O (nonaromatic ring conformer: 30.721269495054845 kcal/mol)

$$$$
24779679
     RDKit          3D

 43 43  0  0  0  0  0  0  0  0999 V2000
    2.7513   -0.4687    1.7087 H   0  0  0  0  0  0  0  0  0  0  0  0
    2.0562   -0.8865    1.1020 O   0  0  0  0  0  0  0  0  0  0  0  0
    2.3284   -1.1413   -0.2413 C   0  0  0  0  0  0  0  0  0  0  0  0
    1.4359   -1.6929   -1.0083 N   0  0  0  0  0  0  0  0  0  0  0  0
    0.0761   -2.0550   -0.5950 C   0  0  1  0  0  0  0  0  0  0  0  0
    0.0685   -2.3218    0.4854 H   0  0  0  0  0  0  0  0  0  0  0  0
   -0.8958   -0.8839   -0.8523 C   0  0  1  0  0  0  0  0  0  0  0  0
   -1.9142   -1.1497   -0.4930 H   0  0  0  0  0  0  0  0  0  0  0  0
   -0.4733    0.2750   -0.1339 O   0  0  0  0  0  0  0  0  0  0  0  0
   -0.6741    0.4513    1.2401 C   0  0  0  0  0  0  0  0  0  0  0  0
   -1.2916   -0.4181    1.9149 O   0  0  0  0  0  0  0  0  0  0  0  0
   -0.1578    1.6261    1.8749 N   0  0  0  0  0  0  0  0  0  0  0  0
    0.4055    2.2938    1.3018 H   0  0  0  0  0  0  0  0  0  0  0  0
   -0.3025    1.8791    3.3069 C   0  0  0  0  0  0  0  0  0  0  0  0
    0.4072    2.6818    3.6049 H   0  0  0  0  0  0  0  0  0  0  0  0
   -0.0417    0.9617    3.8788 H   0  0  0  0  0  0  0  0  0  0  0  0
   -1.7312    2.3264    3.6302 C   0  0  0  0  0  0  0  0  0  0  0  0
   -2.4513    1.5289    3.3482 H   0  0  0  0  0  0  0  0  0  0  0  0
   -1.9738    3.2400    3.0451 H   0  0  0  0  0  0  0  0  0  0  0  0
   -1.8907    2.6304    5.1167 C   0  0  0  0  0  0  0  0  0  0  0  0
   -2.9342    2.9508    5.3207 H   0  0  0  0  0  0  0  0  0  0  0  0
   -1.6727    1.7241    5.7210 H   0  0  0  0  0  0  0  0  0  0  0  0
   -1.2026    3.4482    5.4198 H   0  0  0  0  0  0  0  0  0  0  0  0
   -0.9319   -0.5585   -2.2314 O   0  0  0  0  0  0  0  0  0  0  0  0
   -1.4499   -1.6167   -3.0287 C   0  0  2  0  0  0  0  0  0  0  0  0
   -1.3155   -1.2901   -4.0837 H   0  0  0  0  0  0  0  0  0  0  0  0
   -2.9763   -1.7865   -2.8564 C   0  0  0  0  0  0  0  0  0  0  0  0
   -3.2383   -2.2966   -1.9043 H   0  0  0  0  0  0  0  0  0  0  0  0
   -3.4428   -0.7790   -2.8234 H   0  0  0  0  0  0  0  0  0  0  0  0
   -3.5209   -2.4774   -3.9499 O   0  0  0  0  0  0  0  0  0  0  0  0
   -3.5204   -3.4414   -3.7139 H   0  0  0  0  0  0  0  0  0  0  0  0
   -0.6384   -2.9339   -2.8695 C   0  0  1  0  0  0  0  0  0  0  0  0
   -1.1947   -3.7801   -3.3360 H   0  0  0  0  0  0  0  0  0  0  0  0
    0.6006   -2.8013   -3.5207 O   0  0  0  0  0  0  0  0  0  0  0  0
    0.4313   -2.9102   -4.4932 H   0  0  0  0  0  0  0  0  0  0  0  0
   -0.3873   -3.2888   -1.3908 C   0  0  2  0  0  0  0  0  0  0  0  0
    0.4114   -4.0677   -1.3511 H   0  0  0  0  0  0  0  0  0  0  0  0
   -1.5594   -3.8205   -0.8266 O   0  0  0  0  0  0  0  0  0  0  0  0
   -1.2924   -4.2923    0.0052 H   0  0  0  0  0  0  0  0  0  0  0  0
    3.6768   -0.8186   -0.7990 C   0  0  0  0  0  0  0  0  0  0  0  0
    4.0308    0.1506   -0.3899 H   0  0  0  0  0  0  0  0  0  0  0  0
    3.6350   -0.7414   -1.9066 H   0  0  0  0  0  0  0  0  0  0  0  0
    4.3932   -1.6175   -0.5164 H   0  0  0  0  0  0  0  0  0  0  0  0
  1  2  1  0
  2  3  1  0
  3  4  2  0
  4  5  1  0
  5  6  1  1
  5  7  1  0
  7  8  1  1
  7  9  1  0
  9 10  1  0
 10 11  2  0
 10 12  1  0
 12 13  1  0
 12 14  1  0
 14 15  1  0
 14 16  1  0
 14 17  1  0
 17 18  1  0
 17 19  1  0
 17 20  1  0
 20 21  1  0
 20 22  1  0
 20 23  1  0
  7 24  1  0
 24 25  1  0
 25 26  1  6
 25 27  1  0
 27 28  1  0
 27 29  1  0
 27 30  1  0
 30 31  1  0
 25 32  1  0
 32 33  1  6
 32 34  1  0
 34 35  1  0
 32 36  1  0
 36 37  1  6
 36 38  1  0
 38 39  1  0
  3 40  1  0
 40 41  1  0
 40 42  1  0
 40 43  1  0
 36  5  1  0
M  END
>  <UniqueID>  (109) 
108

>  <SMILES>  (109) 
CCCNC(=O)O[C@H]1O[C@H](CO)[C@@H](O)[C@H](O)[C@H]1/N=C(/C)O

>  <Energy>  (109) 
34.14668361648808

>  <Genealogy>  (109) 
CCCNC(=O)O[C@H]1O[C@H](CO)[C@@H](O)[C@H](O)[C@H]1N=C(C)O (tautomer)
CCCNC(=O)O[C@H]1O[C@H](CO)[C@@H](O)[C@H](O)[C@H]1/N=C(/C)O (cis-trans isomerization)
CCCNC(=O)O[C@H]1O[C@H](CO)[C@@H](O)[C@H](O)[C@H]1/N=C(/C)O (3D coordinates assigned)
CCCNC(=O)O[C@H]1O[C@H](CO)[C@@H](O)[C@H](O)[C@H]1/N=C(/C)O (nonaromatic ring conformer: 34.14668361648808 kcal/mol)

$$$$
22833605
     RDKit          3D

 33 33  0  0  0  0  0  0  0  0999 V2000
    0.7614    0.2815    2.8166 C   0  0  0  0  0  0  0  0  0  0  0  0
    0.1684   -0.8472    1.9769 C   0  0  1  0  0  0  0  0  0  0  0  0
    0.0755   -0.4106    0.6315 O   0  0  0  0  0  0  0  0  0  0  0  0
   -0.9270   -1.1129   -0.0960 C   0  0  2  0  0  0  0  0  0  0  0  0
   -0.3329   -1.5919   -1.4353 C   0  0  2  0  0  0  0  0  0  0  0  0
    0.8466   -2.3177   -1.2020 O   0  0  0  0  0  0  0  0  0  0  0  0
   -0.0417   -0.3765   -2.3505 C   0  0  1  0  0  0  0  0  0  0  0  0
    0.4946   -0.8204   -3.7187 C   0  0  0  0  0  0  0  0  0  0  0  0
    1.7858   -1.3494   -3.5914 O   0  0  0  0  0  0  0  0  0  0  0  0
   -1.2317    0.3624   -2.5685 O   0  0  0  0  0  0  0  0  0  0  0  0
   -1.7018    0.9332   -1.3588 C   0  0  1  0  0  0  0  0  0  0  0  0
   -2.8110    1.7403   -1.6488 O   0  0  0  0  0  0  0  0  0  0  0  0
   -2.1257   -0.1789   -0.3736 C   0  0  2  0  0  0  0  0  0  0  0  0
   -2.6227    0.3995    0.8776 N   0  0  0  0  0  0  0  0  0  0  0  0
    1.0436   -2.0652    2.0693 C   0  0  0  0  0  0  0  0  0  0  0  0
    2.1993   -2.0595    1.5680 O   0  0  0  0  0  0  0  0  0  0  0  0
    0.5838   -3.2026    2.7206 O   0  0  0  0  0  1  0  0  0  0  0  0
    1.7643    0.5693    2.4339 H   0  0  0  0  0  0  0  0  0  0  0  0
    0.8533   -0.0338    3.8784 H   0  0  0  0  0  0  0  0  0  0  0  0
    0.0966    1.1703    2.7699 H   0  0  0  0  0  0  0  0  0  0  0  0
   -0.8312   -1.0752    2.4143 H   0  0  0  0  0  0  0  0  0  0  0  0
   -1.3032   -2.0224    0.4334 H   0  0  0  0  0  0  0  0  0  0  0  0
   -1.0798   -2.2456   -1.9464 H   0  0  0  0  0  0  0  0  0  0  0  0
    0.5719   -3.2053   -0.8521 H   0  0  0  0  0  0  0  0  0  0  0  0
    0.7365    0.2741   -1.8854 H   0  0  0  0  0  0  0  0  0  0  0  0
   -0.1869   -1.5779   -4.1678 H   0  0  0  0  0  0  0  0  0  0  0  0
    0.5299    0.0627   -4.3957 H   0  0  0  0  0  0  0  0  0  0  0  0
    2.0610   -1.6270   -4.5036 H   0  0  0  0  0  0  0  0  0  0  0  0
   -0.9141    1.5710   -0.8884 H   0  0  0  0  0  0  0  0  0  0  0  0
   -2.4719    2.4994   -2.1913 H   0  0  0  0  0  0  0  0  0  0  0  0
   -2.9402   -0.7769   -0.8453 H   0  0  0  0  0  0  0  0  0  0  0  0
   -2.9596   -0.3822    1.4855 H   0  0  0  0  0  0  0  0  0  0  0  0
   -3.4721    0.9724    0.6686 H   0  0  0  0  0  0  0  0  0  0  0  0
  1  2  1  0
  2  3  1  0
  3  4  1  0
  4  5  1  0
  5  6  1  0
  5  7  1  0
  7  8  1  0
  8  9  1  0
  7 10  1  0
 10 11  1  0
 11 12  1  0
 11 13  1  0
 13 14  1  0
  2 15  1  0
 15 16  2  0
 15 17  1  0
 13  4  1  0
  1 18  1  0
  1 19  1  0
  1 20  1  0
  2 21  1  1
  4 22  1  1
  5 23  1  6
  6 24  1  0
  7 25  1  1
  8 26  1  0
  8 27  1  0
  9 28  1  0
 11 29  1  1
 12 30  1  0
 13 31  1  6
 14 32  1  0
 14 33  1  0
M  CHG  1  17  -1
M  END
>  <UniqueID>  (110) 
109

>  <SMILES>  (110) 
C[C@@H](O[C@@H]1[C@H](O)[C@@H](CO)O[C@@H](O)[C@@H]1N)C(=O)[O-]

>  <Energy>  (110) 
29.755819500921817

>  <Genealogy>  (110) 
C[C@@H](O[C@@H]1[C@H](O)[C@@H](CO)O[C@@H](O)[C@@H]1N)C(=O)[O-] (protonated)
C[C@@H](O[C@@H]1[C@H](O)[C@@H](CO)O[C@@H](O)[C@@H]1N)C(=O)[O-] (3D coordinates assigned)
C[C@@H](O[C@@H]1[C@H](O)[C@@H](CO)O[C@@H](O)[C@@H]1N)C(=O)[O-] (nonaromatic ring conformer: 29.755819500921817 kcal/mol)

$$$$
22833605
     RDKit          3D

 34 34  0  0  0  0  0  0  0  0999 V2000
   -2.5110    1.0770   -2.3293 C   0  0  0  0  0  0  0  0  0  0  0  0
   -2.5681    0.2062   -1.0721 C   0  0  1  0  0  0  0  0  0  0  0  0
   -1.2598   -0.0166   -0.5714 O   0  0  0  0  0  0  0  0  0  0  0  0
   -0.6631   -1.1902   -1.1108 C   0  0  2  0  0  0  0  0  0  0  0  0
   -0.7647   -2.3473   -0.0926 C   0  0  2  0  0  0  0  0  0  0  0  0
   -2.0980   -2.5257    0.3120 O   0  0  0  0  0  0  0  0  0  0  0  0
    0.1247   -2.0473    1.1371 C   0  0  1  0  0  0  0  0  0  0  0  0
    0.0696   -3.2060    2.1441 C   0  0  0  0  0  0  0  0  0  0  0  0
    0.8333   -2.9020    3.2805 O   0  0  0  0  0  0  0  0  0  0  0  0
    1.4719   -1.8675    0.7327 O   0  0  0  0  0  0  0  0  0  0  0  0
    1.6036   -0.7173   -0.0855 C   0  0  1  0  0  0  0  0  0  0  0  0
    2.9626   -0.5258   -0.3718 O   0  0  0  0  0  0  0  0  0  0  0  0
    0.8283   -0.9130   -1.4096 C   0  0  2  0  0  0  0  0  0  0  0  0
    0.9838    0.2501   -2.2945 N   0  0  0  0  0  4  0  0  0  0  0  0
   -3.3714    0.9039   -0.0160 C   0  0  0  0  0  0  0  0  0  0  0  0
   -2.8753    1.8635    0.6321 O   0  0  0  0  0  0  0  0  0  0  0  0
   -4.6841    0.5189    0.2268 O   0  0  0  0  0  1  0  0  0  0  0  0
   -1.9988    0.5319   -3.1484 H   0  0  0  0  0  0  0  0  0  0  0  0
   -1.9573    2.0187   -2.1254 H   0  0  0  0  0  0  0  0  0  0  0  0
   -3.5381    1.3263   -2.6728 H   0  0  0  0  0  0  0  0  0  0  0  0
   -3.1017   -0.7415   -1.3174 H   0  0  0  0  0  0  0  0  0  0  0  0
   -1.1323   -1.5169   -2.0702 H   0  0  0  0  0  0  0  0  0  0  0  0
   -0.3904   -3.2823   -0.5747 H   0  0  0  0  0  0  0  0  0  0  0  0
   -2.5552   -3.0173   -0.4195 H   0  0  0  0  0  0  0  0  0  0  0  0
   -0.2519   -1.1372    1.6612 H   0  0  0  0  0  0  0  0  0  0  0  0
    0.4303   -4.1493    1.6721 H   0  0  0  0  0  0  0  0  0  0  0  0
   -0.9791   -3.3713    2.4703 H   0  0  0  0  0  0  0  0  0  0  0  0
    1.7775   -3.1112    3.0562 H   0  0  0  0  0  0  0  0  0  0  0  0
    1.2227    0.1896    0.4444 H   0  0  0  0  0  0  0  0  0  0  0  0
    3.4015   -0.2979    0.4890 H   0  0  0  0  0  0  0  0  0  0  0  0
    1.2494   -1.8063   -1.9270 H   0  0  0  0  0  0  0  0  0  0  0  0
    1.9866    0.3563   -2.5706 H   0  0  0  0  0  0  0  0  0  0  0  0
    0.4258    0.1086   -3.1673 H   0  0  0  0  0  0  0  0  0  0  0  0
    0.6680    1.1266   -1.8190 H   0  0  0  0  0  0  0  0  0  0  0  0
  1  2  1  0
  2  3  1  0
  3  4  1  0
  4  5  1  0
  5  6  1  0
  5  7  1  0
  7  8  1  0
  8  9  1  0
  7 10  1  0
 10 11  1  0
 11 12  1  0
 11 13  1  0
 13 14  1  0
  2 15  1  0
 15 16  2  0
 15 17  1  0
 13  4  1  0
  1 18  1  0
  1 19  1  0
  1 20  1  0
  2 21  1  6
  4 22  1  6
  5 23  1  6
  6 24  1  0
  7 25  1  1
  8 26  1  0
  8 27  1  0
  9 28  1  0
 11 29  1  1
 12 30  1  0
 13 31  1  6
 14 32  1  0
 14 33  1  0
 14 34  1  0
M  CHG  2  14   1  17  -1
M  END
>  <UniqueID>  (111) 
110

>  <SMILES>  (111) 
C[C@@H](O[C@@H]1[C@H](O)[C@@H](CO)O[C@@H](O)[C@@H]1[NH3+])C(=O)[O-]

>  <Energy>  (111) 
31.067945326268635

>  <Genealogy>  (111) 
C[C@@H](O[C@@H]1[C@H](O)[C@@H](CO)O[C@@H](O)[C@@H]1[NH3+])C(=O)[O-] (protonated)
C[C@@H](O[C@@H]1[C@H](O)[C@@H](CO)O[C@@H](O)[C@@H]1[NH3+])C(=O)[O-] (3D coordinates assigned)
C[C@@H](O[C@@H]1[C@H](O)[C@@H](CO)O[C@@H](O)[C@@H]1[NH3+])C(=O)[O-] (nonaromatic ring conformer: 31.067945326268635 kcal/mol)

$$$$
22833605
     RDKit          3D

 34 34  0  0  0  0  0  0  0  0999 V2000
   -2.5288    1.0536   -2.3407 C   0  0  0  0  0  0  0  0  0  0  0  0
   -2.5857    0.1795   -1.0861 C   0  0  1  0  0  0  0  0  0  0  0  0
   -1.2782   -0.0311   -0.5790 O   0  0  0  0  0  0  0  0  0  0  0  0
   -0.6673   -1.1981   -1.1164 C   0  0  2  0  0  0  0  0  0  0  0  0
   -0.7633   -2.3577   -0.1004 C   0  0  2  0  0  0  0  0  0  0  0  0
   -2.0980   -2.5547    0.2907 O   0  0  0  0  0  0  0  0  0  0  0  0
    0.1090   -2.0475    1.1393 C   0  0  1  0  0  0  0  0  0  0  0  0
    0.0554   -3.2070    2.1455 C   0  0  0  0  0  0  0  0  0  0  0  0
    0.8695   -2.9318    3.2536 O   0  0  0  0  0  0  0  0  0  0  0  0
    1.4599   -1.8525    0.7543 O   0  0  0  0  0  0  0  0  0  0  0  0
    1.5883   -0.7067   -0.0720 C   0  0  1  0  0  0  0  0  0  0  0  0
    2.9495   -0.4725   -0.3222 O   0  0  0  0  0  0  0  0  0  0  0  0
    0.8230   -0.9071   -1.4053 C   0  0  2  0  0  0  0  0  0  0  0  0
    0.9749    0.2593   -2.2860 N   0  0  0  0  0  4  0  0  0  0  0  0
   -3.3942    0.8747   -0.0325 C   0  0  0  0  0  0  0  0  0  0  0  0
   -4.5888    0.5353    0.1772 O   0  0  0  0  0  0  0  0  0  0  0  0
   -2.8428    1.9251    0.6916 O   0  0  0  0  0  1  0  0  0  0  0  0
   -2.0055    0.5154   -3.1576 H   0  0  0  0  0  0  0  0  0  0  0  0
   -1.9859    2.0003   -2.1312 H   0  0  0  0  0  0  0  0  0  0  0  0
   -3.5559    1.2933   -2.6908 H   0  0  0  0  0  0  0  0  0  0  0  0
   -3.1083   -0.7736   -1.3367 H   0  0  0  0  0  0  0  0  0  0  0  0
   -1.1274   -1.5278   -2.0791 H   0  0  0  0  0  0  0  0  0  0  0  0
   -0.3717   -3.2870   -0.5798 H   0  0  0  0  0  0  0  0  0  0  0  0
   -2.5416   -3.0501   -0.4466 H   0  0  0  0  0  0  0  0  0  0  0  0
   -0.2847   -1.1412    1.6573 H   0  0  0  0  0  0  0  0  0  0  0  0
   -0.9912   -3.3883    2.4808 H   0  0  0  0  0  0  0  0  0  0  0  0
    0.4229   -4.1374    1.6619 H   0  0  0  0  0  0  0  0  0  0  0  0
    0.3822   -2.2661    3.8061 H   0  0  0  0  0  0  0  0  0  0  0  0
    1.1955    0.1926    0.4559 H   0  0  0  0  0  0  0  0  0  0  0  0
    3.3288   -1.3139   -0.6889 H   0  0  0  0  0  0  0  0  0  0  0  0
    1.2525   -1.7960   -1.9230 H   0  0  0  0  0  0  0  0  0  0  0  0
    1.9791    0.3747   -2.5532 H   0  0  0  0  0  0  0  0  0  0  0  0
    0.4252    0.1149   -3.1636 H   0  0  0  0  0  0  0  0  0  0  0  0
    0.6476    1.1317   -1.8108 H   0  0  0  0  0  0  0  0  0  0  0  0
  1  2  1  0
  2  3  1  0
  3  4  1  0
  4  5  1  0
  5  6  1  0
  5  7  1  0
  7  8  1  0
  8  9  1  0
  7 10  1  0
 10 11  1  0
 11 12  1  0
 11 13  1  0
 13 14  1  0
  2 15  1  0
 15 16  2  0
 15 17  1  0
 13  4  1  0
  1 18  1  0
  1 19  1  0
  1 20  1  0
  2 21  1  6
  4 22  1  6
  5 23  1  6
  6 24  1  0
  7 25  1  1
  8 26  1  0
  8 27  1  0
  9 28  1  0
 11 29  1  1
 12 30  1  0
 13 31  1  6
 14 32  1  0
 14 33  1  0
 14 34  1  0
M  CHG  2  14   1  17  -1
M  END
>  <UniqueID>  (112) 
111

>  <SMILES>  (112) 
C[C@@H](O[C@@H]1[C@H](O)[C@@H](CO)O[C@@H](O)[C@@H]1[NH3+])C(=O)[O-]

>  <Energy>  (112) 
31.401402642261775

>  <Genealogy>  (112) 
C[C@@H](O[C@@H]1[C@H](O)[C@@H](CO)O[C@@H](O)[C@@H]1[NH3+])C(=O)[O-] (protonated)
C[C@@H](O[C@@H]1[C@H](O)[C@@H](CO)O[C@@H](O)[C@@H]1[NH3+])C(=O)[O-] (3D coordinates assigned)
C[C@@H](O[C@@H]1[C@H](O)[C@@H](CO)O[C@@H](O)[C@@H]1[NH3+])C(=O)[O-] (nonaromatic ring conformer: 31.401402642261775 kcal/mol)

$$$$
16738680
     RDKit          3D

 38 38  0  0  0  0  0  0  0  0999 V2000
   -0.9291    4.2942   -0.1276 C   0  0  0  0  0  0  0  0  0  0  0  0
   -1.2744    2.8411   -0.1159 C   0  0  0  0  0  0  0  0  0  0  0  0
   -2.2826    2.4463    0.5302 O   0  0  0  0  0  0  0  0  0  0  0  0
   -0.4517    1.9076   -0.8301 N   0  0  0  0  0  0  0  0  0  0  0  0
   -0.6544    0.4561   -0.7663 C   0  0  1  0  0  0  0  0  0  0  0  0
   -0.5355   -0.1628   -2.1736 C   0  0  1  0  0  0  0  0  0  0  0  0
    0.6883    0.1759   -2.7788 O   0  0  0  0  0  0  0  0  0  0  0  0
   -0.7108   -1.5708   -2.1261 O   0  0  0  0  0  0  0  0  0  0  0  0
    0.2934   -2.1964   -1.3400 C   0  0  2  0  0  0  0  0  0  0  0  0
    0.0949   -3.7173   -1.4260 C   0  0  0  0  0  0  0  0  0  0  0  0
    0.1527   -4.1437   -2.7606 O   0  0  0  0  0  0  0  0  0  0  0  0
    0.2184   -1.7202    0.1293 C   0  0  1  0  0  0  0  0  0  0  0  0
    1.2483   -2.3216    0.8725 O   0  0  0  0  0  0  0  0  0  0  0  0
    0.3615   -0.1890    0.1944 C   0  0  2  0  0  0  0  0  0  0  0  0
    0.0901    0.2341    1.5234 O   0  0  0  0  0  0  0  0  0  0  0  0
    1.0234    1.1970    1.9848 C   0  0  2  0  0  0  0  0  0  0  0  0
    2.2299    0.5006    2.6195 C   0  0  0  0  0  0  0  0  0  0  0  0
    0.3500    2.0563    3.0123 C   0  0  0  0  0  0  0  0  0  0  0  0
    0.5816    3.2935    3.0547 O   0  0  0  0  0  0  0  0  0  0  0  0
   -0.4994    1.4855    3.9526 O   0  0  0  0  0  1  0  0  0  0  0  0
   -0.9306    4.6673   -1.1729 H   0  0  0  0  0  0  0  0  0  0  0  0
   -1.6655    4.8776    0.4652 H   0  0  0  0  0  0  0  0  0  0  0  0
    0.0808    4.4378    0.3097 H   0  0  0  0  0  0  0  0  0  0  0  0
    0.4087    2.2728   -1.2987 H   0  0  0  0  0  0  0  0  0  0  0  0
   -1.6803    0.2319   -0.3963 H   0  0  0  0  0  0  0  0  0  0  0  0
   -1.3619    0.2602   -2.7889 H   0  0  0  0  0  0  0  0  0  0  0  0
    0.6409   -0.1596   -3.7117 H   0  0  0  0  0  0  0  0  0  0  0  0
    1.3070   -1.9750   -1.7481 H   0  0  0  0  0  0  0  0  0  0  0  0
    0.8668   -4.2497   -0.8247 H   0  0  0  0  0  0  0  0  0  0  0  0
   -0.9012   -3.9868   -1.0140 H   0  0  0  0  0  0  0  0  0  0  0  0
    1.1107   -4.1327   -3.0211 H   0  0  0  0  0  0  0  0  0  0  0  0
   -0.7759   -2.0135    0.5453 H   0  0  0  0  0  0  0  0  0  0  0  0
    0.9694   -2.2967    1.8251 H   0  0  0  0  0  0  0  0  0  0  0  0
    1.3959    0.0611   -0.1486 H   0  0  0  0  0  0  0  0  0  0  0  0
    1.3796    1.8691    1.1683 H   0  0  0  0  0  0  0  0  0  0  0  0
    2.9341    1.2531    3.0351 H   0  0  0  0  0  0  0  0  0  0  0  0
    1.9014   -0.1790    3.4351 H   0  0  0  0  0  0  0  0  0  0  0  0
    2.7734   -0.0961    1.8577 H   0  0  0  0  0  0  0  0  0  0  0  0
  1  2  1  0
  2  3  2  0
  2  4  1  0
  4  5  1  0
  5  6  1  0
  6  7  1  0
  6  8  1  0
  8  9  1  0
  9 10  1  0
 10 11  1  0
  9 12  1  0
 12 13  1  0
 12 14  1  0
 14 15  1  0
 15 16  1  0
 16 17  1  0
 16 18  1  0
 18 19  2  0
 18 20  1  0
 14  5  1  0
  1 21  1  0
  1 22  1  0
  1 23  1  0
  4 24  1  0
  5 25  1  1
  6 26  1  6
  7 27  1  0
  9 28  1  6
 10 29  1  0
 10 30  1  0
 11 31  1  0
 12 32  1  1
 13 33  1  0
 14 34  1  6
 16 35  1  6
 17 36  1  0
 17 37  1  0
 17 38  1  0
M  CHG  1  20  -1
M  END
>  <UniqueID>  (113) 
112

>  <SMILES>  (113) 
CC(=O)N[C@H]1[C@@H](O)O[C@H](CO)[C@@H](O)[C@@H]1O[C@H](C)C(=O)[O-]

>  <Energy>  (113) 
32.03776711549422

>  <Genealogy>  (113) 
CC(=O)N[C@H]1[C@@H](O)O[C@H](CO)[C@@H](O)[C@@H]1O[C@H](C)C(=O)[O-] (chirality)
CC(=O)N[C@H]1[C@@H](O)O[C@H](CO)[C@@H](O)[C@@H]1O[C@H](C)C(=O)[O-] (3D coordinates assigned)
CC(=O)N[C@H]1[C@@H](O)O[C@H](CO)[C@@H](O)[C@@H]1O[C@H](C)C(=O)[O-] (nonaromatic ring conformer: 32.03776711549422 kcal/mol)

$$$$
16738680
     RDKit          3D

 38 38  0  0  0  0  0  0  0  0999 V2000
   -4.8051   -1.0521    1.6598 H   0  0  0  0  0  0  0  0  0  0  0  0
   -4.0722   -0.5251    1.2003 O   0  0  0  0  0  0  0  0  0  0  0  0
   -2.8309   -1.0908    0.9202 C   0  0  0  0  0  0  0  0  0  0  0  0
   -1.9292   -0.3472    0.3464 N   0  0  0  0  0  0  0  0  0  0  0  0
   -0.5729   -0.7494   -0.0406 C   0  0  1  0  0  0  0  0  0  0  0  0
   -0.1852   -1.5260    0.6558 H   0  0  0  0  0  0  0  0  0  0  0  0
   -0.5758   -1.3202   -1.4740 C   0  0  1  0  0  0  0  0  0  0  0  0
   -1.1754   -2.2564   -1.4632 H   0  0  0  0  0  0  0  0  0  0  0  0
   -1.1790   -0.4213   -2.3719 O   0  0  0  0  0  0  0  0  0  0  0  0
   -1.2398   -0.8940   -3.2425 H   0  0  0  0  0  0  0  0  0  0  0  0
    0.7369   -1.6625   -1.8924 O   0  0  0  0  0  0  0  0  0  0  0  0
    1.5893   -0.5274   -1.9282 C   0  0  2  0  0  0  0  0  0  0  0  0
    1.1848    0.2458   -2.6217 H   0  0  0  0  0  0  0  0  0  0  0  0
    2.9521   -0.9657   -2.4854 C   0  0  0  0  0  0  0  0  0  0  0  0
    3.6538   -0.1019   -2.5349 H   0  0  0  0  0  0  0  0  0  0  0  0
    3.4010   -1.7290   -1.8144 H   0  0  0  0  0  0  0  0  0  0  0  0
    2.8008   -1.5307   -3.7598 O   0  0  0  0  0  0  0  0  0  0  0  0
    2.6583   -0.7770   -4.3900 H   0  0  0  0  0  0  0  0  0  0  0  0
    1.7488    0.0823   -0.5173 C   0  0  1  0  0  0  0  0  0  0  0  0
    2.2182   -0.6825    0.1478 H   0  0  0  0  0  0  0  0  0  0  0  0
    2.5627    1.2258   -0.5867 O   0  0  0  0  0  0  0  0  0  0  0  0
    2.9317    1.3728    0.3229 H   0  0  0  0  0  0  0  0  0  0  0  0
    0.3691    0.4647    0.0460 C   0  0  2  0  0  0  0  0  0  0  0  0
   -0.0322    1.2868   -0.5971 H   0  0  0  0  0  0  0  0  0  0  0  0
    0.5261    0.8431    1.4066 O   0  0  0  0  0  0  0  0  0  0  0  0
   -0.2310    1.9960    1.7366 C   0  0  1  0  0  0  0  0  0  0  0  0
   -1.1808    2.0652    1.1567 H   0  0  0  0  0  0  0  0  0  0  0  0
   -0.6065    1.9221    3.1860 C   0  0  0  0  0  0  0  0  0  0  0  0
    0.2610    1.6426    4.0557 O   0  0  0  0  0  0  0  0  0  0  0  0
   -1.9118    2.1881    3.5807 O   0  0  0  0  0  1  0  0  0  0  0  0
    0.5958    3.2595    1.4830 C   0  0  0  0  0  0  0  0  0  0  0  0
    1.5521    3.2190    2.0475 H   0  0  0  0  0  0  0  0  0  0  0  0
    0.8272    3.3542    0.4016 H   0  0  0  0  0  0  0  0  0  0  0  0
    0.0266    4.1614    1.7954 H   0  0  0  0  0  0  0  0  0  0  0  0
   -2.5643   -2.5185    1.3140 C   0  0  0  0  0  0  0  0  0  0  0  0
   -3.4878   -2.9933    1.7055 H   0  0  0  0  0  0  0  0  0  0  0  0
   -2.2231   -3.1078    0.4396 H   0  0  0  0  0  0  0  0  0  0  0  0
   -1.7934   -2.5507    2.1119 H   0  0  0  0  0  0  0  0  0  0  0  0
  1  2  1  0
  2  3  1  0
  3  4  2  0
  4  5  1  0
  5  6  1  1
  5  7  1  0
  7  8  1  1
  7  9  1  0
  9 10  1  0
  7 11  1  0
 11 12  1  0
 12 13  1  6
 12 14  1  0
 14 15  1  0
 14 16  1  0
 14 17  1  0
 17 18  1  0
 12 19  1  0
 19 20  1  1
 19 21  1  0
 21 22  1  0
 19 23  1  0
 23 24  1  6
 23 25  1  0
 25 26  1  0
 26 27  1  6
 26 28  1  0
 28 29  2  0
 28 30  1  0
 26 31  1  0
 31 32  1  0
 31 33  1  0
 31 34  1  0
  3 35  1  0
 35 36  1  0
 35 37  1  0
 35 38  1  0
 23  5  1  0
M  CHG  1  30  -1
M  END
>  <UniqueID>  (114) 
113

>  <SMILES>  (114) 
C/C(O)=N\[C@H]1[C@@H](O)O[C@H](CO)[C@@H](O)[C@@H]1O[C@H](C)C(=O)[O-]

>  <Energy>  (114) 
35.189865948684215

>  <Genealogy>  (114) 
CC(O)=N[C@H]1C(O)O[C@H](CO)[C@@H](O)[C@@H]1O[C@H](C)C(=O)[O-] (tautomer)
CC(O)=N[C@H]1[C@@H](O)O[C@H](CO)[C@@H](O)[C@@H]1O[C@H](C)C(=O)[O-] (chirality)
C/C(O)=N\[C@H]1[C@@H](O)O[C@H](CO)[C@@H](O)[C@@H]1O[C@H](C)C(=O)[O-] (cis-trans isomerization)
C/C(O)=N\[C@H]1[C@@H](O)O[C@H](CO)[C@@H](O)[C@@H]1O[C@H](C)C(=O)[O-] (3D coordinates assigned)
C/C(O)=N\[C@H]1[C@@H](O)O[C@H](CO)[C@@H](O)[C@@H]1O[C@H](C)C(=O)[O-] (nonaromatic ring conformer: 35.189865948684215 kcal/mol)

$$$$
16738680
     RDKit          3D

 38 38  0  0  0  0  0  0  0  0999 V2000
    0.7806    4.6640   -0.4276 H   0  0  0  0  0  0  0  0  0  0  0  0
    0.2431    3.8113   -0.3279 O   0  0  0  0  0  0  0  0  0  0  0  0
    0.7314    2.7183    0.3837 C   0  0  0  0  0  0  0  0  0  0  0  0
   -0.0074    1.6483    0.4546 N   0  0  0  0  0  0  0  0  0  0  0  0
    0.3137    0.4022    1.1581 C   0  0  1  0  0  0  0  0  0  0  0  0
    1.4133    0.2305    1.1596 H   0  0  0  0  0  0  0  0  0  0  0  0
   -0.1835    0.4727    2.6178 C   0  0  1  0  0  0  0  0  0  0  0  0
    0.3929    1.2721    3.1322 H   0  0  0  0  0  0  0  0  0  0  0  0
   -1.5476    0.8121    2.6678 O   0  0  0  0  0  0  0  0  0  0  0  0
   -1.7680    0.9444    3.6265 H   0  0  0  0  0  0  0  0  0  0  0  0
    0.0702   -0.7428    3.3075 O   0  0  0  0  0  0  0  0  0  0  0  0
   -0.6220   -1.8344    2.7197 C   0  0  2  0  0  0  0  0  0  0  0  0
   -1.7211   -1.6490    2.7282 H   0  0  0  0  0  0  0  0  0  0  0  0
   -0.3700   -3.0820    3.5739 C   0  0  0  0  0  0  0  0  0  0  0  0
    0.7198   -3.3105    3.5907 H   0  0  0  0  0  0  0  0  0  0  0  0
   -0.9130   -3.9522    3.1417 H   0  0  0  0  0  0  0  0  0  0  0  0
   -0.8235   -2.8582    4.8803 O   0  0  0  0  0  0  0  0  0  0  0  0
   -0.6269   -3.6890    5.3863 H   0  0  0  0  0  0  0  0  0  0  0  0
   -0.1429   -2.0629    1.2640 C   0  0  1  0  0  0  0  0  0  0  0  0
    0.9441   -2.3022    1.2850 H   0  0  0  0  0  0  0  0  0  0  0  0
   -0.8117   -3.1476    0.6676 O   0  0  0  0  0  0  0  0  0  0  0  0
   -1.7848   -2.9513    0.6902 H   0  0  0  0  0  0  0  0  0  0  0  0
   -0.3420   -0.7849    0.4294 C   0  0  2  0  0  0  0  0  0  0  0  0
   -1.4425   -0.6029    0.3541 H   0  0  0  0  0  0  0  0  0  0  0  0
    0.2836   -0.9712   -0.8324 O   0  0  0  0  0  0  0  0  0  0  0  0
   -0.4995   -0.4697   -1.9028 C   0  0  1  0  0  0  0  0  0  0  0  0
   -1.1132    0.4145   -1.6083 H   0  0  0  0  0  0  0  0  0  0  0  0
    0.4237   -0.0316   -2.9995 C   0  0  0  0  0  0  0  0  0  0  0  0
    0.2229    1.0563   -3.6012 O   0  0  0  0  0  0  0  0  0  0  0  0
    1.4871   -0.8406   -3.3822 O   0  0  0  0  0  1  0  0  0  0  0  0
   -1.4313   -1.5643   -2.4280 C   0  0  0  0  0  0  0  0  0  0  0  0
   -2.1618   -1.8531   -1.6441 H   0  0  0  0  0  0  0  0  0  0  0  0
   -1.9985   -1.1970   -3.3102 H   0  0  0  0  0  0  0  0  0  0  0  0
   -0.8485   -2.4646   -2.7193 H   0  0  0  0  0  0  0  0  0  0  0  0
    2.0957    2.7969    1.0134 C   0  0  0  0  0  0  0  0  0  0  0  0
    2.7855    2.0917    0.5046 H   0  0  0  0  0  0  0  0  0  0  0  0
    2.0425    2.5541    2.0934 H   0  0  0  0  0  0  0  0  0  0  0  0
    2.5116    3.8210    0.9147 H   0  0  0  0  0  0  0  0  0  0  0  0
  1  2  1  0
  2  3  1  0
  3  4  2  0
  4  5  1  0
  5  6  1  1
  5  7  1  0
  7  8  1  1
  7  9  1  0
  9 10  1  0
  7 11  1  0
 11 12  1  0
 12 13  1  6
 12 14  1  0
 14 15  1  0
 14 16  1  0
 14 17  1  0
 17 18  1  0
 12 19  1  0
 19 20  1  1
 19 21  1  0
 21 22  1  0
 19 23  1  0
 23 24  1  6
 23 25  1  0
 25 26  1  0
 26 27  1  1
 26 28  1  0
 28 29  2  0
 28 30  1  0
 26 31  1  0
 31 32  1  0
 31 33  1  0
 31 34  1  0
  3 35  1  0
 35 36  1  0
 35 37  1  0
 35 38  1  0
 23  5  1  0
M  CHG  1  30  -1
M  END
>  <UniqueID>  (115) 
114

>  <SMILES>  (115) 
C/C(O)=N/[C@H]1[C@@H](O)O[C@H](CO)[C@@H](O)[C@@H]1O[C@H](C)C(=O)[O-]

>  <Energy>  (115) 
35.516473530839725

>  <Genealogy>  (115) 
CC(O)=N[C@H]1C(O)O[C@H](CO)[C@@H](O)[C@@H]1O[C@H](C)C(=O)[O-] (tautomer)
CC(O)=N[C@H]1[C@@H](O)O[C@H](CO)[C@@H](O)[C@@H]1O[C@H](C)C(=O)[O-] (chirality)
C/C(O)=N/[C@H]1[C@@H](O)O[C@H](CO)[C@@H](O)[C@@H]1O[C@H](C)C(=O)[O-] (cis-trans isomerization)
C/C(O)=N/[C@H]1[C@@H](O)O[C@H](CO)[C@@H](O)[C@@H]1O[C@H](C)C(=O)[O-] (3D coordinates assigned)
C/C(O)=N/[C@H]1[C@@H](O)O[C@H](CO)[C@@H](O)[C@@H]1O[C@H](C)C(=O)[O-] (nonaromatic ring conformer: 35.516473530839725 kcal/mol)

$$$$
12917651
     RDKit          3D

 38 38  0  0  0  0  0  0  0  0999 V2000
   -4.5473    0.7020    0.7120 C   0  0  0  0  0  0  0  0  0  0  0  0
   -3.1193    1.1400    0.7613 C   0  0  0  0  0  0  0  0  0  0  0  0
   -2.8106    2.4999    0.7474 O   0  0  0  0  0  0  0  0  0  0  0  0
   -2.1771    0.2454    0.7827 N   0  0  0  0  0  0  0  0  0  0  0  0
   -0.7430    0.5418    0.8217 C   0  0  1  0  0  0  0  0  0  0  0  0
   -0.2603    0.6952    2.2810 C   0  0  2  0  0  0  0  0  0  0  0  0
   -0.9051    1.7874    2.8824 O   0  0  0  0  0  0  0  0  0  0  0  0
    1.1325    0.9462    2.3047 O   0  0  0  0  0  0  0  0  0  0  0  0
    1.8576   -0.1743    1.8262 C   0  0  2  0  0  0  0  0  0  0  0  0
    3.3521    0.1075    2.0442 C   0  0  0  0  0  0  0  0  0  0  0  0
    4.1155   -1.0518    1.8342 O   0  0  0  0  0  0  0  0  0  0  0  0
    1.5377   -0.4166    0.3310 C   0  0  1  0  0  0  0  0  0  0  0  0
    2.2130   -1.5627   -0.1206 O   0  0  0  0  0  0  0  0  0  0  0  0
    0.0194   -0.6086    0.1445 C   0  0  2  0  0  0  0  0  0  0  0  0
   -0.2901   -0.6017   -1.2428 O   0  0  0  0  0  0  0  0  0  0  0  0
   -0.6013   -1.8973   -1.7254 C   0  0  2  0  0  0  0  0  0  0  0  0
   -0.3356   -1.9352   -3.2280 C   0  0  0  0  0  0  0  0  0  0  0  0
   -2.0468   -2.2125   -1.4606 C   0  0  0  0  0  0  0  0  0  0  0  0
   -2.3646   -3.2799   -0.8733 O   0  0  0  0  0  0  0  0  0  0  0  0
   -3.0411   -1.3326   -1.8710 O   0  0  0  0  0  1  0  0  0  0  0  0
   -4.9263    0.7992   -0.3265 H   0  0  0  0  0  0  0  0  0  0  0  0
   -4.6457   -0.3559    1.0372 H   0  0  0  0  0  0  0  0  0  0  0  0
   -5.1586    1.3387    1.3850 H   0  0  0  0  0  0  0  0  0  0  0  0
   -3.5396    3.2024    0.7148 H   0  0  0  0  0  0  0  0  0  0  0  0
   -0.5283    1.4808    0.2610 H   0  0  0  0  0  0  0  0  0  0  0  0
   -0.4916   -0.2348    2.8597 H   0  0  0  0  0  0  0  0  0  0  0  0
   -1.7456    1.4473    3.2874 H   0  0  0  0  0  0  0  0  0  0  0  0
    1.6006   -1.0836    2.4200 H   0  0  0  0  0  0  0  0  0  0  0  0
    3.6885    0.9481    1.3919 H   0  0  0  0  0  0  0  0  0  0  0  0
    3.5048    0.4297    3.0965 H   0  0  0  0  0  0  0  0  0  0  0  0
    4.5805   -0.9429    0.9640 H   0  0  0  0  0  0  0  0  0  0  0  0
    1.8654    0.4799   -0.2493 H   0  0  0  0  0  0  0  0  0  0  0  0
    2.3445   -1.4547   -1.0987 H   0  0  0  0  0  0  0  0  0  0  0  0
   -0.2831   -1.5539    0.6619 H   0  0  0  0  0  0  0  0  0  0  0  0
    0.0488   -2.6807   -1.2679 H   0  0  0  0  0  0  0  0  0  0  0  0
   -0.5776   -2.9394   -3.6380 H   0  0  0  0  0  0  0  0  0  0  0  0
   -0.9471   -1.1703   -3.7535 H   0  0  0  0  0  0  0  0  0  0  0  0
    0.7376   -1.7253   -3.4231 H   0  0  0  0  0  0  0  0  0  0  0  0
  1  2  1  0
  2  3  1  0
  2  4  2  3
  4  5  1  0
  5  6  1  0
  6  7  1  0
  6  8  1  0
  8  9  1  0
  9 10  1  0
 10 11  1  0
  9 12  1  0
 12 13  1  0
 12 14  1  0
 14 15  1  0
 15 16  1  0
 16 17  1  0
 16 18  1  0
 18 19  2  0
 18 20  1  0
 14  5  1  0
  1 21  1  0
  1 22  1  0
  1 23  1  0
  3 24  1  0
  5 25  1  6
  6 26  1  1
  7 27  1  0
  9 28  1  1
 10 29  1  0
 10 30  1  0
 11 31  1  0
 12 32  1  6
 13 33  1  0
 14 34  1  1
 16 35  1  1
 17 36  1  0
 17 37  1  0
 17 38  1  0
M  CHG  1  20  -1
M  END
>  <UniqueID>  (116) 
115

>  <SMILES>  (116) 
CC(O)=N[C@H]1[C@H](O)O[C@H](CO)[C@@H](O)[C@@H]1O[C@H](C)C(=O)[O-]

>  <Energy>  (116) 
32.90985044117413

>  <Genealogy>  (116) 
CC(=O)N[C@H]1[C@H](O)O[C@H](CO)[C@@H](O)[C@@H]1O[C@H](C)C(=O)[O-] (protonated)
CC(O)=N[C@H]1[C@H](O)O[C@H](CO)[C@@H](O)[C@@H]1O[C@H](C)C(=O)[O-] (tautomer)
CC(O)=N[C@H]1[C@H](O)O[C@H](CO)[C@@H](O)[C@@H]1O[C@H](C)C(=O)[O-] (3D coordinates assigned)
CC(O)=N[C@H]1[C@H](O)O[C@H](CO)[C@@H](O)[C@@H]1O[C@H](C)C(=O)[O-] (nonaromatic ring conformer: 32.90985044117413 kcal/mol)

$$$$
12917651
     RDKit          3D

 38 38  0  0  0  0  0  0  0  0999 V2000
   -2.8179    2.5262    0.4403 C   0  0  0  0  0  0  0  0  0  0  0  0
   -3.0758    1.0757    0.7457 C   0  0  0  0  0  0  0  0  0  0  0  0
   -4.3886    0.6226    0.8487 O   0  0  0  0  0  0  0  0  0  0  0  0
   -2.1119    0.2127    0.8953 N   0  0  0  0  0  0  0  0  0  0  0  0
   -0.6697    0.4768    0.8343 C   0  0  1  0  0  0  0  0  0  0  0  0
   -0.0867    0.5695    2.2618 C   0  0  2  0  0  0  0  0  0  0  0  0
   -0.6612    1.6547    2.9409 O   0  0  0  0  0  0  0  0  0  0  0  0
    1.3116    0.7826    2.2023 O   0  0  0  0  0  0  0  0  0  0  0  0
    1.9668   -0.3401    1.6360 C   0  0  2  0  0  0  0  0  0  0  0  0
    3.4835   -0.1229    1.7454 C   0  0  0  0  0  0  0  0  0  0  0  0
    3.8569    0.0575    3.0850 O   0  0  0  0  0  0  0  0  0  0  0  0
    1.5452   -0.5176    0.1600 C   0  0  1  0  0  0  0  0  0  0  0  0
    2.1685   -1.6586   -0.3729 O   0  0  0  0  0  0  0  0  0  0  0  0
    0.0137   -0.6695    0.0697 C   0  0  2  0  0  0  0  0  0  0  0  0
   -0.3876   -0.6064   -1.2923 O   0  0  0  0  0  0  0  0  0  0  0  0
   -0.7477   -1.8793   -1.8006 C   0  0  2  0  0  0  0  0  0  0  0  0
   -0.5731   -1.8664   -3.3169 C   0  0  0  0  0  0  0  0  0  0  0  0
   -2.1794   -2.1833   -1.4600 C   0  0  0  0  0  0  0  0  0  0  0  0
   -2.4783   -3.2645   -0.8883 O   0  0  0  0  0  0  0  0  0  0  0  0
   -3.1825   -1.2773   -1.7830 O   0  0  0  0  0  1  0  0  0  0  0  0
   -2.1414    2.9694    1.1990 H   0  0  0  0  0  0  0  0  0  0  0  0
   -2.3640    2.6219   -0.5681 H   0  0  0  0  0  0  0  0  0  0  0  0
   -3.7667    3.1016    0.4510 H   0  0  0  0  0  0  0  0  0  0  0  0
   -5.1775    1.2464    0.7283 H   0  0  0  0  0  0  0  0  0  0  0  0
   -0.4561    1.4241    0.2917 H   0  0  0  0  0  0  0  0  0  0  0  0
   -0.3064   -0.3712    2.8269 H   0  0  0  0  0  0  0  0  0  0  0  0
   -1.5253    1.3415    3.3167 H   0  0  0  0  0  0  0  0  0  0  0  0
    1.7218   -1.2670    2.2071 H   0  0  0  0  0  0  0  0  0  0  0  0
    4.0364   -0.9869    1.3111 H   0  0  0  0  0  0  0  0  0  0  0  0
    3.7721    0.7859    1.1749 H   0  0  0  0  0  0  0  0  0  0  0  0
    3.8306   -0.8392    3.5106 H   0  0  0  0  0  0  0  0  0  0  0  0
    1.8552    0.3932   -0.4078 H   0  0  0  0  0  0  0  0  0  0  0  0
    2.2330   -1.5211   -1.3539 H   0  0  0  0  0  0  0  0  0  0  0  0
   -0.2790   -1.6246    0.5745 H   0  0  0  0  0  0  0  0  0  0  0  0
   -0.0846   -2.6883   -1.4112 H   0  0  0  0  0  0  0  0  0  0  0  0
   -1.2021   -1.0740   -3.7771 H   0  0  0  0  0  0  0  0  0  0  0  0
    0.4898   -1.6650   -3.5691 H   0  0  0  0  0  0  0  0  0  0  0  0
   -0.8559   -2.8515   -3.7469 H   0  0  0  0  0  0  0  0  0  0  0  0
  1  2  1  0
  2  3  1  0
  2  4  2  3
  4  5  1  0
  5  6  1  0
  6  7  1  0
  6  8  1  0
  8  9  1  0
  9 10  1  0
 10 11  1  0
  9 12  1  0
 12 13  1  0
 12 14  1  0
 14 15  1  0
 15 16  1  0
 16 17  1  0
 16 18  1  0
 18 19  2  0
 18 20  1  0
 14  5  1  0
  1 21  1  0
  1 22  1  0
  1 23  1  0
  3 24  1  0
  5 25  1  6
  6 26  1  1
  7 27  1  0
  9 28  1  1
 10 29  1  0
 10 30  1  0
 11 31  1  0
 12 32  1  6
 13 33  1  0
 14 34  1  1
 16 35  1  1
 17 36  1  0
 17 37  1  0
 17 38  1  0
M  CHG  1  20  -1
M  END
>  <UniqueID>  (117) 
116

>  <SMILES>  (117) 
CC(O)=N[C@H]1[C@H](O)O[C@H](CO)[C@@H](O)[C@@H]1O[C@H](C)C(=O)[O-]

>  <Energy>  (117) 
34.28475592264518

>  <Genealogy>  (117) 
CC(=O)N[C@H]1[C@H](O)O[C@H](CO)[C@@H](O)[C@@H]1O[C@H](C)C(=O)[O-] (protonated)
CC(O)=N[C@H]1[C@H](O)O[C@H](CO)[C@@H](O)[C@@H]1O[C@H](C)C(=O)[O-] (tautomer)
CC(O)=N[C@H]1[C@H](O)O[C@H](CO)[C@@H](O)[C@@H]1O[C@H](C)C(=O)[O-] (3D coordinates assigned)
CC(O)=N[C@H]1[C@H](O)O[C@H](CO)[C@@H](O)[C@@H]1O[C@H](C)C(=O)[O-] (nonaromatic ring conformer: 34.28475592264518 kcal/mol)

$$$$
12917651
     RDKit          3D

 38 38  0  0  0  0  0  0  0  0999 V2000
   -2.8600   -0.5930   -3.9629 C   0  0  0  0  0  0  0  0  0  0  0  0
   -1.7267   -0.0799   -3.1361 C   0  0  0  0  0  0  0  0  0  0  0  0
   -0.5700   -0.0175   -3.6344 O   0  0  0  0  0  0  0  0  0  0  0  0
   -1.9626    0.3486   -1.7873 N   0  0  0  0  0  0  0  0  0  0  0  0
   -0.8823    0.8453   -0.9234 C   0  0  1  0  0  0  0  0  0  0  0  0
   -1.4595    1.6619    0.2613 C   0  0  2  0  0  0  0  0  0  0  0  0
   -1.6274    2.9953   -0.1377 O   0  0  0  0  0  0  0  0  0  0  0  0
   -0.5631    1.6129    1.3550 O   0  0  0  0  0  0  0  0  0  0  0  0
   -0.6102    0.3350    1.9762 C   0  0  2  0  0  0  0  0  0  0  0  0
    0.5139    0.2746    3.0216 C   0  0  0  0  0  0  0  0  0  0  0  0
    0.4295   -0.9007    3.7826 O   0  0  0  0  0  0  0  0  0  0  0  0
   -0.4918   -0.8406    0.9469 C   0  0  1  0  0  0  0  0  0  0  0  0
   -1.7433   -1.4568    0.7761 O   0  0  0  0  0  0  0  0  0  0  0  0
    0.0029   -0.3278   -0.4212 C   0  0  2  0  0  0  0  0  0  0  0  0
    1.3389    0.1415   -0.2889 O   0  0  0  0  0  0  0  0  0  0  0  0
    2.2853   -0.8378   -0.6801 C   0  0  2  0  0  0  0  0  0  0  0  0
    3.6102   -0.5431    0.0172 C   0  0  0  0  0  0  0  0  0  0  0  0
    2.4819   -0.7961   -2.1691 C   0  0  0  0  0  0  0  0  0  0  0  0
    2.5561   -1.8666   -2.8278 O   0  0  0  0  0  0  0  0  0  0  0  0
    2.6142    0.4234   -2.8226 O   0  0  0  0  0  1  0  0  0  0  0  0
   -2.4967   -0.9370   -4.9551 H   0  0  0  0  0  0  0  0  0  0  0  0
   -3.6050    0.2160   -4.1125 H   0  0  0  0  0  0  0  0  0  0  0  0
   -3.3441   -1.4457   -3.4421 H   0  0  0  0  0  0  0  0  0  0  0  0
   -2.9462    0.3251   -1.4345 H   0  0  0  0  0  0  0  0  0  0  0  0
   -0.2417    1.5275   -1.5285 H   0  0  0  0  0  0  0  0  0  0  0  0
   -2.4590    1.2616    0.5635 H   0  0  0  0  0  0  0  0  0  0  0  0
   -2.0688    3.4616    0.6195 H   0  0  0  0  0  0  0  0  0  0  0  0
   -1.5708    0.2496    2.5354 H   0  0  0  0  0  0  0  0  0  0  0  0
    0.4568    1.1642    3.6898 H   0  0  0  0  0  0  0  0  0  0  0  0
    1.5007    0.3040    2.5134 H   0  0  0  0  0  0  0  0  0  0  0  0
   -0.3241   -0.7757    4.4167 H   0  0  0  0  0  0  0  0  0  0  0  0
    0.2324   -1.6105    1.3023 H   0  0  0  0  0  0  0  0  0  0  0  0
   -1.9069   -2.0025    1.5892 H   0  0  0  0  0  0  0  0  0  0  0  0
   -0.0754   -1.1638   -1.1586 H   0  0  0  0  0  0  0  0  0  0  0  0
    1.9767   -1.8638   -0.3666 H   0  0  0  0  0  0  0  0  0  0  0  0
    3.9708    0.4756   -0.2428 H   0  0  0  0  0  0  0  0  0  0  0  0
    4.3783   -1.2885   -0.2816 H   0  0  0  0  0  0  0  0  0  0  0  0
    3.4753   -0.6014    1.1179 H   0  0  0  0  0  0  0  0  0  0  0  0
  1  2  1  0
  2  3  2  0
  2  4  1  0
  4  5  1  0
  5  6  1  0
  6  7  1  0
  6  8  1  0
  8  9  1  0
  9 10  1  0
 10 11  1  0
  9 12  1  0
 12 13  1  0
 12 14  1  0
 14 15  1  0
 15 16  1  0
 16 17  1  0
 16 18  1  0
 18 19  2  0
 18 20  1  0
 14  5  1  0
  1 21  1  0
  1 22  1  0
  1 23  1  0
  4 24  1  0
  5 25  1  6
  6 26  1  1
  7 27  1  0
  9 28  1  1
 10 29  1  0
 10 30  1  0
 11 31  1  0
 12 32  1  1
 13 33  1  0
 14 34  1  6
 16 35  1  1
 17 36  1  0
 17 37  1  0
 17 38  1  0
M  CHG  1  20  -1
M  END
>  <UniqueID>  (118) 
117

>  <SMILES>  (118) 
CC(=O)N[C@H]1[C@H](O)O[C@H](CO)[C@@H](O)[C@@H]1O[C@H](C)C(=O)[O-]

>  <Energy>  (118) 
39.544183382569884

>  <Genealogy>  (118) 
CC(=O)N[C@H]1[C@H](O)O[C@H](CO)[C@@H](O)[C@@H]1O[C@H](C)C(=O)[O-] (protonated)
CC(=O)N[C@H]1[C@H](O)O[C@H](CO)[C@@H](O)[C@@H]1O[C@H](C)C(=O)[O-] (3D coordinates assigned)
CC(=O)N[C@H]1[C@H](O)O[C@H](CO)[C@@H](O)[C@@H]1O[C@H](C)C(=O)[O-] (nonaromatic ring conformer: 39.544183382569884 kcal/mol)

$$$$
12600646
     RDKit          3D

 36 36  0  0  0  0  0  0  0  0999 V2000
    0.2452   -3.6544   -2.2020 O   0  0  0  0  0  0  0  0  0  0  0  0
   -0.8860   -4.0132   -1.8143 N   0  0  0  0  0  0  0  0  0  0  0  0
   -1.3986   -3.6260   -0.5622 N   0  0  0  0  0  0  0  0  0  0  0  0
   -2.5758   -4.3300   -0.0480 C   0  0  0  0  0  0  0  0  0  0  0  0
   -2.1720   -5.5609    0.7652 C   0  0  0  0  0  0  0  0  0  0  0  0
   -1.4358   -6.8098   -0.2736 Cl  0  0  0  0  0  0  0  0  0  0  0  0
   -0.7561   -2.6106    0.2335 C   0  0  0  0  0  0  0  0  0  0  0  0
   -0.8205   -2.6702    1.4920 O   0  0  0  0  0  0  0  0  0  0  0  0
   -0.0866   -1.5073   -0.3962 N   0  0  0  0  0  0  0  0  0  0  0  0
    0.6850   -0.5131    0.3564 C   0  0  1  0  0  0  0  0  0  0  0  0
    1.9921   -0.1888   -0.3927 C   0  0  2  0  0  0  0  0  0  0  0  0
    2.7546   -1.3601   -0.5009 O   0  0  0  0  0  0  0  0  0  0  0  0
    2.7407    0.7803    0.3220 O   0  0  0  0  0  0  0  0  0  0  0  0
    2.0531    2.0205    0.3500 C   0  0  2  0  0  0  0  0  0  0  0  0
    2.9680    3.0690    0.9922 C   0  0  0  0  0  0  0  0  0  0  0  0
    4.1477    3.1856    0.2458 O   0  0  0  0  0  0  0  0  0  0  0  0
    0.7330    1.8799    1.1501 C   0  0  1  0  0  0  0  0  0  0  0  0
    0.0279    3.0965    1.1965 O   0  0  0  0  0  0  0  0  0  0  0  0
   -0.1442    0.7723    0.5383 C   0  0  2  0  0  0  0  0  0  0  0  0
   -1.2359    0.5281    1.3877 O   0  0  0  0  0  0  0  0  0  0  0  0
   -3.1741   -3.6469    0.5941 H   0  0  0  0  0  0  0  0  0  0  0  0
   -3.2290   -4.6394   -0.8928 H   0  0  0  0  0  0  0  0  0  0  0  0
   -3.0751   -5.9946    1.2439 H   0  0  0  0  0  0  0  0  0  0  0  0
   -1.4542   -5.2807    1.5642 H   0  0  0  0  0  0  0  0  0  0  0  0
   -0.2767   -1.3206   -1.4067 H   0  0  0  0  0  0  0  0  0  0  0  0
    0.9573   -0.9142    1.3591 H   0  0  0  0  0  0  0  0  0  0  0  0
    1.7545    0.1754   -1.4224 H   0  0  0  0  0  0  0  0  0  0  0  0
    3.5306   -1.1372   -1.0786 H   0  0  0  0  0  0  0  0  0  0  0  0
    1.8306    2.3656   -0.6876 H   0  0  0  0  0  0  0  0  0  0  0  0
    3.2139    2.7639    2.0346 H   0  0  0  0  0  0  0  0  0  0  0  0
    2.4519    4.0548    1.0185 H   0  0  0  0  0  0  0  0  0  0  0  0
    4.7013    3.8662    0.7099 H   0  0  0  0  0  0  0  0  0  0  0  0
    0.9843    1.5890    2.1948 H   0  0  0  0  0  0  0  0  0  0  0  0
   -0.1630    3.3702    0.2612 H   0  0  0  0  0  0  0  0  0  0  0  0
   -0.5060    1.1172   -0.4606 H   0  0  0  0  0  0  0  0  0  0  0  0
   -1.9513    0.1241    0.8305 H   0  0  0  0  0  0  0  0  0  0  0  0
  1  2  2  0
  2  3  1  0
  3  4  1  0
  4  5  1  0
  5  6  1  0
  3  7  1  0
  7  8  2  0
  7  9  1  0
  9 10  1  0
 10 11  1  0
 11 12  1  0
 11 13  1  0
 13 14  1  0
 14 15  1  0
 15 16  1  0
 14 17  1  0
 17 18  1  0
 17 19  1  0
 19 20  1  0
 19 10  1  0
  4 21  1  0
  4 22  1  0
  5 23  1  0
  5 24  1  0
  9 25  1  0
 10 26  1  1
 11 27  1  6
 12 28  1  0
 14 29  1  6
 15 30  1  0
 15 31  1  0
 16 32  1  0
 17 33  1  1
 18 34  1  0
 19 35  1  6
 20 36  1  0
M  END
>  <UniqueID>  (119) 
118

>  <SMILES>  (119) 
O=NN(CCCl)C(=O)N[C@H]1[C@H](O)O[C@H](CO)[C@@H](O)[C@@H]1O

>  <Energy>  (119) 
31.022238213356104

>  <Genealogy>  (119) 
O=NN(CCCl)C(=O)N[C@H]1[C@H](O)O[C@H](CO)[C@@H](O)[C@@H]1O (chirality)
O=NN(CCCl)C(=O)N[C@H]1[C@H](O)O[C@H](CO)[C@@H](O)[C@@H]1O (3D coordinates assigned)
O=NN(CCCl)C(=O)N[C@H]1[C@H](O)O[C@H](CO)[C@@H](O)[C@@H]1O (nonaromatic ring conformer: 31.022238213356104 kcal/mol)

$$$$
12600646
     RDKit          3D

 36 36  0  0  0  0  0  0  0  0999 V2000
    4.0591   -1.1727    1.9507 O   0  0  0  0  0  0  0  0  0  0  0  0
    2.9617   -1.1167    1.3577 N   0  0  0  0  0  0  0  0  0  0  0  0
    2.8790   -1.1498   -0.0465 N   0  0  0  0  0  0  0  0  0  0  0  0
    4.1020   -1.2092   -0.8590 C   0  0  0  0  0  0  0  0  0  0  0  0
    4.6367    0.1975   -1.1120 C   0  0  0  0  0  0  0  0  0  0  0  0
    6.1211    0.1226   -2.0938 Cl  0  0  0  0  0  0  0  0  0  0  0  0
    1.5915   -0.9966   -0.6740 C   0  0  0  0  0  0  0  0  0  0  0  0
    1.5129   -0.8814   -1.9283 O   0  0  0  0  0  0  0  0  0  0  0  0
    0.3924   -0.9718    0.1182 N   0  0  0  0  0  0  0  0  0  0  0  0
   -0.9262   -0.6919   -0.4676 C   0  0  1  0  0  0  0  0  0  0  0  0
   -2.0575   -1.1206    0.4920 C   0  0  1  0  0  0  0  0  0  0  0  0
   -1.9080   -2.4771    0.8202 O   0  0  0  0  0  0  0  0  0  0  0  0
   -2.0221   -0.3679    1.6932 O   0  0  0  0  0  0  0  0  0  0  0  0
   -2.2337    1.0226    1.4782 C   0  0  2  0  0  0  0  0  0  0  0  0
   -3.7015    1.3620    1.1378 C   0  0  0  0  0  0  0  0  0  0  0  0
   -4.5641    0.8245    2.1037 O   0  0  0  0  0  0  0  0  0  0  0  0
   -1.2080    1.6413    0.4890 C   0  0  1  0  0  0  0  0  0  0  0  0
    0.0490    1.7331    1.1121 O   0  0  0  0  0  0  0  0  0  0  0  0
   -1.0654    0.8082   -0.7976 C   0  0  2  0  0  0  0  0  0  0  0  0
   -2.1806    1.0219   -1.6252 O   0  0  0  0  0  0  0  0  0  0  0  0
    3.8979   -1.7139   -1.8284 H   0  0  0  0  0  0  0  0  0  0  0  0
    4.8750   -1.8155   -0.3397 H   0  0  0  0  0  0  0  0  0  0  0  0
    4.8702    0.6948   -0.1469 H   0  0  0  0  0  0  0  0  0  0  0  0
    3.8786    0.8009   -1.6547 H   0  0  0  0  0  0  0  0  0  0  0  0
    0.4595   -1.1854    1.1386 H   0  0  0  0  0  0  0  0  0  0  0  0
   -1.0315   -1.2827   -1.4052 H   0  0  0  0  0  0  0  0  0  0  0  0
   -3.0434   -0.9980   -0.0118 H   0  0  0  0  0  0  0  0  0  0  0  0
   -2.1614   -3.0005    0.0150 H   0  0  0  0  0  0  0  0  0  0  0  0
   -2.0526    1.5149    2.4593 H   0  0  0  0  0  0  0  0  0  0  0  0
   -3.9940    1.0183    0.1231 H   0  0  0  0  0  0  0  0  0  0  0  0
   -3.8243    2.4661    1.1442 H   0  0  0  0  0  0  0  0  0  0  0  0
   -4.7032   -0.1285    1.8632 H   0  0  0  0  0  0  0  0  0  0  0  0
   -1.5405    2.6672    0.2010 H   0  0  0  0  0  0  0  0  0  0  0  0
    0.0176    2.5208    1.7159 H   0  0  0  0  0  0  0  0  0  0  0  0
   -0.1542    1.1598   -1.3362 H   0  0  0  0  0  0  0  0  0  0  0  0
   -1.9323    0.7036   -2.5324 H   0  0  0  0  0  0  0  0  0  0  0  0
  1  2  2  0
  2  3  1  0
  3  4  1  0
  4  5  1  0
  5  6  1  0
  3  7  1  0
  7  8  2  0
  7  9  1  0
  9 10  1  0
 10 11  1  0
 11 12  1  0
 11 13  1  0
 13 14  1  0
 14 15  1  0
 15 16  1  0
 14 17  1  0
 17 18  1  0
 17 19  1  0
 19 20  1  0
 19 10  1  0
  4 21  1  0
  4 22  1  0
  5 23  1  0
  5 24  1  0
  9 25  1  0
 10 26  1  6
 11 27  1  6
 12 28  1  0
 14 29  1  1
 15 30  1  0
 15 31  1  0
 16 32  1  0
 17 33  1  6
 18 34  1  0
 19 35  1  6
 20 36  1  0
M  END
>  <UniqueID>  (120) 
119

>  <SMILES>  (120) 
O=NN(CCCl)C(=O)N[C@H]1[C@@H](O)O[C@H](CO)[C@@H](O)[C@@H]1O

>  <Energy>  (120) 
33.67386131704075

>  <Genealogy>  (120) 
O=NN(CCCl)C(=O)N[C@H]1[C@@H](O)O[C@H](CO)[C@@H](O)[C@@H]1O (chirality)
O=NN(CCCl)C(=O)N[C@H]1[C@@H](O)O[C@H](CO)[C@@H](O)[C@@H]1O (3D coordinates assigned)
O=NN(CCCl)C(=O)N[C@H]1[C@@H](O)O[C@H](CO)[C@@H](O)[C@@H]1O (nonaromatic ring conformer: 33.67386131704075 kcal/mol)

$$$$
12600646
     RDKit          3D

 36 36  0  0  0  0  0  0  0  0999 V2000
    3.1681   -0.3634    1.6323 O   0  0  0  0  0  0  0  0  0  0  0  0
    3.9131   -0.3290    0.6311 N   0  0  0  0  0  0  0  0  0  0  0  0
    3.4104   -0.4869   -0.6737 N   0  0  0  0  0  0  0  0  0  0  0  0
    4.3618   -0.7570   -1.7544 C   0  0  0  0  0  0  0  0  0  0  0  0
    4.6004   -2.2590   -1.9178 C   0  0  0  0  0  0  0  0  0  0  0  0
    5.4601   -2.9349   -0.5090 Cl  0  0  0  0  0  0  0  0  0  0  0  0
    1.9950   -0.4572   -0.9441 C   0  0  0  0  0  0  0  0  0  0  0  0
    1.5258   -1.1411   -1.8947 O   0  0  0  0  0  0  0  0  0  0  0  0
    1.1225    0.3810   -0.1712 N   0  0  0  0  0  0  0  0  0  0  0  0
   -0.3395    0.2770   -0.2535 C   0  0  1  0  0  0  0  0  0  0  0  0
   -0.8303   -1.0341    0.4176 C   0  0  1  0  0  0  0  0  0  0  0  0
   -0.2558   -1.2833    1.6813 O   0  0  0  0  0  0  0  0  0  0  0  0
   -2.2460   -1.1159    0.4685 O   0  0  0  0  0  0  0  0  0  0  0  0
   -2.8228   -0.0423    1.1947 C   0  0  2  0  0  0  0  0  0  0  0  0
   -4.3323   -0.3071    1.2961 C   0  0  0  0  0  0  0  0  0  0  0  0
   -4.9271    0.5778    2.2053 O   0  0  0  0  0  0  0  0  0  0  0  0
   -2.5354    1.3051    0.4907 C   0  0  1  0  0  0  0  0  0  0  0  0
   -3.0981    2.3613    1.2268 O   0  0  0  0  0  0  0  0  0  0  0  0
   -1.0135    1.5133    0.3806 C   0  0  2  0  0  0  0  0  0  0  0  0
   -0.7179    2.6739   -0.3577 O   0  0  0  0  0  0  0  0  0  0  0  0
    3.9754   -0.3414   -2.7108 H   0  0  0  0  0  0  0  0  0  0  0  0
    5.3270   -0.2472   -1.5432 H   0  0  0  0  0  0  0  0  0  0  0  0
    3.6366   -2.7939   -2.0487 H   0  0  0  0  0  0  0  0  0  0  0  0
    5.2218   -2.4338   -2.8213 H   0  0  0  0  0  0  0  0  0  0  0  0
    1.5500    1.1317    0.4168 H   0  0  0  0  0  0  0  0  0  0  0  0
   -0.6381    0.2422   -1.3258 H   0  0  0  0  0  0  0  0  0  0  0  0
   -0.4977   -1.8648   -0.2396 H   0  0  0  0  0  0  0  0  0  0  0  0
   -0.1832   -0.4295    2.1770 H   0  0  0  0  0  0  0  0  0  0  0  0
   -2.4276   -0.0196    2.2357 H   0  0  0  0  0  0  0  0  0  0  0  0
   -4.4923   -1.3507    1.6496 H   0  0  0  0  0  0  0  0  0  0  0  0
   -4.8060   -0.2020    0.2938 H   0  0  0  0  0  0  0  0  0  0  0  0
   -5.8955    0.3607    2.2077 H   0  0  0  0  0  0  0  0  0  0  0  0
   -2.9812    1.2689   -0.5323 H   0  0  0  0  0  0  0  0  0  0  0  0
   -3.2034    3.1248    0.6010 H   0  0  0  0  0  0  0  0  0  0  0  0
   -0.6117    1.6632    1.4064 H   0  0  0  0  0  0  0  0  0  0  0  0
   -1.0973    2.5597   -1.2682 H   0  0  0  0  0  0  0  0  0  0  0  0
  1  2  2  0
  2  3  1  0
  3  4  1  0
  4  5  1  0
  5  6  1  0
  3  7  1  0
  7  8  2  0
  7  9  1  0
  9 10  1  0
 10 11  1  0
 11 12  1  0
 11 13  1  0
 13 14  1  0
 14 15  1  0
 15 16  1  0
 14 17  1  0
 17 18  1  0
 17 19  1  0
 19 20  1  0
 19 10  1  0
  4 21  1  0
  4 22  1  0
  5 23  1  0
  5 24  1  0
  9 25  1  0
 10 26  1  6
 11 27  1  6
 12 28  1  0
 14 29  1  1
 15 30  1  0
 15 31  1  0
 16 32  1  0
 17 33  1  6
 18 34  1  0
 19 35  1  1
 20 36  1  0
M  END
>  <UniqueID>  (121) 
120

>  <SMILES>  (121) 
O=NN(CCCl)C(=O)N[C@H]1[C@@H](O)O[C@H](CO)[C@@H](O)[C@@H]1O

>  <Energy>  (121) 
36.47845084778251

>  <Genealogy>  (121) 
O=NN(CCCl)C(=O)N[C@H]1[C@@H](O)O[C@H](CO)[C@@H](O)[C@@H]1O (chirality)
O=NN(CCCl)C(=O)N[C@H]1[C@@H](O)O[C@H](CO)[C@@H](O)[C@@H]1O (3D coordinates assigned)
O=NN(CCCl)C(=O)N[C@H]1[C@@H](O)O[C@H](CO)[C@@H](O)[C@@H]1O (nonaromatic ring conformer: 36.47845084778251 kcal/mol)

$$$$
12302999
     RDKit          3D

 25 25  0  0  0  0  0  0  0  0999 V2000
    2.6244    0.4723    0.8793 N   0  0  0  0  0  0  0  0  0  0  0  0
    1.4130    1.2728    0.6684 C   0  0  2  0  0  0  0  0  0  0  0  0
    0.3829    0.9708    1.7806 C   0  0  1  0  0  0  0  0  0  0  0  0
   -0.7081    1.8580    1.7237 O   0  0  0  0  0  0  0  0  0  0  0  0
   -0.0603   -0.3756    1.7126 O   0  0  0  0  0  0  0  0  0  0  0  0
   -0.7397   -0.6515    0.4954 C   0  0  2  0  0  0  0  0  0  0  0  0
   -1.2665   -2.0949    0.5718 C   0  0  0  0  0  0  0  0  0  0  0  0
   -2.1135   -2.3879   -0.5071 O   0  0  0  0  0  0  0  0  0  0  0  0
    0.2030   -0.4614   -0.7194 C   0  0  1  0  0  0  0  0  0  0  0  0
   -0.5120   -0.6615   -1.9123 O   0  0  0  0  0  0  0  0  0  0  0  0
    0.7846    0.9624   -0.7066 C   0  0  2  0  0  0  0  0  0  0  0  0
    1.7355    1.0952   -1.7319 O   0  0  0  0  0  0  0  0  0  0  0  0
    3.0219    0.7125    1.8165 H   0  0  0  0  0  0  0  0  0  0  0  0
    3.3477    0.7724    0.1863 H   0  0  0  0  0  0  0  0  0  0  0  0
    1.6820    2.3533    0.7075 H   0  0  0  0  0  0  0  0  0  0  0  0
    0.8842    1.0995    2.7672 H   0  0  0  0  0  0  0  0  0  0  0  0
   -0.3741    2.7445    2.0209 H   0  0  0  0  0  0  0  0  0  0  0  0
   -1.6255    0.0166    0.3893 H   0  0  0  0  0  0  0  0  0  0  0  0
   -1.8141   -2.2438    1.5307 H   0  0  0  0  0  0  0  0  0  0  0  0
   -0.4150   -2.8087    0.5649 H   0  0  0  0  0  0  0  0  0  0  0  0
   -2.9753   -1.9299   -0.3251 H   0  0  0  0  0  0  0  0  0  0  0  0
    1.0363   -1.2006   -0.6433 H   0  0  0  0  0  0  0  0  0  0  0  0
    0.1534   -0.8870   -2.6139 H   0  0  0  0  0  0  0  0  0  0  0  0
   -0.0504    1.6804   -0.8894 H   0  0  0  0  0  0  0  0  0  0  0  0
    1.9039    2.0677   -1.8409 H   0  0  0  0  0  0  0  0  0  0  0  0
  1  2  1  0
  2  3  1  0
  3  4  1  0
  3  5  1  0
  5  6  1  0
  6  7  1  0
  7  8  1  0
  6  9  1  0
  9 10  1  0
  9 11  1  0
 11 12  1  0
 11  2  1  0
  1 13  1  0
  1 14  1  0
  2 15  1  6
  3 16  1  1
  4 17  1  0
  6 18  1  6
  7 19  1  0
  7 20  1  0
  8 21  1  0
  9 22  1  1
 10 23  1  0
 11 24  1  6
 12 25  1  0
M  END
>  <UniqueID>  (122) 
121

>  <SMILES>  (122) 
N[C@@H]1[C@@H](O)O[C@H](CO)[C@@H](O)[C@@H]1O

>  <Energy>  (122) 
23.83076102494744

>  <Genealogy>  (122) 
N[C@@H]1[C@@H](O)O[C@H](CO)[C@@H](O)[C@@H]1O (3D coordinates assigned)
N[C@@H]1[C@@H](O)O[C@H](CO)[C@@H](O)[C@@H]1O (nonaromatic ring conformer: 23.83076102494744 kcal/mol)

$$$$
12302999
     RDKit          3D

 26 26  0  0  0  0  0  0  0  0999 V2000
   -0.8699   -0.3436   -0.6187 N   0  0  0  0  0  4  0  0  0  0  0  0
    0.4067    0.3825   -0.7180 C   0  0  2  0  0  0  0  0  0  0  0  0
    1.4623   -0.4739   -1.4507 C   0  0  1  0  0  0  0  0  0  0  0  0
    2.5693    0.3130   -1.8145 O   0  0  0  0  0  0  0  0  0  0  0  0
    1.8566   -1.5911   -0.6666 O   0  0  0  0  0  0  0  0  0  0  0  0
    2.4850   -1.1943    0.5440 C   0  0  2  0  0  0  0  0  0  0  0  0
    2.9886   -2.4666    1.2472 C   0  0  0  0  0  0  0  0  0  0  0  0
    3.8276   -2.1551    2.3271 O   0  0  0  0  0  0  0  0  0  0  0  0
    1.4992   -0.4048    1.4421 C   0  0  1  0  0  0  0  0  0  0  0  0
    2.1593    0.0641    2.5921 O   0  0  0  0  0  0  0  0  0  0  0  0
    0.9474    0.8032    0.6703 C   0  0  2  0  0  0  0  0  0  0  0  0
   -0.0508    1.4326    1.4321 O   0  0  0  0  0  0  0  0  0  0  0  0
   -1.2302   -0.5511   -1.5785 H   0  0  0  0  0  0  0  0  0  0  0  0
   -0.7549   -1.2459   -0.1041 H   0  0  0  0  0  0  0  0  0  0  0  0
   -1.5864    0.2432   -0.1342 H   0  0  0  0  0  0  0  0  0  0  0  0
    0.2338    1.3066   -1.3156 H   0  0  0  0  0  0  0  0  0  0  0  0
    0.9962   -0.8618   -2.3846 H   0  0  0  0  0  0  0  0  0  0  0  0
    3.1566   -0.2678   -2.3651 H   0  0  0  0  0  0  0  0  0  0  0  0
    3.3781   -0.5642    0.3263 H   0  0  0  0  0  0  0  0  0  0  0  0
    2.1263   -3.0600    1.6197 H   0  0  0  0  0  0  0  0  0  0  0  0
    3.5379   -3.1056    0.5181 H   0  0  0  0  0  0  0  0  0  0  0  0
    4.6981   -1.8752    1.9404 H   0  0  0  0  0  0  0  0  0  0  0  0
    0.6460   -1.0677    1.7240 H   0  0  0  0  0  0  0  0  0  0  0  0
    1.9286   -0.5501    3.3373 H   0  0  0  0  0  0  0  0  0  0  0  0
    1.7889    1.5202    0.5140 H   0  0  0  0  0  0  0  0  0  0  0  0
   -0.2051    2.3230    1.0206 H   0  0  0  0  0  0  0  0  0  0  0  0
  1  2  1  0
  2  3  1  0
  3  4  1  0
  3  5  1  0
  5  6  1  0
  6  7  1  0
  7  8  1  0
  6  9  1  0
  9 10  1  0
  9 11  1  0
 11 12  1  0
 11  2  1  0
  1 13  1  0
  1 14  1  0
  1 15  1  0
  2 16  1  6
  3 17  1  6
  4 18  1  0
  6 19  1  6
  7 20  1  0
  7 21  1  0
  8 22  1  0
  9 23  1  1
 10 24  1  0
 11 25  1  6
 12 26  1  0
M  CHG  1   1   1
M  END
>  <UniqueID>  (123) 
122

>  <SMILES>  (123) 
[NH3+][C@@H]1[C@@H](O)O[C@H](CO)[C@@H](O)[C@@H]1O

>  <Energy>  (123) 
25.71619557247595

>  <Genealogy>  (123) 
[NH3+][C@@H]1[C@@H](O)O[C@H](CO)[C@@H](O)[C@@H]1O (protonated)
[NH3+][C@@H]1[C@@H](O)O[C@H](CO)[C@@H](O)[C@@H]1O (3D coordinates assigned)
[NH3+][C@@H]1[C@@H](O)O[C@H](CO)[C@@H](O)[C@@H]1O (nonaromatic ring conformer: 25.71619557247595 kcal/mol)

$$$$
12302999
     RDKit          3D

 26 26  0  0  0  0  0  0  0  0999 V2000
   -0.2262    1.2664   -1.3148 N   0  0  0  0  0  4  0  0  0  0  0  0
    0.8422    0.6812   -0.4943 C   0  0  2  0  0  0  0  0  0  0  0  0
    1.3194   -0.6846   -1.0747 C   0  0  1  0  0  0  0  0  0  0  0  0
    2.3616   -0.4741   -1.9913 O   0  0  0  0  0  0  0  0  0  0  0  0
    1.7283   -1.6134   -0.0747 O   0  0  0  0  0  0  0  0  0  0  0  0
    2.4807   -0.9777    0.9430 C   0  0  2  0  0  0  0  0  0  0  0  0
    3.1754   -2.0470    1.7966 C   0  0  0  0  0  0  0  0  0  0  0  0
    4.0437   -2.8151    1.0078 O   0  0  0  0  0  0  0  0  0  0  0  0
    1.5566   -0.0858    1.8140 C   0  0  1  0  0  0  0  0  0  0  0  0
    2.3233    0.9491    2.3759 O   0  0  0  0  0  0  0  0  0  0  0  0
    0.3967    0.5097    0.9720 C   0  0  2  0  0  0  0  0  0  0  0  0
   -0.7206   -0.3427    1.0268 O   0  0  0  0  0  0  0  0  0  0  0  0
   -1.0689    0.6470   -1.3300 H   0  0  0  0  0  0  0  0  0  0  0  0
   -0.4954    2.2013   -0.9309 H   0  0  0  0  0  0  0  0  0  0  0  0
    0.1173    1.3996   -2.2937 H   0  0  0  0  0  0  0  0  0  0  0  0
    1.7042    1.3890   -0.4961 H   0  0  0  0  0  0  0  0  0  0  0  0
    0.4643   -1.1520   -1.6138 H   0  0  0  0  0  0  0  0  0  0  0  0
    2.5465   -1.3532   -2.4137 H   0  0  0  0  0  0  0  0  0  0  0  0
    3.2852   -0.3491    0.4902 H   0  0  0  0  0  0  0  0  0  0  0  0
    2.4140   -2.7234    2.2410 H   0  0  0  0  0  0  0  0  0  0  0  0
    3.7372   -1.5691    2.6318 H   0  0  0  0  0  0  0  0  0  0  0  0
    4.8506   -2.2589    0.8487 H   0  0  0  0  0  0  0  0  0  0  0  0
    1.1171   -0.7019    2.6351 H   0  0  0  0  0  0  0  0  0  0  0  0
    1.8057    1.3073    3.1439 H   0  0  0  0  0  0  0  0  0  0  0  0
    0.1149    1.5116    1.3746 H   0  0  0  0  0  0  0  0  0  0  0  0
   -1.1590   -0.1858    1.9038 H   0  0  0  0  0  0  0  0  0  0  0  0
  1  2  1  0
  2  3  1  0
  3  4  1  0
  3  5  1  0
  5  6  1  0
  6  7  1  0
  7  8  1  0
  6  9  1  0
  9 10  1  0
  9 11  1  0
 11 12  1  0
 11  2  1  0
  1 13  1  0
  1 14  1  0
  1 15  1  0
  2 16  1  1
  3 17  1  6
  4 18  1  0
  6 19  1  6
  7 20  1  0
  7 21  1  0
  8 22  1  0
  9 23  1  1
 10 24  1  0
 11 25  1  1
 12 26  1  0
M  CHG  1   1   1
M  END
>  <UniqueID>  (124) 
123

>  <SMILES>  (124) 
[NH3+][C@@H]1[C@@H](O)O[C@H](CO)[C@@H](O)[C@@H]1O

>  <Energy>  (124) 
30.629698325544766

>  <Genealogy>  (124) 
[NH3+][C@@H]1[C@@H](O)O[C@H](CO)[C@@H](O)[C@@H]1O (protonated)
[NH3+][C@@H]1[C@@H](O)O[C@H](CO)[C@@H](O)[C@@H]1O (3D coordinates assigned)
[NH3+][C@@H]1[C@@H](O)O[C@H](CO)[C@@H](O)[C@@H]1O (nonaromatic ring conformer: 30.629698325544766 kcal/mol)

$$$$
11908605
     RDKit          3D

 30 30  0  0  0  0  0  0  0  0999 V2000
    2.9248    0.8291    2.6450 C   0  0  0  0  0  0  0  0  0  0  0  0
    1.4699    0.5351    2.4779 C   0  0  0  0  0  0  0  0  0  0  0  0
    0.6725    0.7793    3.4236 O   0  0  0  0  0  0  0  0  0  0  0  0
    0.9948   -0.0536    1.2593 N   0  0  0  0  0  0  0  0  0  0  0  0
   -0.4278   -0.3382    1.0263 C   0  0  1  0  0  0  0  0  0  0  0  0
   -1.1864    0.9609    0.6936 C   0  0  2  0  0  0  0  0  0  0  0  0
   -2.5699    0.7171    0.7669 O   0  0  0  0  0  0  0  0  0  0  0  0
   -0.8024    1.4577   -0.7178 C   0  0  2  0  0  0  0  0  0  0  0  0
   -1.6277    2.5319   -1.0897 O   0  0  0  0  0  0  0  0  0  0  0  0
   -0.9312    0.3031   -1.7438 C   0  0  1  0  0  0  0  0  0  0  0  0
   -0.4656    0.7412   -3.1427 C   0  0  0  0  0  0  0  0  0  0  0  0
   -1.3271    1.7036   -3.6892 O   0  0  0  0  0  0  0  0  0  0  0  0
   -0.1305   -0.7983   -1.3459 O   0  0  0  0  0  0  0  0  0  0  0  0
   -0.6035   -1.3484   -0.1276 C   0  0  1  0  0  0  0  0  0  0  0  0
    0.1230   -2.5112    0.1653 O   0  0  0  0  0  0  0  0  0  0  0  0
    3.3012    1.3737    1.7539 H   0  0  0  0  0  0  0  0  0  0  0  0
    3.0954    1.4566    3.5456 H   0  0  0  0  0  0  0  0  0  0  0  0
    3.4839   -0.1232    2.7549 H   0  0  0  0  0  0  0  0  0  0  0  0
    1.6986   -0.3011    0.5266 H   0  0  0  0  0  0  0  0  0  0  0  0
   -0.8605   -0.7902    1.9471 H   0  0  0  0  0  0  0  0  0  0  0  0
   -0.9081    1.7415    1.4401 H   0  0  0  0  0  0  0  0  0  0  0  0
   -3.0114    1.5899    0.9372 H   0  0  0  0  0  0  0  0  0  0  0  0
    0.2614    1.7945   -0.7002 H   0  0  0  0  0  0  0  0  0  0  0  0
   -1.3234    3.3200   -0.5679 H   0  0  0  0  0  0  0  0  0  0  0  0
   -1.9987   -0.0090   -1.8304 H   0  0  0  0  0  0  0  0  0  0  0  0
   -0.4166   -0.1452   -3.8160 H   0  0  0  0  0  0  0  0  0  0  0  0
    0.5589    1.1672   -3.0839 H   0  0  0  0  0  0  0  0  0  0  0  0
   -2.1477    1.2225   -3.9735 H   0  0  0  0  0  0  0  0  0  0  0  0
   -1.6823   -1.6267   -0.2122 H   0  0  0  0  0  0  0  0  0  0  0  0
   -0.0912   -3.1639   -0.5513 H   0  0  0  0  0  0  0  0  0  0  0  0
  1  2  1  0
  2  3  2  0
  2  4  1  0
  4  5  1  0
  5  6  1  0
  6  7  1  0
  6  8  1  0
  8  9  1  0
  8 10  1  0
 10 11  1  0
 11 12  1  0
 10 13  1  0
 13 14  1  0
 14 15  1  0
 14  5  1  0
  1 16  1  0
  1 17  1  0
  1 18  1  0
  4 19  1  0
  5 20  1  1
  6 21  1  1
  7 22  1  0
  8 23  1  1
  9 24  1  0
 10 25  1  6
 11 26  1  0
 11 27  1  0
 12 28  1  0
 14 29  1  6
 15 30  1  0
M  END
>  <UniqueID>  (125) 
124

>  <SMILES>  (125) 
CC(=O)N[C@H]1[C@H](O)[C@H](O)[C@@H](CO)O[C@H]1O

>  <Energy>  (125) 
24.332941190141852

>  <Genealogy>  (125) 
CC(=O)N[C@H]1[C@H](O)[C@H](O)[C@@H](CO)O[C@H]1O (3D coordinates assigned)
CC(=O)N[C@H]1[C@H](O)[C@H](O)[C@@H](CO)O[C@H]1O (nonaromatic ring conformer: 24.332941190141852 kcal/mol)

$$$$
11908605
     RDKit          3D

 30 30  0  0  0  0  0  0  0  0999 V2000
   -4.0995    1.0220    0.1418 H   0  0  0  0  0  0  0  0  0  0  0  0
   -3.2098    0.6056   -0.1053 O   0  0  0  0  0  0  0  0  0  0  0  0
   -2.0882    0.7649    0.7078 C   0  0  0  0  0  0  0  0  0  0  0  0
   -0.9547    0.2130    0.3923 N   0  0  0  0  0  0  0  0  0  0  0  0
   -0.7277   -0.6146   -0.7969 C   0  0  1  0  0  0  0  0  0  0  0  0
   -1.3445   -0.2356   -1.6430 H   0  0  0  0  0  0  0  0  0  0  0  0
    0.7562   -0.5203   -1.2019 C   0  0  2  0  0  0  0  0  0  0  0  0
    1.0632    0.5522   -1.2278 H   0  0  0  0  0  0  0  0  0  0  0  0
    0.9447   -1.0865   -2.4755 O   0  0  0  0  0  0  0  0  0  0  0  0
    0.6034   -0.4287   -3.1363 H   0  0  0  0  0  0  0  0  0  0  0  0
    1.6430   -1.2489   -0.1748 C   0  0  2  0  0  0  0  0  0  0  0  0
    1.6146   -0.6644    0.7771 H   0  0  0  0  0  0  0  0  0  0  0  0
    2.9583   -1.3150   -0.6686 O   0  0  0  0  0  0  0  0  0  0  0  0
    3.5696   -1.2133    0.1070 H   0  0  0  0  0  0  0  0  0  0  0  0
    1.0915   -2.6719    0.0931 C   0  0  1  0  0  0  0  0  0  0  0  0
    1.1781   -3.2871   -0.8337 H   0  0  0  0  0  0  0  0  0  0  0  0
    1.9108   -3.3802    1.1821 C   0  0  0  0  0  0  0  0  0  0  0  0
    2.9704   -3.4632    0.8608 H   0  0  0  0  0  0  0  0  0  0  0  0
    1.8877   -2.7938    2.1299 H   0  0  0  0  0  0  0  0  0  0  0  0
    1.4221   -4.6777    1.3946 O   0  0  0  0  0  0  0  0  0  0  0  0
    0.6485   -4.5959    2.0114 H   0  0  0  0  0  0  0  0  0  0  0  0
   -0.2602   -2.6035    0.5208 O   0  0  0  0  0  0  0  0  0  0  0  0
   -1.0859   -2.0920   -0.5097 C   0  0  1  0  0  0  0  0  0  0  0  0
   -0.9573   -2.6989   -1.4401 H   0  0  0  0  0  0  0  0  0  0  0  0
   -2.4229   -2.1972   -0.0994 O   0  0  0  0  0  0  0  0  0  0  0  0
   -2.9834   -2.0778   -0.9106 H   0  0  0  0  0  0  0  0  0  0  0  0
   -2.1929    1.5616    1.9681 C   0  0  0  0  0  0  0  0  0  0  0  0
   -1.1849    1.8404    2.3432 H   0  0  0  0  0  0  0  0  0  0  0  0
   -2.7701    2.4903    1.7775 H   0  0  0  0  0  0  0  0  0  0  0  0
   -2.7145    0.9603    2.7412 H   0  0  0  0  0  0  0  0  0  0  0  0
  1  2  1  0
  2  3  1  0
  3  4  2  0
  4  5  1  0
  5  6  1  6
  5  7  1  0
  7  8  1  6
  7  9  1  0
  9 10  1  0
  7 11  1  0
 11 12  1  1
 11 13  1  0
 13 14  1  0
 11 15  1  0
 15 16  1  6
 15 17  1  0
 17 18  1  0
 17 19  1  0
 17 20  1  0
 20 21  1  0
 15 22  1  0
 22 23  1  0
 23 24  1  6
 23 25  1  0
 25 26  1  0
  3 27  1  0
 27 28  1  0
 27 29  1  0
 27 30  1  0
 23  5  1  0
M  END
>  <UniqueID>  (126) 
125

>  <SMILES>  (126) 
C/C(O)=N\[C@H]1[C@H](O)[C@H](O)[C@@H](CO)O[C@H]1O

>  <Energy>  (126) 
25.420206933135347

>  <Genealogy>  (126) 
CC(O)=N[C@H]1[C@H](O)[C@H](O)[C@@H](CO)O[C@H]1O (tautomer)
C/C(O)=N\[C@H]1[C@H](O)[C@H](O)[C@@H](CO)O[C@H]1O (cis-trans isomerization)
C/C(O)=N\[C@H]1[C@H](O)[C@H](O)[C@@H](CO)O[C@H]1O (3D coordinates assigned)
C/C(O)=N\[C@H]1[C@H](O)[C@H](O)[C@@H](CO)O[C@H]1O (nonaromatic ring conformer: 25.420206933135347 kcal/mol)

$$$$
11908605
     RDKit          3D

 30 30  0  0  0  0  0  0  0  0999 V2000
    2.8049   -1.9082   -2.1142 H   0  0  0  0  0  0  0  0  0  0  0  0
    2.6843   -1.0420   -2.6261 O   0  0  0  0  0  0  0  0  0  0  0  0
    2.0241    0.0435   -2.0576 C   0  0  0  0  0  0  0  0  0  0  0  0
    1.5690   -0.0587   -0.8404 N   0  0  0  0  0  0  0  0  0  0  0  0
    0.8357    0.9692   -0.0915 C   0  0  1  0  0  0  0  0  0  0  0  0
    1.2092    1.9812   -0.3637 H   0  0  0  0  0  0  0  0  0  0  0  0
   -0.6735    0.8762   -0.3916 C   0  0  2  0  0  0  0  0  0  0  0  0
   -0.8198    0.8198   -1.4954 H   0  0  0  0  0  0  0  0  0  0  0  0
   -1.3096    2.0251    0.1131 O   0  0  0  0  0  0  0  0  0  0  0  0
   -2.0990    2.2006   -0.4630 H   0  0  0  0  0  0  0  0  0  0  0  0
   -1.2693   -0.3995    0.2464 C   0  0  2  0  0  0  0  0  0  0  0  0
   -0.8581   -1.2746   -0.3042 H   0  0  0  0  0  0  0  0  0  0  0  0
   -2.6676   -0.4244    0.0911 O   0  0  0  0  0  0  0  0  0  0  0  0
   -3.0553    0.2547    0.7023 H   0  0  0  0  0  0  0  0  0  0  0  0
   -0.8403   -0.5237    1.7354 C   0  0  1  0  0  0  0  0  0  0  0  0
   -1.2890    0.3040    2.3339 H   0  0  0  0  0  0  0  0  0  0  0  0
   -1.3201   -1.8467    2.3510 C   0  0  0  0  0  0  0  0  0  0  0  0
   -0.8568   -1.9623    3.3542 H   0  0  0  0  0  0  0  0  0  0  0  0
   -0.9798   -2.7100    1.7313 H   0  0  0  0  0  0  0  0  0  0  0  0
   -2.7139   -1.8440    2.5186 O   0  0  0  0  0  0  0  0  0  0  0  0
   -3.0947   -2.4312    1.8148 H   0  0  0  0  0  0  0  0  0  0  0  0
    0.5740   -0.4869    1.8378 O   0  0  0  0  0  0  0  0  0  0  0  0
    1.0746    0.7712    1.4172 C   0  0  1  0  0  0  0  0  0  0  0  0
    0.5847    1.6024    1.9809 H   0  0  0  0  0  0  0  0  0  0  0  0
    2.4520    0.8253    1.6730 O   0  0  0  0  0  0  0  0  0  0  0  0
    2.5558    0.7902    2.6597 H   0  0  0  0  0  0  0  0  0  0  0  0
    1.8913    1.3012   -2.8662 C   0  0  0  0  0  0  0  0  0  0  0  0
    2.4886    2.1131   -2.4016 H   0  0  0  0  0  0  0  0  0  0  0  0
    0.8299    1.6122   -2.9396 H   0  0  0  0  0  0  0  0  0  0  0  0
    2.2735    1.1314   -3.8946 H   0  0  0  0  0  0  0  0  0  0  0  0
  1  2  1  0
  2  3  1  0
  3  4  2  0
  4  5  1  0
  5  6  1  6
  5  7  1  0
  7  8  1  6
  7  9  1  0
  9 10  1  0
  7 11  1  0
 11 12  1  6
 11 13  1  0
 13 14  1  0
 11 15  1  0
 15 16  1  1
 15 17  1  0
 17 18  1  0
 17 19  1  0
 17 20  1  0
 20 21  1  0
 15 22  1  0
 22 23  1  0
 23 24  1  1
 23 25  1  0
 25 26  1  0
  3 27  1  0
 27 28  1  0
 27 29  1  0
 27 30  1  0
 23  5  1  0
M  END
>  <UniqueID>  (127) 
126

>  <SMILES>  (127) 
C/C(O)=N/[C@H]1[C@H](O)[C@H](O)[C@@H](CO)O[C@H]1O

>  <Energy>  (127) 
28.45710391518813

>  <Genealogy>  (127) 
CC(O)=N[C@H]1[C@H](O)[C@H](O)[C@@H](CO)O[C@H]1O (tautomer)
C/C(O)=N/[C@H]1[C@H](O)[C@H](O)[C@@H](CO)O[C@H]1O (cis-trans isomerization)
C/C(O)=N/[C@H]1[C@H](O)[C@H](O)[C@@H](CO)O[C@H]1O (3D coordinates assigned)
C/C(O)=N/[C@H]1[C@H](O)[C@H](O)[C@@H](CO)O[C@H]1O (nonaromatic ring conformer: 28.45710391518813 kcal/mol)

$$$$
11096158
     RDKit          3D

 30 30  0  0  0  0  0  0  0  0999 V2000
   -2.9222   -1.9299    3.1009 H   0  0  0  0  0  0  0  0  0  0  0  0
   -2.3494   -1.7693    2.2811 O   0  0  0  0  0  0  0  0  0  0  0  0
   -0.9723   -1.5769    2.3888 C   0  0  0  0  0  0  0  0  0  0  0  0
   -0.2427   -1.3940    1.3291 N   0  0  0  0  0  0  0  0  0  0  0  0
   -0.7597   -1.3285   -0.0422 C   0  0  2  0  0  0  0  0  0  0  0  0
   -1.6209   -2.0244   -0.1603 H   0  0  0  0  0  0  0  0  0  0  0  0
    0.3482   -1.7631   -1.0245 C   0  0  2  0  0  0  0  0  0  0  0  0
   -0.0556   -1.7806   -2.0672 H   0  0  0  0  0  0  0  0  0  0  0  0
    0.7904   -3.0545   -0.6994 O   0  0  0  0  0  0  0  0  0  0  0  0
    0.0750   -3.6838   -0.9796 H   0  0  0  0  0  0  0  0  0  0  0  0
    1.4533   -0.8791   -0.9448 O   0  0  0  0  0  0  0  0  0  0  0  0
    1.0953    0.4153   -1.4034 C   0  0  2  0  0  0  0  0  0  0  0  0
    0.7073    0.3578   -2.4478 H   0  0  0  0  0  0  0  0  0  0  0  0
    2.3584    1.2843   -1.4502 C   0  0  0  0  0  0  0  0  0  0  0  0
    3.0812    0.8301   -2.1646 H   0  0  0  0  0  0  0  0  0  0  0  0
    2.1053    2.3044   -1.8166 H   0  0  0  0  0  0  0  0  0  0  0  0
    2.9453    1.3638   -0.1798 O   0  0  0  0  0  0  0  0  0  0  0  0
    3.7482    1.9378   -0.2831 H   0  0  0  0  0  0  0  0  0  0  0  0
    0.0128    1.0402   -0.4832 C   0  0  1  0  0  0  0  0  0  0  0  0
    0.4351    1.1560    0.5395 H   0  0  0  0  0  0  0  0  0  0  0  0
   -0.3722    2.3148   -0.9375 O   0  0  0  0  0  0  0  0  0  0  0  0
   -0.7238    2.2127   -1.8606 H   0  0  0  0  0  0  0  0  0  0  0  0
   -1.2089    0.1059   -0.3969 C   0  0  2  0  0  0  0  0  0  0  0  0
   -1.7036    0.0811   -1.3976 H   0  0  0  0  0  0  0  0  0  0  0  0
   -2.1130    0.6011    0.5562 O   0  0  0  0  0  0  0  0  0  0  0  0
   -2.9852    0.1618    0.3774 H   0  0  0  0  0  0  0  0  0  0  0  0
   -0.3182   -1.6233    3.7317 C   0  0  0  0  0  0  0  0  0  0  0  0
   -0.9644   -1.1231    4.4830 H   0  0  0  0  0  0  0  0  0  0  0  0
   -0.1636   -2.6809    4.0299 H   0  0  0  0  0  0  0  0  0  0  0  0
    0.6636   -1.1038    3.7074 H   0  0  0  0  0  0  0  0  0  0  0  0
  1  2  1  0
  2  3  1  0
  3  4  2  0
  4  5  1  0
  5  6  1  1
  5  7  1  0
  7  8  1  6
  7  9  1  0
  9 10  1  0
  7 11  1  0
 11 12  1  0
 12 13  1  6
 12 14  1  0
 14 15  1  0
 14 16  1  0
 14 17  1  0
 17 18  1  0
 12 19  1  0
 19 20  1  1
 19 21  1  0
 21 22  1  0
 19 23  1  0
 23 24  1  6
 23 25  1  0
 25 26  1  0
  3 27  1  0
 27 28  1  0
 27 29  1  0
 27 30  1  0
 23  5  1  0
M  END
>  <UniqueID>  (128) 
127

>  <SMILES>  (128) 
C/C(O)=N/[C@@H]1[C@H](O)O[C@H](CO)[C@@H](O)[C@@H]1O

>  <Energy>  (128) 
24.971549740783612

>  <Genealogy>  (128) 
CC(O)=N[C@@H]1[C@H](O)O[C@H](CO)[C@@H](O)[C@@H]1O (tautomer)
C/C(O)=N/[C@@H]1[C@H](O)O[C@H](CO)[C@@H](O)[C@@H]1O (cis-trans isomerization)
C/C(O)=N/[C@@H]1[C@H](O)O[C@H](CO)[C@@H](O)[C@@H]1O (3D coordinates assigned)
C/C(O)=N/[C@@H]1[C@H](O)O[C@H](CO)[C@@H](O)[C@@H]1O (nonaromatic ring conformer: 24.971549740783612 kcal/mol)

$$$$
11096158
     RDKit          3D

 30 30  0  0  0  0  0  0  0  0999 V2000
   -2.2856    1.1269    4.1295 H   0  0  0  0  0  0  0  0  0  0  0  0
   -2.2987    2.0640    3.7440 O   0  0  0  0  0  0  0  0  0  0  0  0
   -1.6458    2.3600    2.5508 C   0  0  0  0  0  0  0  0  0  0  0  0
   -0.9986    1.4128    1.9319 N   0  0  0  0  0  0  0  0  0  0  0  0
   -0.2668    1.5256    0.6630 C   0  0  2  0  0  0  0  0  0  0  0  0
    0.0241    2.5794    0.4618 H   0  0  0  0  0  0  0  0  0  0  0  0
   -1.1343    1.0055   -0.5005 C   0  0  2  0  0  0  0  0  0  0  0  0
   -0.5833    1.1552   -1.4612 H   0  0  0  0  0  0  0  0  0  0  0  0
   -2.3241    1.7430   -0.5624 O   0  0  0  0  0  0  0  0  0  0  0  0
   -2.7999    1.4405   -1.3794 H   0  0  0  0  0  0  0  0  0  0  0  0
   -1.4489   -0.3639   -0.3068 O   0  0  0  0  0  0  0  0  0  0  0  0
   -0.2817   -1.1649   -0.3993 C   0  0  2  0  0  0  0  0  0  0  0  0
    0.2144   -1.0034   -1.3855 H   0  0  0  0  0  0  0  0  0  0  0  0
   -0.7151   -2.6389   -0.3371 C   0  0  0  0  0  0  0  0  0  0  0  0
   -1.5305   -2.8212   -1.0742 H   0  0  0  0  0  0  0  0  0  0  0  0
   -1.1232   -2.8703    0.6701 H   0  0  0  0  0  0  0  0  0  0  0  0
    0.3614   -3.4987   -0.5994 O   0  0  0  0  0  0  0  0  0  0  0  0
    0.5300   -3.4538   -1.5767 H   0  0  0  0  0  0  0  0  0  0  0  0
    0.7008   -0.8147    0.7516 C   0  0  1  0  0  0  0  0  0  0  0  0
    0.2090   -1.0557    1.7203 H   0  0  0  0  0  0  0  0  0  0  0  0
    1.8843   -1.5703    0.6694 O   0  0  0  0  0  0  0  0  0  0  0  0
    2.3042   -1.3781   -0.2098 H   0  0  0  0  0  0  0  0  0  0  0  0
    1.0268    0.6920    0.7346 C   0  0  2  0  0  0  0  0  0  0  0  0
    1.6383    0.9107   -0.1733 H   0  0  0  0  0  0  0  0  0  0  0  0
    1.7643    1.0258    1.8826 O   0  0  0  0  0  0  0  0  0  0  0  0
    2.1518    1.9257    1.7217 H   0  0  0  0  0  0  0  0  0  0  0  0
   -1.6953    3.7713    2.0432 C   0  0  0  0  0  0  0  0  0  0  0  0
   -2.3665    4.3807    2.6840 H   0  0  0  0  0  0  0  0  0  0  0  0
   -0.6801    4.2192    2.0754 H   0  0  0  0  0  0  0  0  0  0  0  0
   -2.0864    3.8011    1.0062 H   0  0  0  0  0  0  0  0  0  0  0  0
  1  2  1  0
  2  3  1  0
  3  4  2  0
  4  5  1  0
  5  6  1  6
  5  7  1  0
  7  8  1  6
  7  9  1  0
  9 10  1  0
  7 11  1  0
 11 12  1  0
 12 13  1  6
 12 14  1  0
 14 15  1  0
 14 16  1  0
 14 17  1  0
 17 18  1  0
 12 19  1  0
 19 20  1  1
 19 21  1  0
 21 22  1  0
 19 23  1  0
 23 24  1  6
 23 25  1  0
 25 26  1  0
  3 27  1  0
 27 28  1  0
 27 29  1  0
 27 30  1  0
 23  5  1  0
M  END
>  <UniqueID>  (129) 
128

>  <SMILES>  (129) 
C/C(O)=N\[C@@H]1[C@H](O)O[C@H](CO)[C@@H](O)[C@@H]1O

>  <Energy>  (129) 
27.770184309920257

>  <Genealogy>  (129) 
CC(O)=N[C@@H]1[C@H](O)O[C@H](CO)[C@@H](O)[C@@H]1O (tautomer)
C/C(O)=N\[C@@H]1[C@H](O)O[C@H](CO)[C@@H](O)[C@@H]1O (cis-trans isomerization)
C/C(O)=N\[C@@H]1[C@H](O)O[C@H](CO)[C@@H](O)[C@@H]1O (3D coordinates assigned)
C/C(O)=N\[C@@H]1[C@H](O)O[C@H](CO)[C@@H](O)[C@@H]1O (nonaromatic ring conformer: 27.770184309920257 kcal/mol)

$$$$
11096158
     RDKit          3D

 30 30  0  0  0  0  0  0  0  0999 V2000
    2.5220   -0.8544    2.9993 C   0  0  0  0  0  0  0  0  0  0  0  0
    1.8016   -1.2015    1.7375 C   0  0  0  0  0  0  0  0  0  0  0  0
    1.3499   -2.3681    1.5800 O   0  0  0  0  0  0  0  0  0  0  0  0
    1.6650   -0.2213    0.6990 N   0  0  0  0  0  0  0  0  0  0  0  0
    0.9430   -0.4962   -0.5502 C   0  0  2  0  0  0  0  0  0  0  0  0
    1.2845    0.5481   -1.6326 C   0  0  2  0  0  0  0  0  0  0  0  0
    1.0584    1.8558   -1.1737 O   0  0  0  0  0  0  0  0  0  0  0  0
    0.6034    0.3059   -2.8580 O   0  0  0  0  0  0  0  0  0  0  0  0
   -0.8152    0.2246   -2.7393 C   0  0  2  0  0  0  0  0  0  0  0  0
   -1.4954    1.6082   -2.6648 C   0  0  0  0  0  0  0  0  0  0  0  0
   -1.1179    2.3989   -3.7596 O   0  0  0  0  0  0  0  0  0  0  0  0
   -1.2971   -0.7662   -1.6482 C   0  0  1  0  0  0  0  0  0  0  0  0
   -1.0678   -2.0783   -2.0997 O   0  0  0  0  0  0  0  0  0  0  0  0
   -0.5746   -0.5498   -0.3095 C   0  0  2  0  0  0  0  0  0  0  0  0
   -1.0335    0.6324    0.2968 O   0  0  0  0  0  0  0  0  0  0  0  0
    2.1607    0.1237    3.3801 H   0  0  0  0  0  0  0  0  0  0  0  0
    3.6111   -0.7884    2.7966 H   0  0  0  0  0  0  0  0  0  0  0  0
    2.3428   -1.6280    3.7759 H   0  0  0  0  0  0  0  0  0  0  0  0
    2.1388    0.7009    0.8329 H   0  0  0  0  0  0  0  0  0  0  0  0
    1.2767   -1.4863   -0.9359 H   0  0  0  0  0  0  0  0  0  0  0  0
    2.3740    0.4367   -1.8385 H   0  0  0  0  0  0  0  0  0  0  0  0
    1.5093    2.4622   -1.8172 H   0  0  0  0  0  0  0  0  0  0  0  0
   -1.1725   -0.2028   -3.7028 H   0  0  0  0  0  0  0  0  0  0  0  0
   -2.5965    1.4684   -2.7113 H   0  0  0  0  0  0  0  0  0  0  0  0
   -1.2890    2.1371   -1.7117 H   0  0  0  0  0  0  0  0  0  0  0  0
   -0.2388    2.7997   -3.5347 H   0  0  0  0  0  0  0  0  0  0  0  0
   -2.3935   -0.6260   -1.4941 H   0  0  0  0  0  0  0  0  0  0  0  0
   -1.6519   -2.6766   -1.5638 H   0  0  0  0  0  0  0  0  0  0  0  0
   -0.8128   -1.4157    0.3520 H   0  0  0  0  0  0  0  0  0  0  0  0
   -0.8412    0.5557    1.2678 H   0  0  0  0  0  0  0  0  0  0  0  0
  1  2  1  0
  2  3  2  0
  2  4  1  0
  4  5  1  0
  5  6  1  0
  6  7  1  0
  6  8  1  0
  8  9  1  0
  9 10  1  0
 10 11  1  0
  9 12  1  0
 12 13  1  0
 12 14  1  0
 14 15  1  0
 14  5  1  0
  1 16  1  0
  1 17  1  0
  1 18  1  0
  4 19  1  0
  5 20  1  6
  6 21  1  6
  7 22  1  0
  9 23  1  6
 10 24  1  0
 10 25  1  0
 11 26  1  0
 12 27  1  1
 13 28  1  0
 14 29  1  1
 15 30  1  0
M  END
>  <UniqueID>  (130) 
129

>  <SMILES>  (130) 
CC(=O)N[C@@H]1[C@H](O)O[C@H](CO)[C@@H](O)[C@@H]1O

>  <Energy>  (130) 
31.70961168976461

>  <Genealogy>  (130) 
CC(=O)N[C@@H]1[C@H](O)O[C@H](CO)[C@@H](O)[C@@H]1O (3D coordinates assigned)
CC(=O)N[C@@H]1[C@H](O)O[C@H](CO)[C@@H](O)[C@@H]1O (nonaromatic ring conformer: 31.70961168976461 kcal/mol)

$$$$
9816401
     RDKit          3D

 33 33  0  0  0  0  0  0  0  0999 V2000
    3.8514   -0.8142    0.2055 C   0  0  0  0  0  0  0  0  0  0  0  0
    2.6476    0.0898   -0.0510 C   0  0  1  0  0  0  0  0  0  0  0  0
    1.5696   -0.3467    0.7606 O   0  0  0  0  0  0  0  0  0  0  0  0
    0.3080   -0.0229    0.1917 C   0  0  1  0  0  0  0  0  0  0  0  0
   -0.2840   -1.2748   -0.4832 C   0  0  2  0  0  0  0  0  0  0  0  0
    0.4956   -1.6070   -1.6049 O   0  0  0  0  0  0  0  0  0  0  0  0
   -1.7429   -0.9996   -0.9181 C   0  0  1  0  0  0  0  0  0  0  0  0
   -2.3720   -2.2546   -1.5424 C   0  0  0  0  0  0  0  0  0  0  0  0
   -3.7081   -2.0112   -1.8916 O   0  0  0  0  0  0  0  0  0  0  0  0
   -2.5355   -0.6123    0.1946 O   0  0  0  0  0  0  0  0  0  0  0  0
   -2.0772    0.6002    0.7692 C   0  0  2  0  0  0  0  0  0  0  0  0
   -2.1710    1.6550   -0.1595 O   0  0  0  0  0  0  0  0  0  0  0  0
   -0.6380    0.4449    1.3141 C   0  0  2  0  0  0  0  0  0  0  0  0
   -0.1677    1.7088    1.8867 N   0  0  0  0  0  0  0  0  0  0  0  0
    2.9961    1.5149    0.2747 C   0  0  0  0  0  0  0  0  0  0  0  0
    3.3069    1.8436    1.4504 O   0  0  0  0  0  0  0  0  0  0  0  0
    2.9748    2.4800   -0.7241 O   0  0  0  0  0  1  0  0  0  0  0  0
    4.7180   -0.4873   -0.4087 H   0  0  0  0  0  0  0  0  0  0  0  0
    3.5984   -1.8598   -0.0714 H   0  0  0  0  0  0  0  0  0  0  0  0
    4.1369   -0.7919    1.2794 H   0  0  0  0  0  0  0  0  0  0  0  0
    2.4188    0.0088   -1.1393 H   0  0  0  0  0  0  0  0  0  0  0  0
    0.3669    0.8043   -0.5590 H   0  0  0  0  0  0  0  0  0  0  0  0
   -0.2771   -2.1077    0.2625 H   0  0  0  0  0  0  0  0  0  0  0  0
    0.5535   -2.5974   -1.6413 H   0  0  0  0  0  0  0  0  0  0  0  0
   -1.7507   -0.2068   -1.7017 H   0  0  0  0  0  0  0  0  0  0  0  0
   -1.8000   -2.5755   -2.4425 H   0  0  0  0  0  0  0  0  0  0  0  0
   -2.3472   -3.0884   -0.8083 H   0  0  0  0  0  0  0  0  0  0  0  0
   -3.6903   -1.4548   -2.7138 H   0  0  0  0  0  0  0  0  0  0  0  0
   -2.7477    0.8164    1.6331 H   0  0  0  0  0  0  0  0  0  0  0  0
   -2.2262    2.4985    0.3608 H   0  0  0  0  0  0  0  0  0  0  0  0
   -0.6553   -0.3308    2.1152 H   0  0  0  0  0  0  0  0  0  0  0  0
   -0.8371    2.0015    2.6354 H   0  0  0  0  0  0  0  0  0  0  0  0
    0.7384    1.5311    2.3768 H   0  0  0  0  0  0  0  0  0  0  0  0
  1  2  1  0
  2  3  1  0
  3  4  1  0
  4  5  1  0
  5  6  1  0
  5  7  1  0
  7  8  1  0
  8  9  1  0
  7 10  1  0
 10 11  1  0
 11 12  1  0
 11 13  1  0
 13 14  1  0
  2 15  1  0
 15 16  2  0
 15 17  1  0
 13  4  1  0
  1 18  1  0
  1 19  1  0
  1 20  1  0
  2 21  1  6
  4 22  1  6
  5 23  1  1
  6 24  1  0
  7 25  1  6
  8 26  1  0
  8 27  1  0
  9 28  1  0
 11 29  1  1
 12 30  1  0
 13 31  1  1
 14 32  1  0
 14 33  1  0
M  CHG  1  17  -1
M  END
>  <UniqueID>  (131) 
130

>  <SMILES>  (131) 
C[C@@H](O[C@H]1[C@H](O)[C@@H](CO)O[C@H](O)[C@@H]1N)C(=O)[O-]

>  <Energy>  (131) 
31.35027028672537

>  <Genealogy>  (131) 
C[C@@H](O[C@H]1[C@H](O)[C@@H](CO)O[C@H](O)[C@@H]1N)C(=O)[O-] (protonated)
C[C@@H](O[C@H]1[C@H](O)[C@@H](CO)O[C@H](O)[C@@H]1N)C(=O)[O-] (3D coordinates assigned)
C[C@@H](O[C@H]1[C@H](O)[C@@H](CO)O[C@H](O)[C@@H]1N)C(=O)[O-] (nonaromatic ring conformer: 31.35027028672537 kcal/mol)

$$$$
9816401
     RDKit          3D

 33 33  0  0  0  0  0  0  0  0999 V2000
    3.7395   -0.9101    0.0553 C   0  0  0  0  0  0  0  0  0  0  0  0
    2.5483    0.0252   -0.1409 C   0  0  1  0  0  0  0  0  0  0  0  0
    1.4978   -0.3893    0.7170 O   0  0  0  0  0  0  0  0  0  0  0  0
    0.2219   -0.0059    0.2218 C   0  0  1  0  0  0  0  0  0  0  0  0
   -0.4761   -1.2286   -0.4077 C   0  0  2  0  0  0  0  0  0  0  0  0
    0.2052   -1.6115   -1.5753 O   0  0  0  0  0  0  0  0  0  0  0  0
   -1.9456   -0.8788   -0.7514 C   0  0  1  0  0  0  0  0  0  0  0  0
   -2.6922   -2.0971   -1.3223 C   0  0  0  0  0  0  0  0  0  0  0  0
   -2.1909   -2.4604   -2.5809 O   0  0  0  0  0  0  0  0  0  0  0  0
   -2.6447   -0.4505    0.4083 O   0  0  0  0  0  0  0  0  0  0  0  0
   -2.0885    0.7377    0.9501 C   0  0  2  0  0  0  0  0  0  0  0  0
   -2.1797    1.8048    0.0383 O   0  0  0  0  0  0  0  0  0  0  0  0
   -0.6324    0.5111    1.3979 C   0  0  2  0  0  0  0  0  0  0  0  0
   -0.0830    1.7439    1.9699 N   0  0  0  0  0  0  0  0  0  0  0  0
    2.9485    1.4392    0.1745 C   0  0  0  0  0  0  0  0  0  0  0  0
    3.3268    1.7523    1.3345 O   0  0  0  0  0  0  0  0  0  0  0  0
    2.8989    2.4116   -0.8162 O   0  0  0  0  0  1  0  0  0  0  0  0
    3.4481   -1.9477   -0.2135 H   0  0  0  0  0  0  0  0  0  0  0  0
    4.5844   -0.6019   -0.5975 H   0  0  0  0  0  0  0  0  0  0  0  0
    4.0752   -0.9007    1.1147 H   0  0  0  0  0  0  0  0  0  0  0  0
    2.2657   -0.0449   -1.2175 H   0  0  0  0  0  0  0  0  0  0  0  0
    0.2737    0.8089   -0.5426 H   0  0  0  0  0  0  0  0  0  0  0  0
   -0.4780   -2.0662    0.3317 H   0  0  0  0  0  0  0  0  0  0  0  0
    0.9244   -2.2378   -1.2996 H   0  0  0  0  0  0  0  0  0  0  0  0
   -1.9682   -0.0828   -1.5314 H   0  0  0  0  0  0  0  0  0  0  0  0
   -3.7792   -1.8662   -1.4036 H   0  0  0  0  0  0  0  0  0  0  0  0
   -2.5899   -2.9609   -0.6311 H   0  0  0  0  0  0  0  0  0  0  0  0
   -2.5319   -1.7889   -3.2279 H   0  0  0  0  0  0  0  0  0  0  0  0
   -2.6754    1.0004    1.8594 H   0  0  0  0  0  0  0  0  0  0  0  0
   -3.1482    1.9594   -0.1146 H   0  0  0  0  0  0  0  0  0  0  0  0
   -0.6454   -0.2678    2.1947 H   0  0  0  0  0  0  0  0  0  0  0  0
    0.8192    1.5186    2.4476 H   0  0  0  0  0  0  0  0  0  0  0  0
    0.1280    2.4265    1.2057 H   0  0  0  0  0  0  0  0  0  0  0  0
  1  2  1  0
  2  3  1  0
  3  4  1  0
  4  5  1  0
  5  6  1  0
  5  7  1  0
  7  8  1  0
  8  9  1  0
  7 10  1  0
 10 11  1  0
 11 12  1  0
 11 13  1  0
 13 14  1  0
  2 15  1  0
 15 16  2  0
 15 17  1  0
 13  4  1  0
  1 18  1  0
  1 19  1  0
  1 20  1  0
  2 21  1  6
  4 22  1  6
  5 23  1  1
  6 24  1  0
  7 25  1  6
  8 26  1  0
  8 27  1  0
  9 28  1  0
 11 29  1  1
 12 30  1  0
 13 31  1  1
 14 32  1  0
 14 33  1  0
M  CHG  1  17  -1
M  END
>  <UniqueID>  (132) 
131

>  <SMILES>  (132) 
C[C@@H](O[C@H]1[C@H](O)[C@@H](CO)O[C@H](O)[C@@H]1N)C(=O)[O-]

>  <Energy>  (132) 
31.52152070643314

>  <Genealogy>  (132) 
C[C@@H](O[C@H]1[C@H](O)[C@@H](CO)O[C@H](O)[C@@H]1N)C(=O)[O-] (protonated)
C[C@@H](O[C@H]1[C@H](O)[C@@H](CO)O[C@H](O)[C@@H]1N)C(=O)[O-] (3D coordinates assigned)
C[C@@H](O[C@H]1[C@H](O)[C@@H](CO)O[C@H](O)[C@@H]1N)C(=O)[O-] (nonaromatic ring conformer: 31.52152070643314 kcal/mol)

$$$$
9816401
     RDKit          3D

 33 33  0  0  0  0  0  0  0  0999 V2000
    3.9012   -0.7588    0.8447 C   0  0  0  0  0  0  0  0  0  0  0  0
    2.7456   -0.0086    0.1875 C   0  0  1  0  0  0  0  0  0  0  0  0
    1.5524   -0.3039    0.8932 O   0  0  0  0  0  0  0  0  0  0  0  0
    0.3931   -0.0619    0.1068 C   0  0  1  0  0  0  0  0  0  0  0  0
   -0.2455   -1.4017   -0.3000 C   0  0  2  0  0  0  0  0  0  0  0  0
    0.6454   -2.1504   -1.0880 O   0  0  0  0  0  0  0  0  0  0  0  0
   -1.5470   -1.1289   -1.1106 C   0  0  1  0  0  0  0  0  0  0  0  0
   -2.5180   -2.3152   -1.0375 C   0  0  0  0  0  0  0  0  0  0  0  0
   -3.6272   -2.0696   -1.8569 O   0  0  0  0  0  0  0  0  0  0  0  0
   -2.2127    0.0837   -0.7617 O   0  0  0  0  0  0  0  0  0  0  0  0
   -2.0800    0.3880    0.6153 C   0  0  2  0  0  0  0  0  0  0  0  0
   -2.9501    1.4371    0.9461 O   0  0  0  0  0  0  0  0  0  0  0  0
   -0.6099    0.7743    0.9418 C   0  0  2  0  0  0  0  0  0  0  0  0
   -0.3500    2.2015    0.7223 N   0  0  0  0  0  0  0  0  0  0  0  0
    3.0205    1.4691    0.2171 C   0  0  0  0  0  0  0  0  0  0  0  0
    2.9173    2.1150    1.2936 O   0  0  0  0  0  0  0  0  0  0  0  0
    3.4185    2.1242   -0.9412 O   0  0  0  0  0  1  0  0  0  0  0  0
    3.7097   -1.8521    0.8020 H   0  0  0  0  0  0  0  0  0  0  0  0
    4.0069   -0.4586    1.9096 H   0  0  0  0  0  0  0  0  0  0  0  0
    4.8526   -0.5473    0.3106 H   0  0  0  0  0  0  0  0  0  0  0  0
    2.6965   -0.3597   -0.8703 H   0  0  0  0  0  0  0  0  0  0  0  0
    0.6070    0.5006   -0.8369 H   0  0  0  0  0  0  0  0  0  0  0  0
   -0.4976   -1.9708    0.6279 H   0  0  0  0  0  0  0  0  0  0  0  0
    1.2618   -2.6171   -0.4652 H   0  0  0  0  0  0  0  0  0  0  0  0
   -1.2505   -1.0207   -2.1778 H   0  0  0  0  0  0  0  0  0  0  0  0
   -2.8550   -2.4705    0.0113 H   0  0  0  0  0  0  0  0  0  0  0  0
   -1.9995   -3.2377   -1.3834 H   0  0  0  0  0  0  0  0  0  0  0  0
   -4.2154   -2.8642   -1.7697 H   0  0  0  0  0  0  0  0  0  0  0  0
   -2.3623   -0.4952    1.2377 H   0  0  0  0  0  0  0  0  0  0  0  0
   -3.8707    1.0954    0.7999 H   0  0  0  0  0  0  0  0  0  0  0  0
   -0.4449    0.5542    2.0216 H   0  0  0  0  0  0  0  0  0  0  0  0
   -0.8528    2.7581    1.4512 H   0  0  0  0  0  0  0  0  0  0  0  0
   -0.7243    2.4847   -0.2130 H   0  0  0  0  0  0  0  0  0  0  0  0
  1  2  1  0
  2  3  1  0
  3  4  1  0
  4  5  1  0
  5  6  1  0
  5  7  1  0
  7  8  1  0
  8  9  1  0
  7 10  1  0
 10 11  1  0
 11 12  1  0
 11 13  1  0
 13 14  1  0
  2 15  1  0
 15 16  2  0
 15 17  1  0
 13  4  1  0
  1 18  1  0
  1 19  1  0
  1 20  1  0
  2 21  1  6
  4 22  1  6
  5 23  1  1
  6 24  1  0
  7 25  1  6
  8 26  1  0
  8 27  1  0
  9 28  1  0
 11 29  1  1
 12 30  1  0
 13 31  1  1
 14 32  1  0
 14 33  1  0
M  CHG  1  17  -1
M  END
>  <UniqueID>  (133) 
132

>  <SMILES>  (133) 
C[C@@H](O[C@H]1[C@H](O)[C@@H](CO)O[C@H](O)[C@@H]1N)C(=O)[O-]

>  <Energy>  (133) 
38.6253075061694

>  <Genealogy>  (133) 
C[C@@H](O[C@H]1[C@H](O)[C@@H](CO)O[C@H](O)[C@@H]1N)C(=O)[O-] (protonated)
C[C@@H](O[C@H]1[C@H](O)[C@@H](CO)O[C@H](O)[C@@H]1N)C(=O)[O-] (3D coordinates assigned)
C[C@@H](O[C@H]1[C@H](O)[C@@H](CO)O[C@H](O)[C@@H]1N)C(=O)[O-] (nonaromatic ring conformer: 38.6253075061694 kcal/mol)

$$$$
7067772
     RDKit          3D

 34 34  0  0  0  0  0  0  0  0999 V2000
   -1.9693   -0.1568   -3.1332 H   0  0  0  0  0  0  0  0  0  0  0  0
   -1.1612   -0.1718   -2.5256 O   0  0  0  0  0  0  0  0  0  0  0  0
   -0.5448   -1.3398   -2.0546 C   0  0  0  0  0  0  0  0  0  0  0  0
    0.5890   -1.1966   -1.1750 N   0  0  0  0  0  0  0  0  0  0  0  0
    1.1433   -2.0388   -0.9053 H   0  0  0  0  0  0  0  0  0  0  0  0
    1.0432    0.1249   -0.7180 C   0  0  1  0  0  0  0  0  0  0  0  0
    1.1257    0.7803   -1.6152 H   0  0  0  0  0  0  0  0  0  0  0  0
    0.0193    0.7375    0.2903 C   0  0  2  0  0  0  0  0  0  0  0  0
   -0.9167    0.1291    0.2977 H   0  0  0  0  0  0  0  0  0  0  0  0
   -0.3120    2.0330   -0.1326 O   0  0  0  0  0  0  0  0  0  0  0  0
   -1.0525    2.3415    0.4523 H   0  0  0  0  0  0  0  0  0  0  0  0
    0.5265    0.8109    1.6158 O   0  0  0  0  0  0  0  0  0  0  0  0
    1.0702   -0.4349    2.0064 C   0  0  2  0  0  0  0  0  0  0  0  0
    0.3691   -1.2642    1.7427 H   0  0  0  0  0  0  0  0  0  0  0  0
    1.2197   -0.4482    3.5350 C   0  0  0  0  0  0  0  0  0  0  0  0
    1.9045    0.3664    3.8543 H   0  0  0  0  0  0  0  0  0  0  0  0
    0.2307   -0.2563    4.0105 H   0  0  0  0  0  0  0  0  0  0  0  0
    1.7364   -1.6743    3.9786 O   0  0  0  0  0  0  0  0  0  0  0  0
    0.9970   -2.3339    3.9152 H   0  0  0  0  0  0  0  0  0  0  0  0
    2.4307   -0.6531    1.2985 C   0  0  1  0  0  0  0  0  0  0  0  0
    3.2427   -0.2098    1.9238 H   0  0  0  0  0  0  0  0  0  0  0  0
    2.6642   -2.0321    1.1640 O   0  0  0  0  0  0  0  0  0  0  0  0
    3.6343   -2.1444    0.9846 H   0  0  0  0  0  0  0  0  0  0  0  0
    2.4551    0.0379   -0.0934 C   0  0  2  0  0  0  0  0  0  0  0  0
    3.1110   -0.5362   -0.7908 H   0  0  0  0  0  0  0  0  0  0  0  0
    2.9670    1.3412    0.0347 O   0  0  0  0  0  0  0  0  0  0  0  0
    3.9528    1.2576    0.1207 H   0  0  0  0  0  0  0  0  0  0  0  0
   -0.9823   -2.5315   -2.3974 N   0  0  0  0  0  4  0  0  0  0  0  0
   -0.3468   -3.6748   -1.8711 N   0  0  0  0  0  0  0  0  0  0  0  0
   -0.7251   -4.8326   -2.1458 O   0  0  0  0  0  0  0  0  0  0  0  0
   -2.1305   -2.6875   -3.3039 C   0  0  0  0  0  0  0  0  0  0  0  0
   -2.3496   -3.7532   -3.5166 H   0  0  0  0  0  0  0  0  0  0  0  0
   -3.0401   -2.2447   -2.8446 H   0  0  0  0  0  0  0  0  0  0  0  0
   -1.9174   -2.1964   -4.2775 H   0  0  0  0  0  0  0  0  0  0  0  0
  1  2  1  0
  2  3  1  0
  3  4  1  0
  4  5  1  0
  4  6  1  0
  6  7  1  6
  6  8  1  0
  8  9  1  1
  8 10  1  0
 10 11  1  0
  8 12  1  0
 12 13  1  0
 13 14  1  1
 13 15  1  0
 15 16  1  0
 15 17  1  0
 15 18  1  0
 18 19  1  0
 13 20  1  0
 20 21  1  1
 20 22  1  0
 22 23  1  0
 20 24  1  0
 24 25  1  6
 24 26  1  0
 26 27  1  0
  3 28  2  0
 28 29  1  0
 29 30  2  0
 28 31  1  0
 31 32  1  0
 31 33  1  0
 31 34  1  0
 24  6  1  0
M  CHG  1  28   1
M  END
>  <UniqueID>  (134) 
133

>  <SMILES>  (134) 
C/[N+](N=O)=C(\O)N[C@H]1[C@H](O)O[C@H](CO)[C@@H](O)[C@@H]1O

>  <Energy>  (134) 
42.03550013587738

>  <Genealogy>  (134) 
C[NH+](N=O)C(=O)N[C@H]1[C@H](O)O[C@H](CO)[C@@H](O)[C@@H]1O (protonated)
C[N+](N=O)=C(O)N[C@H]1[C@H](O)O[C@H](CO)[C@@H](O)[C@@H]1O (tautomer)
C/[N+](N=O)=C(\O)N[C@H]1[C@H](O)O[C@H](CO)[C@@H](O)[C@@H]1O (cis-trans isomerization)
C/[N+](N=O)=C(\O)N[C@H]1[C@H](O)O[C@H](CO)[C@@H](O)[C@@H]1O (3D coordinates assigned)
C/[N+](N=O)=C(\O)N[C@H]1[C@H](O)O[C@H](CO)[C@@H](O)[C@@H]1O (nonaromatic ring conformer: 42.03550013587738 kcal/mol)

$$$$
7067772
     RDKit          3D

 34 34  0  0  0  0  0  0  0  0999 V2000
   -1.1121    0.7790   -2.2693 H   0  0  0  0  0  0  0  0  0  0  0  0
   -1.1206   -0.0865   -2.7919 O   0  0  0  0  0  0  0  0  0  0  0  0
   -0.7166   -1.3044   -2.2356 C   0  0  0  0  0  0  0  0  0  0  0  0
   -0.1405   -1.3370   -0.9150 N   0  0  0  0  0  0  0  0  0  0  0  0
   -0.2538   -2.1996   -0.3358 H   0  0  0  0  0  0  0  0  0  0  0  0
    0.6317   -0.2283   -0.3424 C   0  0  1  0  0  0  0  0  0  0  0  0
    0.8014    0.5493   -1.1194 H   0  0  0  0  0  0  0  0  0  0  0  0
   -0.1514    0.3956    0.8345 C   0  0  2  0  0  0  0  0  0  0  0  0
   -0.7526   -0.3936    1.3520 H   0  0  0  0  0  0  0  0  0  0  0  0
   -1.0361    1.3631    0.3392 O   0  0  0  0  0  0  0  0  0  0  0  0
   -1.5801    1.6678    1.1117 H   0  0  0  0  0  0  0  0  0  0  0  0
    0.7484    1.0103    1.7365 O   0  0  0  0  0  0  0  0  0  0  0  0
    1.4346    0.0286    2.5000 C   0  0  2  0  0  0  0  0  0  0  0  0
    0.7140   -0.4243    3.2210 H   0  0  0  0  0  0  0  0  0  0  0  0
    2.4975    0.7404    3.3466 C   0  0  0  0  0  0  0  0  0  0  0  0
    2.0201    1.5815    3.8979 H   0  0  0  0  0  0  0  0  0  0  0  0
    3.2912    1.1574    2.6871 H   0  0  0  0  0  0  0  0  0  0  0  0
    3.0595   -0.1545    4.2671 O   0  0  0  0  0  0  0  0  0  0  0  0
    3.7424    0.3608    4.7700 H   0  0  0  0  0  0  0  0  0  0  0  0
    2.0680   -1.0961    1.6144 C   0  0  1  0  0  0  0  0  0  0  0  0
    3.1337   -1.2601    1.9034 H   0  0  0  0  0  0  0  0  0  0  0  0
    1.3610   -2.2929    1.8265 O   0  0  0  0  0  0  0  0  0  0  0  0
    1.9352   -3.0335    1.4980 H   0  0  0  0  0  0  0  0  0  0  0  0
    2.0318   -0.7325    0.1100 C   0  0  2  0  0  0  0  0  0  0  0  0
    2.2873   -1.6462   -0.4714 H   0  0  0  0  0  0  0  0  0  0  0  0
    3.0336    0.2105   -0.1906 O   0  0  0  0  0  0  0  0  0  0  0  0
    2.7895    1.0703    0.2388 H   0  0  0  0  0  0  0  0  0  0  0  0
   -0.8769   -2.4117   -2.9151 N   0  0  0  0  0  4  0  0  0  0  0  0
   -0.3943   -3.6248   -2.3856 N   0  0  0  0  0  0  0  0  0  0  0  0
   -0.4465   -4.6929   -3.0302 O   0  0  0  0  0  0  0  0  0  0  0  0
   -1.4647   -2.3787   -4.2621 C   0  0  0  0  0  0  0  0  0  0  0  0
   -1.8103   -3.3856   -4.5747 H   0  0  0  0  0  0  0  0  0  0  0  0
   -2.3536   -1.7118   -4.2874 H   0  0  0  0  0  0  0  0  0  0  0  0
   -0.7094   -2.0160   -4.9910 H   0  0  0  0  0  0  0  0  0  0  0  0
  1  2  1  0
  2  3  1  0
  3  4  1  0
  4  5  1  0
  4  6  1  0
  6  7  1  6
  6  8  1  0
  8  9  1  1
  8 10  1  0
 10 11  1  0
  8 12  1  0
 12 13  1  0
 13 14  1  1
 13 15  1  0
 15 16  1  0
 15 17  1  0
 15 18  1  0
 18 19  1  0
 13 20  1  0
 20 21  1  1
 20 22  1  0
 22 23  1  0
 20 24  1  0
 24 25  1  6
 24 26  1  0
 26 27  1  0
  3 28  2  0
 28 29  1  0
 29 30  2  0
 28 31  1  0
 31 32  1  0
 31 33  1  0
 31 34  1  0
 24  6  1  0
M  CHG  1  28   1
M  END
>  <UniqueID>  (135) 
134

>  <SMILES>  (135) 
C/[N+](N=O)=C(\O)N[C@H]1[C@H](O)O[C@H](CO)[C@@H](O)[C@@H]1O

>  <Energy>  (135) 
43.1481591570447

>  <Genealogy>  (135) 
C[NH+](N=O)C(=O)N[C@H]1[C@H](O)O[C@H](CO)[C@@H](O)[C@@H]1O (protonated)
C[N+](N=O)=C(O)N[C@H]1[C@H](O)O[C@H](CO)[C@@H](O)[C@@H]1O (tautomer)
C/[N+](N=O)=C(\O)N[C@H]1[C@H](O)O[C@H](CO)[C@@H](O)[C@@H]1O (cis-trans isomerization)
C/[N+](N=O)=C(\O)N[C@H]1[C@H](O)O[C@H](CO)[C@@H](O)[C@@H]1O (3D coordinates assigned)
C/[N+](N=O)=C(\O)N[C@H]1[C@H](O)O[C@H](CO)[C@@H](O)[C@@H]1O (nonaromatic ring conformer: 43.1481591570447 kcal/mol)

$$$$
7067772
     RDKit          3D

 34 34  0  0  0  0  0  0  0  0999 V2000
   -3.3070   -2.3685    1.2888 H   0  0  0  0  0  0  0  0  0  0  0  0
   -2.5249   -1.8383    0.9257 O   0  0  0  0  0  0  0  0  0  0  0  0
   -2.6632   -0.6205    0.2480 C   0  0  0  0  0  0  0  0  0  0  0  0
   -1.4685    0.0294   -0.2327 N   0  0  0  0  0  0  0  0  0  0  0  0
   -1.4852    1.0436   -0.4819 H   0  0  0  0  0  0  0  0  0  0  0  0
   -0.1517   -0.6126   -0.1576 C   0  0  1  0  0  0  0  0  0  0  0  0
   -0.2825   -1.7168   -0.2144 H   0  0  0  0  0  0  0  0  0  0  0  0
    0.7092   -0.1996   -1.3782 C   0  0  2  0  0  0  0  0  0  0  0  0
    0.0216   -0.0132   -2.2353 H   0  0  0  0  0  0  0  0  0  0  0  0
    1.5770   -1.2426   -1.7456 O   0  0  0  0  0  0  0  0  0  0  0  0
    1.9706   -0.9861   -2.6202 H   0  0  0  0  0  0  0  0  0  0  0  0
    1.4286    1.0000   -1.1328 O   0  0  0  0  0  0  0  0  0  0  0  0
    2.3901    0.8986   -0.0817 C   0  0  2  0  0  0  0  0  0  0  0  0
    2.3925    1.8947    0.4145 H   0  0  0  0  0  0  0  0  0  0  0  0
    3.7977    0.6950   -0.6705 C   0  0  0  0  0  0  0  0  0  0  0  0
    3.9709    1.4259   -1.4931 H   0  0  0  0  0  0  0  0  0  0  0  0
    3.8909   -0.3210   -1.1056 H   0  0  0  0  0  0  0  0  0  0  0  0
    4.7805    0.8454    0.3189 O   0  0  0  0  0  0  0  0  0  0  0  0
    4.8668    1.8197    0.4889 H   0  0  0  0  0  0  0  0  0  0  0  0
    2.0557   -0.1517    1.0149 C   0  0  1  0  0  0  0  0  0  0  0  0
    2.4451   -1.1509    0.7045 H   0  0  0  0  0  0  0  0  0  0  0  0
    2.6508    0.2334    2.2287 O   0  0  0  0  0  0  0  0  0  0  0  0
    2.7267   -0.5842    2.7868 H   0  0  0  0  0  0  0  0  0  0  0  0
    0.5301   -0.2356    1.1805 C   0  0  2  0  0  0  0  0  0  0  0  0
    0.1767    0.7725    1.4953 H   0  0  0  0  0  0  0  0  0  0  0  0
    0.1760   -1.1424    2.1956 O   0  0  0  0  0  0  0  0  0  0  0  0
    0.5525   -2.0288    1.9531 H   0  0  0  0  0  0  0  0  0  0  0  0
   -3.8527   -0.0926    0.0633 N   0  0  0  0  0  4  0  0  0  0  0  0
   -4.9769   -0.7380    0.6165 N   0  0  0  0  0  0  0  0  0  0  0  0
   -6.1272   -0.2603    0.5282 O   0  0  0  0  0  0  0  0  0  0  0  0
   -4.0297    1.1627   -0.6844 C   0  0  0  0  0  0  0  0  0  0  0  0
   -3.6406    2.0155   -0.0885 H   0  0  0  0  0  0  0  0  0  0  0  0
   -5.0974    1.3585   -0.9109 H   0  0  0  0  0  0  0  0  0  0  0  0
   -3.5028    1.1086   -1.6614 H   0  0  0  0  0  0  0  0  0  0  0  0
  1  2  1  0
  2  3  1  0
  3  4  1  0
  4  5  1  0
  4  6  1  0
  6  7  1  1
  6  8  1  0
  8  9  1  6
  8 10  1  0
 10 11  1  0
  8 12  1  0
 12 13  1  0
 13 14  1  1
 13 15  1  0
 15 16  1  0
 15 17  1  0
 15 18  1  0
 18 19  1  0
 13 20  1  0
 20 21  1  6
 20 22  1  0
 22 23  1  0
 20 24  1  0
 24 25  1  1
 24 26  1  0
 26 27  1  0
  3 28  2  0
 28 29  1  0
 29 30  2  0
 28 31  1  0
 31 32  1  0
 31 33  1  0
 31 34  1  0
 24  6  1  0
M  CHG  1  28   1
M  END
>  <UniqueID>  (136) 
135

>  <SMILES>  (136) 
C/[N+](N=O)=C(/O)N[C@H]1[C@H](O)O[C@H](CO)[C@@H](O)[C@@H]1O

>  <Energy>  (136) 
45.25608484672301

>  <Genealogy>  (136) 
C[NH+](N=O)C(=O)N[C@H]1[C@H](O)O[C@H](CO)[C@@H](O)[C@@H]1O (protonated)
C[N+](N=O)=C(O)N[C@H]1[C@H](O)O[C@H](CO)[C@@H](O)[C@@H]1O (tautomer)
C/[N+](N=O)=C(/O)N[C@H]1[C@H](O)O[C@H](CO)[C@@H](O)[C@@H]1O (cis-trans isomerization)
C/[N+](N=O)=C(/O)N[C@H]1[C@H](O)O[C@H](CO)[C@@H](O)[C@@H]1O (3D coordinates assigned)
C/[N+](N=O)=C(/O)N[C@H]1[C@H](O)O[C@H](CO)[C@@H](O)[C@@H]1O (nonaromatic ring conformer: 45.25608484672301 kcal/mol)

$$$$
6971258
     RDKit          3D

 30 30  0  0  0  0  0  0  0  0999 V2000
    2.2950    3.7145    0.0988 C   0  0  0  0  0  0  0  0  0  0  0  0
    1.1883    2.7667    0.4284 C   0  0  0  0  0  0  0  0  0  0  0  0
   -0.0083    3.1544    0.3431 O   0  0  0  0  0  0  0  0  0  0  0  0
    1.4938    1.4397    0.8799 N   0  0  0  0  0  0  0  0  0  0  0  0
    0.4490    0.4550    1.1907 C   0  0  1  0  0  0  0  0  0  0  0  0
   -0.2285   -0.0683   -0.1005 C   0  0  1  0  0  0  0  0  0  0  0  0
    0.7120   -0.5920   -1.0080 O   0  0  0  0  0  0  0  0  0  0  0  0
   -1.2250   -1.0349    0.1985 O   0  0  0  0  0  0  0  0  0  0  0  0
   -0.6771   -2.1721    0.8492 C   0  0  2  0  0  0  0  0  0  0  0  0
   -1.7801   -3.2285    0.9942 C   0  0  0  0  0  0  0  0  0  0  0  0
   -1.2561   -4.4047    1.5472 O   0  0  0  0  0  0  0  0  0  0  0  0
   -0.0786   -1.7845    2.2226 C   0  0  2  0  0  0  0  0  0  0  0  0
   -1.0905   -1.2871    3.0623 O   0  0  0  0  0  0  0  0  0  0  0  0
    1.0131   -0.7150    2.0237 C   0  0  1  0  0  0  0  0  0  0  0  0
    2.1264   -1.2812    1.3773 O   0  0  0  0  0  0  0  0  0  0  0  0
    2.7807    4.0556    1.0365 H   0  0  0  0  0  0  0  0  0  0  0  0
    1.9019    4.5971   -0.4492 H   0  0  0  0  0  0  0  0  0  0  0  0
    3.0475    3.2051   -0.5388 H   0  0  0  0  0  0  0  0  0  0  0  0
    2.4989    1.1976    1.0345 H   0  0  0  0  0  0  0  0  0  0  0  0
   -0.3296    0.9562    1.8092 H   0  0  0  0  0  0  0  0  0  0  0  0
   -0.7545    0.7863   -0.5835 H   0  0  0  0  0  0  0  0  0  0  0  0
    1.1434    0.1800   -1.4589 H   0  0  0  0  0  0  0  0  0  0  0  0
    0.1175   -2.6343    0.2187 H   0  0  0  0  0  0  0  0  0  0  0  0
   -2.6033   -2.8398    1.6347 H   0  0  0  0  0  0  0  0  0  0  0  0
   -2.1990   -3.4512   -0.0129 H   0  0  0  0  0  0  0  0  0  0  0  0
   -2.0169   -5.0379    1.6187 H   0  0  0  0  0  0  0  0  0  0  0  0
    0.3804   -2.6892    2.6863 H   0  0  0  0  0  0  0  0  0  0  0  0
   -0.7346   -1.3162    3.9888 H   0  0  0  0  0  0  0  0  0  0  0  0
    1.3266   -0.3170    3.0177 H   0  0  0  0  0  0  0  0  0  0  0  0
    2.6125   -1.8162    2.0579 H   0  0  0  0  0  0  0  0  0  0  0  0
  1  2  1  0
  2  3  2  0
  2  4  1  0
  4  5  1  0
  5  6  1  0
  6  7  1  0
  6  8  1  0
  8  9  1  0
  9 10  1  0
 10 11  1  0
  9 12  1  0
 12 13  1  0
 12 14  1  0
 14 15  1  0
 14  5  1  0
  1 16  1  0
  1 17  1  0
  1 18  1  0
  4 19  1  0
  5 20  1  1
  6 21  1  6
  7 22  1  0
  9 23  1  6
 10 24  1  0
 10 25  1  0
 11 26  1  0
 12 27  1  1
 13 28  1  0
 14 29  1  1
 15 30  1  0
M  END
>  <UniqueID>  (137) 
136

>  <SMILES>  (137) 
CC(=O)N[C@H]1[C@@H](O)O[C@H](CO)[C@H](O)[C@H]1O

>  <Energy>  (137) 
26.219222459118264

>  <Genealogy>  (137) 
CC(=O)N[C@H]1[C@@H](O)O[C@H](CO)[C@H](O)[C@H]1O (3D coordinates assigned)
CC(=O)N[C@H]1[C@@H](O)O[C@H](CO)[C@H](O)[C@H]1O (nonaromatic ring conformer: 26.219222459118264 kcal/mol)

$$$$
6971258
     RDKit          3D

 30 30  0  0  0  0  0  0  0  0999 V2000
    0.5337   -1.4445    2.4845 H   0  0  0  0  0  0  0  0  0  0  0  0
   -0.2341   -2.0927    2.5951 O   0  0  0  0  0  0  0  0  0  0  0  0
   -1.4637   -1.9559    1.9446 C   0  0  0  0  0  0  0  0  0  0  0  0
   -1.7103   -0.9842    1.1127 N   0  0  0  0  0  0  0  0  0  0  0  0
   -0.7786    0.0658    0.6921 C   0  0  1  0  0  0  0  0  0  0  0  0
   -0.2304    0.4538    1.5792 H   0  0  0  0  0  0  0  0  0  0  0  0
    0.2419   -0.4812   -0.3353 C   0  0  1  0  0  0  0  0  0  0  0  0
    0.8829   -1.2239    0.1877 H   0  0  0  0  0  0  0  0  0  0  0  0
   -0.4104   -1.1376   -1.3944 O   0  0  0  0  0  0  0  0  0  0  0  0
    0.3020   -1.5468   -1.9516 H   0  0  0  0  0  0  0  0  0  0  0  0
    1.0968    0.5476   -0.8162 O   0  0  0  0  0  0  0  0  0  0  0  0
    0.3647    1.5638   -1.4848 C   0  0  2  0  0  0  0  0  0  0  0  0
   -0.2252    1.1338   -2.3271 H   0  0  0  0  0  0  0  0  0  0  0  0
    1.3522    2.5611   -2.1081 C   0  0  0  0  0  0  0  0  0  0  0  0
    1.9964    2.9996   -1.3164 H   0  0  0  0  0  0  0  0  0  0  0  0
    0.8014    3.3957   -2.6000 H   0  0  0  0  0  0  0  0  0  0  0  0
    2.1774    1.9145   -3.0393 O   0  0  0  0  0  0  0  0  0  0  0  0
    1.6309    1.7767   -3.8567 H   0  0  0  0  0  0  0  0  0  0  0  0
   -0.5987    2.2771   -0.5105 C   0  0  2  0  0  0  0  0  0  0  0  0
   -1.1826    3.0402   -1.0777 H   0  0  0  0  0  0  0  0  0  0  0  0
    0.1339    2.9076    0.5104 O   0  0  0  0  0  0  0  0  0  0  0  0
   -0.4748    3.5674    0.9346 H   0  0  0  0  0  0  0  0  0  0  0  0
   -1.5694    1.2466    0.0993 C   0  0  1  0  0  0  0  0  0  0  0  0
   -2.1468    1.7280    0.9238 H   0  0  0  0  0  0  0  0  0  0  0  0
   -2.4646    0.7843   -0.8818 O   0  0  0  0  0  0  0  0  0  0  0  0
   -3.1274    1.5085   -1.0303 H   0  0  0  0  0  0  0  0  0  0  0  0
   -2.5423   -2.9439    2.2369 C   0  0  0  0  0  0  0  0  0  0  0  0
   -2.9873   -3.3113    1.2881 H   0  0  0  0  0  0  0  0  0  0  0  0
   -3.3319   -2.4618    2.8503 H   0  0  0  0  0  0  0  0  0  0  0  0
   -2.1283   -3.8094    2.7957 H   0  0  0  0  0  0  0  0  0  0  0  0
  1  2  1  0
  2  3  1  0
  3  4  2  0
  4  5  1  0
  5  6  1  1
  5  7  1  0
  7  8  1  1
  7  9  1  0
  9 10  1  0
  7 11  1  0
 11 12  1  0
 12 13  1  6
 12 14  1  0
 14 15  1  0
 14 16  1  0
 14 17  1  0
 17 18  1  0
 12 19  1  0
 19 20  1  6
 19 21  1  0
 21 22  1  0
 19 23  1  0
 23 24  1  1
 23 25  1  0
 25 26  1  0
  3 27  1  0
 27 28  1  0
 27 29  1  0
 27 30  1  0
 23  5  1  0
M  END
>  <UniqueID>  (138) 
137

>  <SMILES>  (138) 
C/C(O)=N/[C@H]1[C@@H](O)O[C@H](CO)[C@H](O)[C@H]1O

>  <Energy>  (138) 
27.557865811326785

>  <Genealogy>  (138) 
CC(O)=N[C@H]1[C@@H](O)O[C@H](CO)[C@H](O)[C@H]1O (tautomer)
C/C(O)=N/[C@H]1[C@@H](O)O[C@H](CO)[C@H](O)[C@H]1O (cis-trans isomerization)
C/C(O)=N/[C@H]1[C@@H](O)O[C@H](CO)[C@H](O)[C@H]1O (3D coordinates assigned)
C/C(O)=N/[C@H]1[C@@H](O)O[C@H](CO)[C@H](O)[C@H]1O (nonaromatic ring conformer: 27.557865811326785 kcal/mol)

$$$$
6971258
     RDKit          3D

 30 30  0  0  0  0  0  0  0  0999 V2000
    2.9080    2.6973    0.0164 C   0  0  0  0  0  0  0  0  0  0  0  0
    1.5194    2.3121    0.4094 C   0  0  0  0  0  0  0  0  0  0  0  0
    0.7269    3.1944    0.8371 O   0  0  0  0  0  0  0  0  0  0  0  0
    1.1110    0.9388    0.3333 N   0  0  0  0  0  0  0  0  0  0  0  0
   -0.2167    0.4778    0.7619 C   0  0  1  0  0  0  0  0  0  0  0  0
   -0.7569   -0.5809   -0.2229 C   0  0  1  0  0  0  0  0  0  0  0  0
   -0.7449   -0.0597   -1.5260 O   0  0  0  0  0  0  0  0  0  0  0  0
    0.0393   -1.7569   -0.2087 O   0  0  0  0  0  0  0  0  0  0  0  0
    0.0577   -2.3993    1.0621 C   0  0  2  0  0  0  0  0  0  0  0  0
   -1.2837   -3.0902    1.4009 C   0  0  0  0  0  0  0  0  0  0  0  0
   -1.6958   -3.9067    0.3380 O   0  0  0  0  0  0  0  0  0  0  0  0
    0.5875   -1.4625    2.1802 C   0  0  2  0  0  0  0  0  0  0  0  0
    0.4711   -2.0663    3.4431 O   0  0  0  0  0  0  0  0  0  0  0  0
   -0.1697   -0.1223    2.1794 C   0  0  1  0  0  0  0  0  0  0  0  0
    0.3805    0.7861    3.1030 O   0  0  0  0  0  0  0  0  0  0  0  0
    3.1598    2.2424   -0.9643 H   0  0  0  0  0  0  0  0  0  0  0  0
    2.9978    3.8013   -0.0681 H   0  0  0  0  0  0  0  0  0  0  0  0
    3.6228    2.3325    0.7830 H   0  0  0  0  0  0  0  0  0  0  0  0
    1.8225    0.2302    0.0427 H   0  0  0  0  0  0  0  0  0  0  0  0
   -0.9308    1.3312    0.7685 H   0  0  0  0  0  0  0  0  0  0  0  0
   -1.8116   -0.8274    0.0382 H   0  0  0  0  0  0  0  0  0  0  0  0
   -1.4742    0.6127   -1.5767 H   0  0  0  0  0  0  0  0  0  0  0  0
    0.8010   -3.2227    0.9793 H   0  0  0  0  0  0  0  0  0  0  0  0
   -2.0779   -2.3581    1.6649 H   0  0  0  0  0  0  0  0  0  0  0  0
   -1.1431   -3.7382    2.2918 H   0  0  0  0  0  0  0  0  0  0  0  0
   -2.1673   -3.3195   -0.3085 H   0  0  0  0  0  0  0  0  0  0  0  0
    1.6643   -1.2576    1.9734 H   0  0  0  0  0  0  0  0  0  0  0  0
    1.1557   -2.7844    3.4809 H   0  0  0  0  0  0  0  0  0  0  0  0
   -1.2170   -0.3145    2.5001 H   0  0  0  0  0  0  0  0  0  0  0  0
    1.3539    0.8590    2.9241 H   0  0  0  0  0  0  0  0  0  0  0  0
  1  2  1  0
  2  3  2  0
  2  4  1  0
  4  5  1  0
  5  6  1  0
  6  7  1  0
  6  8  1  0
  8  9  1  0
  9 10  1  0
 10 11  1  0
  9 12  1  0
 12 13  1  0
 12 14  1  0
 14 15  1  0
 14  5  1  0
  1 16  1  0
  1 17  1  0
  1 18  1  0
  4 19  1  0
  5 20  1  1
  6 21  1  1
  7 22  1  0
  9 23  1  6
 10 24  1  0
 10 25  1  0
 11 26  1  0
 12 27  1  6
 13 28  1  0
 14 29  1  1
 15 30  1  0
M  END
>  <UniqueID>  (139) 
138

>  <SMILES>  (139) 
CC(=O)N[C@H]1[C@@H](O)O[C@H](CO)[C@H](O)[C@H]1O

>  <Energy>  (139) 
29.657152798464175

>  <Genealogy>  (139) 
CC(=O)N[C@H]1[C@@H](O)O[C@H](CO)[C@H](O)[C@H]1O (3D coordinates assigned)
CC(=O)N[C@H]1[C@@H](O)O[C@H](CO)[C@H](O)[C@H]1O (nonaromatic ring conformer: 29.657152798464175 kcal/mol)

$$$$
6713972
     RDKit          3D

 34 34  0  0  0  0  0  0  0  0999 V2000
    3.7728   -1.9152    3.8442 H   0  0  0  0  0  0  0  0  0  0  0  0
    3.2355   -1.1879    4.2984 O   0  0  0  0  0  0  0  0  0  0  0  0
    2.4314   -0.3568    3.5501 N   0  0  0  0  0  0  0  0  0  0  0  0
    1.7364    0.5736    4.0808 N   0  0  0  0  0  4  0  0  0  0  0  0
    0.8695    1.3635    3.2428 C   0  0  0  0  0  0  0  0  0  0  0  0
    0.0244    2.1394    3.7686 O   0  0  0  0  0  0  0  0  0  0  0  0
    0.9558    1.2730    1.8094 N   0  0  0  0  0  0  0  0  0  0  0  0
    1.7140    0.6915    1.3866 H   0  0  0  0  0  0  0  0  0  0  0  0
    0.0161    1.9659    0.9151 C   0  0  1  0  0  0  0  0  0  0  0  0
   -0.2809    2.9364    1.3721 H   0  0  0  0  0  0  0  0  0  0  0  0
    0.6825    2.2772   -0.4386 C   0  0  1  0  0  0  0  0  0  0  0  0
   -0.0032    2.9141   -1.0424 H   0  0  0  0  0  0  0  0  0  0  0  0
    1.8534    3.0137   -0.2088 O   0  0  0  0  0  0  0  0  0  0  0  0
    2.1991    3.2784   -1.1011 H   0  0  0  0  0  0  0  0  0  0  0  0
    1.0164    1.0863   -1.1377 O   0  0  0  0  0  0  0  0  0  0  0  0
   -0.1246    0.2971   -1.4563 C   0  0  2  0  0  0  0  0  0  0  0  0
    0.2654   -0.6479   -1.8949 H   0  0  0  0  0  0  0  0  0  0  0  0
   -0.9946    0.9233   -2.5646 C   0  0  0  0  0  0  0  0  0  0  0  0
   -1.5742    1.7911   -2.1843 H   0  0  0  0  0  0  0  0  0  0  0  0
   -1.7251    0.1632   -2.9228 H   0  0  0  0  0  0  0  0  0  0  0  0
   -0.1834    1.3250   -3.6337 O   0  0  0  0  0  0  0  0  0  0  0  0
   -0.7943    1.7117   -4.3136 H   0  0  0  0  0  0  0  0  0  0  0  0
   -0.9391   -0.1045   -0.1994 C   0  0  1  0  0  0  0  0  0  0  0  0
   -1.9092   -0.5562   -0.5161 H   0  0  0  0  0  0  0  0  0  0  0  0
   -0.2183   -1.0481    0.5532 O   0  0  0  0  0  0  0  0  0  0  0  0
   -0.3173   -1.9222    0.0928 H   0  0  0  0  0  0  0  0  0  0  0  0
   -1.2510    1.1243    0.6763 C   0  0  1  0  0  0  0  0  0  0  0  0
   -1.9876    1.7684    0.1413 H   0  0  0  0  0  0  0  0  0  0  0  0
   -1.8092    0.7272    1.9026 O   0  0  0  0  0  0  0  0  0  0  0  0
   -2.7299    0.4094    1.7095 H   0  0  0  0  0  0  0  0  0  0  0  0
    1.7407    0.7697    5.5364 C   0  0  0  0  0  0  0  0  0  0  0  0
    1.0505    0.0418    6.0121 H   0  0  0  0  0  0  0  0  0  0  0  0
    2.7632    0.6309    5.9475 H   0  0  0  0  0  0  0  0  0  0  0  0
    1.4233    1.8000    5.8030 H   0  0  0  0  0  0  0  0  0  0  0  0
  1  2  1  0
  2  3  1  0
  3  4  2  0
  4  5  1  0
  5  6  2  0
  5  7  1  0
  7  8  1  0
  7  9  1  0
  9 10  1  1
  9 11  1  0
 11 12  1  6
 11 13  1  0
 13 14  1  0
 11 15  1  0
 15 16  1  0
 16 17  1  6
 16 18  1  0
 18 19  1  0
 18 20  1  0
 18 21  1  0
 21 22  1  0
 16 23  1  0
 23 24  1  6
 23 25  1  0
 25 26  1  0
 23 27  1  0
 27 28  1  6
 27 29  1  0
 29 30  1  0
  4 31  1  0
 31 32  1  0
 31 33  1  0
 31 34  1  0
 27  9  1  0
M  CHG  1   4   1
M  END
>  <UniqueID>  (140) 
139

>  <SMILES>  (140) 
C/[N+](=N\O)C(=O)N[C@H]1[C@@H](O)O[C@H](CO)[C@@H](O)[C@H]1O

>  <Energy>  (140) 
34.08289145579652

>  <Genealogy>  (140) 
C[NH+](N=O)C(=O)NC1[C@@H](O)OC(CO)[C@@H](O)[C@H]1O (protonated)
C[N+](=NO)C(=O)NC1[C@@H](O)OC(CO)[C@@H](O)[C@H]1O (tautomer)
C[N+](=NO)C(=O)N[C@H]1[C@@H](O)O[C@H](CO)[C@@H](O)[C@H]1O (chirality)
C/[N+](=N\O)C(=O)N[C@H]1[C@@H](O)O[C@H](CO)[C@@H](O)[C@H]1O (cis-trans isomerization)
C/[N+](=N\O)C(=O)N[C@H]1[C@@H](O)O[C@H](CO)[C@@H](O)[C@H]1O (3D coordinates assigned)
C/[N+](=N\O)C(=O)N[C@H]1[C@@H](O)O[C@H](CO)[C@@H](O)[C@H]1O (nonaromatic ring conformer: 34.08289145579652 kcal/mol)

$$$$
6713972
     RDKit          3D

 34 34  0  0  0  0  0  0  0  0999 V2000
    4.7413   -1.6741    2.4684 H   0  0  0  0  0  0  0  0  0  0  0  0
    3.7944   -1.3944    2.6888 O   0  0  0  0  0  0  0  0  0  0  0  0
    2.9667   -0.7556    1.7845 N   0  0  0  0  0  0  0  0  0  0  0  0
    3.3158   -0.4326    0.5966 N   0  0  0  0  0  4  0  0  0  0  0  0
    2.3436    0.2088   -0.2563 C   0  0  0  0  0  0  0  0  0  0  0  0
    2.6006    0.3959   -1.4776 O   0  0  0  0  0  0  0  0  0  0  0  0
    1.0753    0.6373    0.2720 N   0  0  0  0  0  0  0  0  0  0  0  0
    0.9095    0.5730    1.3017 H   0  0  0  0  0  0  0  0  0  0  0  0
    0.0206    1.2011   -0.5822 C   0  0  2  0  0  0  0  0  0  0  0  0
    0.4874    1.9207   -1.2917 H   0  0  0  0  0  0  0  0  0  0  0  0
   -1.0098    1.9742    0.2779 C   0  0  1  0  0  0  0  0  0  0  0  0
   -0.4465    2.6680    0.9439 H   0  0  0  0  0  0  0  0  0  0  0  0
   -1.8784    2.7404   -0.5211 O   0  0  0  0  0  0  0  0  0  0  0  0
   -1.3461    3.4967   -0.8823 H   0  0  0  0  0  0  0  0  0  0  0  0
   -1.7456    1.0995    1.1189 O   0  0  0  0  0  0  0  0  0  0  0  0
   -2.4995    0.1550    0.3729 C   0  0  2  0  0  0  0  0  0  0  0  0
   -3.2038    0.6789   -0.3139 H   0  0  0  0  0  0  0  0  0  0  0  0
   -3.3515   -0.6522    1.3675 C   0  0  0  0  0  0  0  0  0  0  0  0
   -3.8627    0.0421    2.0734 H   0  0  0  0  0  0  0  0  0  0  0  0
   -2.6988   -1.3159    1.9741 H   0  0  0  0  0  0  0  0  0  0  0  0
   -4.3062   -1.4359    0.7028 O   0  0  0  0  0  0  0  0  0  0  0  0
   -5.0222   -0.8179    0.4008 H   0  0  0  0  0  0  0  0  0  0  0  0
   -1.5584   -0.7658   -0.4440 C   0  0  1  0  0  0  0  0  0  0  0  0
   -0.8838   -1.3095    0.2620 H   0  0  0  0  0  0  0  0  0  0  0  0
   -2.3014   -1.6786   -1.2137 O   0  0  0  0  0  0  0  0  0  0  0  0
   -2.3125   -2.5406   -0.7212 H   0  0  0  0  0  0  0  0  0  0  0  0
   -0.6751    0.0808   -1.3789 C   0  0  1  0  0  0  0  0  0  0  0  0
    0.1042   -0.5780   -1.8295 H   0  0  0  0  0  0  0  0  0  0  0  0
   -1.4495    0.6531   -2.4045 O   0  0  0  0  0  0  0  0  0  0  0  0
   -1.5544   -0.0361   -3.1114 H   0  0  0  0  0  0  0  0  0  0  0  0
    4.6665   -0.7275    0.0969 C   0  0  0  0  0  0  0  0  0  0  0  0
    5.4250   -0.2522    0.7544 H   0  0  0  0  0  0  0  0  0  0  0  0
    4.8261   -1.8262    0.0693 H   0  0  0  0  0  0  0  0  0  0  0  0
    4.8293   -0.3322   -0.9269 H   0  0  0  0  0  0  0  0  0  0  0  0
  1  2  1  0
  2  3  1  0
  3  4  2  0
  4  5  1  0
  5  6  2  0
  5  7  1  0
  7  8  1  0
  7  9  1  0
  9 10  1  6
  9 11  1  0
 11 12  1  1
 11 13  1  0
 13 14  1  0
 11 15  1  0
 15 16  1  0
 16 17  1  6
 16 18  1  0
 18 19  1  0
 18 20  1  0
 18 21  1  0
 21 22  1  0
 16 23  1  0
 23 24  1  1
 23 25  1  0
 25 26  1  0
 23 27  1  0
 27 28  1  6
 27 29  1  0
 29 30  1  0
  4 31  1  0
 31 32  1  0
 31 33  1  0
 31 34  1  0
 27  9  1  0
M  CHG  1   4   1
M  END
>  <UniqueID>  (141) 
140

>  <SMILES>  (141) 
C/[N+](=N/O)C(=O)N[C@@H]1[C@@H](O)O[C@H](CO)[C@@H](O)[C@H]1O

>  <Energy>  (141) 
35.871442510631944

>  <Genealogy>  (141) 
C[NH+](N=O)C(=O)NC1[C@@H](O)OC(CO)[C@@H](O)[C@H]1O (protonated)
C[N+](=NO)C(=O)NC1[C@@H](O)OC(CO)[C@@H](O)[C@H]1O (tautomer)
C[N+](=NO)C(=O)N[C@@H]1[C@@H](O)O[C@H](CO)[C@@H](O)[C@H]1O (chirality)
C/[N+](=N/O)C(=O)N[C@@H]1[C@@H](O)O[C@H](CO)[C@@H](O)[C@H]1O (cis-trans isomerization)
C/[N+](=N/O)C(=O)N[C@@H]1[C@@H](O)O[C@H](CO)[C@@H](O)[C@H]1O (3D coordinates assigned)
C/[N+](=N/O)C(=O)N[C@@H]1[C@@H](O)O[C@H](CO)[C@@H](O)[C@H]1O (nonaromatic ring conformer: 35.871442510631944 kcal/mol)

$$$$
6713972
     RDKit          3D

 34 34  0  0  0  0  0  0  0  0999 V2000
    5.4611   -1.0711    1.9628 H   0  0  0  0  0  0  0  0  0  0  0  0
    4.5346   -1.4672    2.0527 O   0  0  0  0  0  0  0  0  0  0  0  0
    3.4340   -0.9731    1.3776 N   0  0  0  0  0  0  0  0  0  0  0  0
    3.4669    0.0402    0.5971 N   0  0  0  0  0  4  0  0  0  0  0  0
    2.2479    0.4379   -0.0663 C   0  0  0  0  0  0  0  0  0  0  0  0
    2.2784    1.3274   -0.9608 O   0  0  0  0  0  0  0  0  0  0  0  0
    0.9928   -0.1748    0.2822 N   0  0  0  0  0  0  0  0  0  0  0  0
    0.9547   -0.8261    1.0984 H   0  0  0  0  0  0  0  0  0  0  0  0
   -0.2759    0.1845   -0.3616 C   0  0  2  0  0  0  0  0  0  0  0  0
   -0.0901    0.7649   -1.2929 H   0  0  0  0  0  0  0  0  0  0  0  0
   -1.1265    1.0535    0.5877 C   0  0  1  0  0  0  0  0  0  0  0  0
   -1.2894    0.5191    1.5529 H   0  0  0  0  0  0  0  0  0  0  0  0
   -0.4465    2.2536    0.8496 O   0  0  0  0  0  0  0  0  0  0  0  0
    0.2102    2.0694    1.5714 H   0  0  0  0  0  0  0  0  0  0  0  0
   -2.3746    1.3830   -0.0026 O   0  0  0  0  0  0  0  0  0  0  0  0
   -3.1701    0.2407   -0.3020 C   0  0  2  0  0  0  0  0  0  0  0  0
   -4.0596    0.6182   -0.8538 H   0  0  0  0  0  0  0  0  0  0  0  0
   -3.7398   -0.4413    0.9583 C   0  0  0  0  0  0  0  0  0  0  0  0
   -4.5111   -1.1827    0.6502 H   0  0  0  0  0  0  0  0  0  0  0  0
   -2.9522   -0.9898    1.5169 H   0  0  0  0  0  0  0  0  0  0  0  0
   -4.3286    0.5195    1.7904 O   0  0  0  0  0  0  0  0  0  0  0  0
   -4.6829    0.0256    2.5750 H   0  0  0  0  0  0  0  0  0  0  0  0
   -2.4537   -0.7390   -1.2608 C   0  0  1  0  0  0  0  0  0  0  0  0
   -3.0605   -1.6733   -1.3366 H   0  0  0  0  0  0  0  0  0  0  0  0
   -2.3531   -0.1335   -2.5266 O   0  0  0  0  0  0  0  0  0  0  0  0
   -2.3649   -0.8615   -3.2016 H   0  0  0  0  0  0  0  0  0  0  0  0
   -1.0531   -1.0943   -0.7264 C   0  0  1  0  0  0  0  0  0  0  0  0
   -1.1802   -1.7038    0.1944 H   0  0  0  0  0  0  0  0  0  0  0  0
   -0.3432   -1.8875   -1.6474 O   0  0  0  0  0  0  0  0  0  0  0  0
   -0.0784   -1.3127   -2.4120 H   0  0  0  0  0  0  0  0  0  0  0  0
    4.7186    0.7738    0.3595 C   0  0  0  0  0  0  0  0  0  0  0  0
    5.1280    1.1446    1.3229 H   0  0  0  0  0  0  0  0  0  0  0  0
    4.5676    1.6588   -0.2924 H   0  0  0  0  0  0  0  0  0  0  0  0
    5.4577    0.1074   -0.1334 H   0  0  0  0  0  0  0  0  0  0  0  0
  1  2  1  0
  2  3  1  0
  3  4  2  0
  4  5  1  0
  5  6  2  0
  5  7  1  0
  7  8  1  0
  7  9  1  0
  9 10  1  6
  9 11  1  0
 11 12  1  1
 11 13  1  0
 13 14  1  0
 11 15  1  0
 15 16  1  0
 16 17  1  6
 16 18  1  0
 18 19  1  0
 18 20  1  0
 18 21  1  0
 21 22  1  0
 16 23  1  0
 23 24  1  6
 23 25  1  0
 25 26  1  0
 23 27  1  0
 27 28  1  1
 27 29  1  0
 29 30  1  0
  4 31  1  0
 31 32  1  0
 31 33  1  0
 31 34  1  0
 27  9  1  0
M  CHG  1   4   1
M  END
>  <UniqueID>  (142) 
141

>  <SMILES>  (142) 
C/[N+](=N/O)C(=O)N[C@@H]1[C@@H](O)O[C@H](CO)[C@@H](O)[C@H]1O

>  <Energy>  (142) 
37.74621842695575

>  <Genealogy>  (142) 
C[NH+](N=O)C(=O)NC1[C@@H](O)OC(CO)[C@@H](O)[C@H]1O (protonated)
C[N+](=NO)C(=O)NC1[C@@H](O)OC(CO)[C@@H](O)[C@H]1O (tautomer)
C[N+](=NO)C(=O)N[C@@H]1[C@@H](O)O[C@H](CO)[C@@H](O)[C@H]1O (chirality)
C/[N+](=N/O)C(=O)N[C@@H]1[C@@H](O)O[C@H](CO)[C@@H](O)[C@H]1O (cis-trans isomerization)
C/[N+](=N/O)C(=O)N[C@@H]1[C@@H](O)O[C@H](CO)[C@@H](O)[C@H]1O (3D coordinates assigned)
C/[N+](=N/O)C(=O)N[C@@H]1[C@@H](O)O[C@H](CO)[C@@H](O)[C@H]1O (nonaromatic ring conformer: 37.74621842695575 kcal/mol)

$$$$
6420074
     RDKit          3D

 34 34  0  0  0  0  0  0  0  0999 V2000
   -4.9780    0.2974    1.8110 H   0  0  0  0  0  0  0  0  0  0  0  0
   -4.4678    1.1597    1.6689 O   0  0  0  0  0  0  0  0  0  0  0  0
   -3.1952    1.1280    1.1427 N   0  0  0  0  0  0  0  0  0  0  0  0
   -2.5151    2.1907    0.9466 N   0  0  0  0  0  4  0  0  0  0  0  0
   -1.2140    2.0851    0.3355 C   0  0  0  0  0  0  0  0  0  0  0  0
   -0.6199    3.1262   -0.0589 O   0  0  0  0  0  0  0  0  0  0  0  0
   -0.5868    0.8009    0.1693 N   0  0  0  0  0  0  0  0  0  0  0  0
   -1.0279   -0.0380    0.6096 H   0  0  0  0  0  0  0  0  0  0  0  0
    0.7380    0.6366   -0.4391 C   0  0  2  0  0  0  0  0  0  0  0  0
    0.9995    1.5342   -1.0435 H   0  0  0  0  0  0  0  0  0  0  0  0
    0.7335   -0.5821   -1.3852 C   0  0  1  0  0  0  0  0  0  0  0  0
    0.4040   -1.4909   -0.8241 H   0  0  0  0  0  0  0  0  0  0  0  0
   -0.1798   -0.3462   -2.4221 O   0  0  0  0  0  0  0  0  0  0  0  0
   -0.2344   -1.1884   -2.9448 H   0  0  0  0  0  0  0  0  0  0  0  0
    2.0217   -0.7818   -1.9456 O   0  0  0  0  0  0  0  0  0  0  0  0
    2.9545   -1.1207   -0.9326 C   0  0  1  0  0  0  0  0  0  0  0  0
    2.5957   -2.0006   -0.3470 H   0  0  0  0  0  0  0  0  0  0  0  0
    4.2783   -1.5369   -1.5894 C   0  0  0  0  0  0  0  0  0  0  0  0
    5.0506   -1.7367   -0.8114 H   0  0  0  0  0  0  0  0  0  0  0  0
    4.6525   -0.7166   -2.2381 H   0  0  0  0  0  0  0  0  0  0  0  0
    4.0910   -2.6756   -2.3860 O   0  0  0  0  0  0  0  0  0  0  0  0
    4.0345   -3.4500   -1.7671 H   0  0  0  0  0  0  0  0  0  0  0  0
    3.1555    0.0715    0.0315 C   0  0  1  0  0  0  0  0  0  0  0  0
    3.8459   -0.2308    0.8555 H   0  0  0  0  0  0  0  0  0  0  0  0
    3.6719    1.1820   -0.6620 O   0  0  0  0  0  0  0  0  0  0  0  0
    4.6605    1.1433   -0.5815 H   0  0  0  0  0  0  0  0  0  0  0  0
    1.8032    0.4443    0.6601 C   0  0  1  0  0  0  0  0  0  0  0  0
    1.4929   -0.3950    1.3288 H   0  0  0  0  0  0  0  0  0  0  0  0
    1.9478    1.6219    1.4126 O   0  0  0  0  0  0  0  0  0  0  0  0
    1.2145    1.6299    2.0817 H   0  0  0  0  0  0  0  0  0  0  0  0
   -3.0890    3.5091    1.2462 C   0  0  0  0  0  0  0  0  0  0  0  0
   -2.2926    4.2691    1.3924 H   0  0  0  0  0  0  0  0  0  0  0  0
   -3.6787    3.4752    2.1868 H   0  0  0  0  0  0  0  0  0  0  0  0
   -3.7467    3.8275    0.4104 H   0  0  0  0  0  0  0  0  0  0  0  0
  1  2  1  0
  2  3  1  0
  3  4  2  0
  4  5  1  0
  5  6  2  0
  5  7  1  0
  7  8  1  0
  7  9  1  0
  9 10  1  6
  9 11  1  0
 11 12  1  1
 11 13  1  0
 13 14  1  0
 11 15  1  0
 15 16  1  0
 16 17  1  1
 16 18  1  0
 18 19  1  0
 18 20  1  0
 18 21  1  0
 21 22  1  0
 16 23  1  0
 23 24  1  1
 23 25  1  0
 25 26  1  0
 23 27  1  0
 27 28  1  1
 27 29  1  0
 29 30  1  0
  4 31  1  0
 31 32  1  0
 31 33  1  0
 31 34  1  0
 27  9  1  0
M  CHG  1   4   1
M  END
>  <UniqueID>  (143) 
142

>  <SMILES>  (143) 
C/[N+](=N/O)C(=O)N[C@@H]1[C@@H](O)O[C@@H](CO)[C@@H](O)[C@H]1O

>  <Energy>  (143) 
29.696533932045597

>  <Genealogy>  (143) 
C[NH+](N=O)C(=O)N[C@@H]1C(O)OC(CO)[C@@H](O)[C@H]1O (protonated)
C[N+](=NO)C(=O)N[C@@H]1C(O)OC(CO)[C@@H](O)[C@H]1O (tautomer)
C[N+](=NO)C(=O)N[C@@H]1[C@@H](O)O[C@@H](CO)[C@@H](O)[C@H]1O (chirality)
C/[N+](=N/O)C(=O)N[C@@H]1[C@@H](O)O[C@@H](CO)[C@@H](O)[C@H]1O (cis-trans isomerization)
C/[N+](=N/O)C(=O)N[C@@H]1[C@@H](O)O[C@@H](CO)[C@@H](O)[C@H]1O (3D coordinates assigned)
C/[N+](=N/O)C(=O)N[C@@H]1[C@@H](O)O[C@@H](CO)[C@@H](O)[C@H]1O (nonaromatic ring conformer: 29.696533932045597 kcal/mol)

$$$$
6420074
     RDKit          3D

 33 33  0  0  0  0  0  0  0  0999 V2000
   -3.0988    2.4434   -1.4293 H   0  0  0  0  0  0  0  0  0  0  0  0
   -2.1397    2.1654   -1.2667 O   0  0  0  0  0  0  0  0  0  0  0  0
   -1.6907    0.8586   -1.4785 C   0  0  0  0  0  0  0  0  0  0  0  0
   -0.4341    0.5747   -1.3037 N   0  0  0  0  0  0  0  0  0  0  0  0
    0.5863    1.5380   -0.8803 C   0  0  1  0  0  0  0  0  0  0  0  0
    0.4562    2.4870   -1.4486 H   0  0  0  0  0  0  0  0  0  0  0  0
    0.4714    1.8166    0.6349 C   0  0  2  0  0  0  0  0  0  0  0  0
   -0.5879    2.0433    0.8978 H   0  0  0  0  0  0  0  0  0  0  0  0
    1.2762    2.9155    0.9834 O   0  0  0  0  0  0  0  0  0  0  0  0
    0.8022    3.7294    0.6690 H   0  0  0  0  0  0  0  0  0  0  0  0
    0.9100    0.5777    1.4414 C   0  0  2  0  0  0  0  0  0  0  0  0
    0.1548   -0.2311    1.2951 H   0  0  0  0  0  0  0  0  0  0  0  0
    0.9966    0.8996    2.8063 O   0  0  0  0  0  0  0  0  0  0  0  0
    0.0652    0.9678    3.1434 H   0  0  0  0  0  0  0  0  0  0  0  0
    2.2786    0.0662    0.9319 C   0  0  1  0  0  0  0  0  0  0  0  0
    3.0640    0.8305    1.1416 H   0  0  0  0  0  0  0  0  0  0  0  0
    2.6849   -1.2188    1.6684 C   0  0  0  0  0  0  0  0  0  0  0  0
    1.9195   -2.0056    1.4952 H   0  0  0  0  0  0  0  0  0  0  0  0
    2.7459   -1.0395    2.7661 H   0  0  0  0  0  0  0  0  0  0  0  0
    3.9177   -1.6873    1.1920 O   0  0  0  0  0  0  0  0  0  0  0  0
    4.6155   -1.0981    1.5817 H   0  0  0  0  0  0  0  0  0  0  0  0
    2.2155   -0.2143   -0.4573 O   0  0  0  0  0  0  0  0  0  0  0  0
    1.9840    0.9740   -1.1955 C   0  0  1  0  0  0  0  0  0  0  0  0
    2.7558    1.7461   -0.9574 H   0  0  0  0  0  0  0  0  0  0  0  0
    2.0639    0.6864   -2.5653 O   0  0  0  0  0  0  0  0  0  0  0  0
    3.0028    0.4160   -2.7409 H   0  0  0  0  0  0  0  0  0  0  0  0
   -2.6128   -0.1785   -1.8791 N   0  0  0  0  0  0  0  0  0  0  0  0
   -2.1807   -1.3466   -2.5365 N   0  0  0  0  0  0  0  0  0  0  0  0
   -0.9929   -1.5135   -2.8832 O   0  0  0  0  0  0  0  0  0  0  0  0
   -4.0465   -0.0155   -1.6566 C   0  0  0  0  0  0  0  0  0  0  0  0
   -4.4697    0.6661   -2.4239 H   0  0  0  0  0  0  0  0  0  0  0  0
   -4.2338    0.3967   -0.6422 H   0  0  0  0  0  0  0  0  0  0  0  0
   -4.5620   -0.9969   -1.7294 H   0  0  0  0  0  0  0  0  0  0  0  0
  1  2  1  0
  2  3  1  0
  3  4  2  0
  4  5  1  0
  5  6  1  6
  5  7  1  0
  7  8  1  6
  7  9  1  0
  9 10  1  0
  7 11  1  0
 11 12  1  1
 11 13  1  0
 13 14  1  0
 11 15  1  0
 15 16  1  6
 15 17  1  0
 17 18  1  0
 17 19  1  0
 17 20  1  0
 20 21  1  0
 15 22  1  0
 22 23  1  0
 23 24  1  1
 23 25  1  0
 25 26  1  0
  3 27  1  0
 27 28  1  0
 28 29  2  0
 27 30  1  0
 30 31  1  0
 30 32  1  0
 30 33  1  0
 23  5  1  0
M  END
>  <UniqueID>  (144) 
143

>  <SMILES>  (144) 
CN(N=O)/C(O)=N/[C@H]1[C@H](O)[C@H](O)[C@@H](CO)O[C@H]1O

>  <Energy>  (144) 
29.866591308803095

>  <Genealogy>  (144) 
CN(N=O)C(O)=N[C@@H]1C(O)OC(CO)[C@@H](O)[C@H]1O (tautomer)
CN(N=O)C(O)=N[C@H]1[C@H](O)[C@H](O)[C@@H](CO)O[C@H]1O (chirality)
CN(N=O)/C(O)=N/[C@H]1[C@H](O)[C@H](O)[C@@H](CO)O[C@H]1O (cis-trans isomerization)
CN(N=O)/C(O)=N/[C@H]1[C@H](O)[C@H](O)[C@@H](CO)O[C@H]1O (3D coordinates assigned)
CN(N=O)/C(O)=N/[C@H]1[C@H](O)[C@H](O)[C@@H](CO)O[C@H]1O (nonaromatic ring conformer: 29.866591308803095 kcal/mol)

$$$$
6420074
     RDKit          3D

 33 33  0  0  0  0  0  0  0  0999 V2000
   -1.0256   -3.8372    1.6955 H   0  0  0  0  0  0  0  0  0  0  0  0
   -1.2249   -2.8961    1.3825 O   0  0  0  0  0  0  0  0  0  0  0  0
   -0.3559   -2.1797    0.5542 C   0  0  0  0  0  0  0  0  0  0  0  0
   -0.6934   -0.9936    0.1422 N   0  0  0  0  0  0  0  0  0  0  0  0
   -1.9452   -0.3146    0.4912 C   0  0  1  0  0  0  0  0  0  0  0  0
   -2.7883   -1.0396    0.4304 H   0  0  0  0  0  0  0  0  0  0  0  0
   -1.8557    0.2580    1.9257 C   0  0  2  0  0  0  0  0  0  0  0  0
   -1.3961   -0.5103    2.5847 H   0  0  0  0  0  0  0  0  0  0  0  0
   -3.1369    0.5123    2.4530 O   0  0  0  0  0  0  0  0  0  0  0  0
   -3.5524    1.2453    1.9328 H   0  0  0  0  0  0  0  0  0  0  0  0
   -0.9481    1.5081    1.9770 C   0  0  2  0  0  0  0  0  0  0  0  0
    0.1040    1.1518    1.8593 H   0  0  0  0  0  0  0  0  0  0  0  0
   -1.1089    2.1466    3.2194 O   0  0  0  0  0  0  0  0  0  0  0  0
   -0.2269    2.5266    3.4708 H   0  0  0  0  0  0  0  0  0  0  0  0
   -1.2760    2.4856    0.8171 C   0  0  1  0  0  0  0  0  0  0  0  0
   -2.2904    2.9217    0.9680 H   0  0  0  0  0  0  0  0  0  0  0  0
   -0.3021    3.6753    0.7881 C   0  0  0  0  0  0  0  0  0  0  0  0
   -0.3851    4.2547    1.7317 H   0  0  0  0  0  0  0  0  0  0  0  0
   -0.5801    4.3662   -0.0407 H   0  0  0  0  0  0  0  0  0  0  0  0
    1.0249    3.2449    0.6369 O   0  0  0  0  0  0  0  0  0  0  0  0
    1.1481    3.0286   -0.3241 H   0  0  0  0  0  0  0  0  0  0  0  0
   -1.2094    1.8205   -0.4338 O   0  0  0  0  0  0  0  0  0  0  0  0
   -2.2121    0.8205   -0.5212 C   0  0  1  0  0  0  0  0  0  0  0  0
   -3.2156    1.2629   -0.3304 H   0  0  0  0  0  0  0  0  0  0  0  0
   -2.2559    0.3039   -1.8269 O   0  0  0  0  0  0  0  0  0  0  0  0
   -1.3202    0.1530   -2.1223 H   0  0  0  0  0  0  0  0  0  0  0  0
    0.9163   -2.7420    0.1638 N   0  0  0  0  0  0  0  0  0  0  0  0
    1.6089   -2.2986   -0.9797 N   0  0  0  0  0  0  0  0  0  0  0  0
    1.1264   -1.4558   -1.7642 O   0  0  0  0  0  0  0  0  0  0  0  0
    1.5033   -3.8378    0.9296 C   0  0  0  0  0  0  0  0  0  0  0  0
    2.5833   -3.9409    0.6900 H   0  0  0  0  0  0  0  0  0  0  0  0
    1.4106   -3.6385    2.0185 H   0  0  0  0  0  0  0  0  0  0  0  0
    0.9908   -4.7893    0.6758 H   0  0  0  0  0  0  0  0  0  0  0  0
  1  2  1  0
  2  3  1  0
  3  4  2  0
  4  5  1  0
  5  6  1  1
  5  7  1  0
  7  8  1  1
  7  9  1  0
  9 10  1  0
  7 11  1  0
 11 12  1  6
 11 13  1  0
 13 14  1  0
 11 15  1  0
 15 16  1  1
 15 17  1  0
 17 18  1  0
 17 19  1  0
 17 20  1  0
 20 21  1  0
 15 22  1  0
 22 23  1  0
 23 24  1  1
 23 25  1  0
 25 26  1  0
  3 27  1  0
 27 28  1  0
 28 29  2  0
 27 30  1  0
 30 31  1  0
 30 32  1  0
 30 33  1  0
 23  5  1  0
M  END
>  <UniqueID>  (145) 
144

>  <SMILES>  (145) 
CN(N=O)/C(O)=N\[C@H]1[C@H](O)[C@H](O)[C@@H](CO)O[C@H]1O

>  <Energy>  (145) 
33.95637495294219

>  <Genealogy>  (145) 
CN(N=O)C(O)=N[C@@H]1C(O)OC(CO)[C@@H](O)[C@H]1O (tautomer)
CN(N=O)C(O)=N[C@H]1[C@H](O)[C@H](O)[C@@H](CO)O[C@H]1O (chirality)
CN(N=O)/C(O)=N\[C@H]1[C@H](O)[C@H](O)[C@@H](CO)O[C@H]1O (cis-trans isomerization)
CN(N=O)/C(O)=N\[C@H]1[C@H](O)[C@H](O)[C@@H](CO)O[C@H]1O (3D coordinates assigned)
CN(N=O)/C(O)=N\[C@H]1[C@H](O)[C@H](O)[C@@H](CO)O[C@H]1O (nonaromatic ring conformer: 33.95637495294219 kcal/mol)

$$$$
6323218
     RDKit          3D

 38 38  0  0  0  0  0  0  0  0999 V2000
   -1.5403    3.4352    1.0108 C   0  0  0  0  0  0  0  0  0  0  0  0
   -1.4233    2.2302    0.1360 C   0  0  0  0  0  0  0  0  0  0  0  0
   -2.2702    2.0399   -0.7784 O   0  0  0  0  0  0  0  0  0  0  0  0
   -0.3320    1.3184    0.3195 N   0  0  0  0  0  0  0  0  0  0  0  0
   -0.1201    0.1569   -0.5502 C   0  0  1  0  0  0  0  0  0  0  0  0
    0.7377    0.5508   -1.7724 C   0  0  1  0  0  0  0  0  0  0  0  0
    1.9565    1.1404   -1.3842 O   0  0  0  0  0  0  0  0  0  0  0  0
    0.9716   -0.5686   -2.6114 O   0  0  0  0  0  0  0  0  0  0  0  0
    1.6880   -1.5920   -1.9357 C   0  0  2  0  0  0  0  0  0  0  0  0
    2.0159   -2.7060   -2.9438 C   0  0  0  0  0  0  0  0  0  0  0  0
    0.8469   -3.2901   -3.4550 O   0  0  0  0  0  0  0  0  0  0  0  0
    0.8785   -2.1380   -0.7357 C   0  0  1  0  0  0  0  0  0  0  0  0
    1.6320   -3.1187   -0.0689 O   0  0  0  0  0  0  0  0  0  0  0  0
    0.5440   -0.9884    0.2338 C   0  0  2  0  0  0  0  0  0  0  0  0
   -0.3704   -1.4508    1.2187 O   0  0  0  0  0  0  0  0  0  0  0  0
    0.2569   -1.6592    2.4724 C   0  0  2  0  0  0  0  0  0  0  0  0
   -0.5457   -2.6969    3.2528 C   0  0  0  0  0  0  0  0  0  0  0  0
    0.3010   -0.3717    3.2453 C   0  0  0  0  0  0  0  0  0  0  0  0
    1.3831    0.0264    3.7510 O   0  0  0  0  0  0  0  0  0  0  0  0
   -0.8551    0.3802    3.4177 O   0  0  0  0  0  1  0  0  0  0  0  0
   -0.7549    4.1691    0.7350 H   0  0  0  0  0  0  0  0  0  0  0  0
   -2.5382    3.9084    0.8918 H   0  0  0  0  0  0  0  0  0  0  0  0
   -1.4090    3.1410    2.0731 H   0  0  0  0  0  0  0  0  0  0  0  0
    0.4046    1.5667    1.0187 H   0  0  0  0  0  0  0  0  0  0  0  0
   -1.1034   -0.2119   -0.9215 H   0  0  0  0  0  0  0  0  0  0  0  0
    0.1531    1.2854   -2.3734 H   0  0  0  0  0  0  0  0  0  0  0  0
    1.7672    2.0921   -1.1746 H   0  0  0  0  0  0  0  0  0  0  0  0
    2.6664   -1.2032   -1.5697 H   0  0  0  0  0  0  0  0  0  0  0  0
    2.6346   -2.2909   -3.7724 H   0  0  0  0  0  0  0  0  0  0  0  0
    2.6226   -3.4949   -2.4508 H   0  0  0  0  0  0  0  0  0  0  0  0
    0.5011   -2.6752   -4.1533 H   0  0  0  0  0  0  0  0  0  0  0  0
   -0.0747   -2.5768   -1.1182 H   0  0  0  0  0  0  0  0  0  0  0  0
    0.9862   -3.7246    0.3798 H   0  0  0  0  0  0  0  0  0  0  0  0
    1.4978   -0.5940    0.6651 H   0  0  0  0  0  0  0  0  0  0  0  0
    1.2883   -2.0713    2.3629 H   0  0  0  0  0  0  0  0  0  0  0  0
   -0.5611   -3.6561    2.6927 H   0  0  0  0  0  0  0  0  0  0  0  0
   -1.5932   -2.3545    3.3971 H   0  0  0  0  0  0  0  0  0  0  0  0
   -0.0814   -2.8773    4.2462 H   0  0  0  0  0  0  0  0  0  0  0  0
  1  2  1  0
  2  3  2  0
  2  4  1  0
  4  5  1  0
  5  6  1  0
  6  7  1  0
  6  8  1  0
  8  9  1  0
  9 10  1  0
 10 11  1  0
  9 12  1  0
 12 13  1  0
 12 14  1  0
 14 15  1  0
 15 16  1  0
 16 17  1  0
 16 18  1  0
 18 19  2  0
 18 20  1  0
 14  5  1  0
  1 21  1  0
  1 22  1  0
  1 23  1  0
  4 24  1  0
  5 25  1  6
  6 26  1  6
  7 27  1  0
  9 28  1  1
 10 29  1  0
 10 30  1  0
 11 31  1  0
 12 32  1  6
 13 33  1  0
 14 34  1  1
 16 35  1  6
 17 36  1  0
 17 37  1  0
 17 38  1  0
M  CHG  1  20  -1
M  END
>  <UniqueID>  (146) 
145

>  <SMILES>  (146) 
CC(=O)N[C@H]1[C@@H](O)O[C@H](CO)[C@@H](O)[C@@H]1O[C@H](C)C(=O)[O-]

>  <Energy>  (146) 
33.117684029864414

>  <Genealogy>  (146) 
CC(=O)N[C@H]1[C@@H](O)O[C@H](CO)[C@@H](O)[C@@H]1O[C@H](C)C(=O)[O-] (protonated)
CC(=O)N[C@H]1[C@@H](O)O[C@H](CO)[C@@H](O)[C@@H]1O[C@H](C)C(=O)[O-] (3D coordinates assigned)
CC(=O)N[C@H]1[C@@H](O)O[C@H](CO)[C@@H](O)[C@@H]1O[C@H](C)C(=O)[O-] (nonaromatic ring conformer: 33.117684029864414 kcal/mol)

$$$$
6323218
     RDKit          3D

 38 38  0  0  0  0  0  0  0  0999 V2000
   -2.7175   -1.0370    1.9839 C   0  0  0  0  0  0  0  0  0  0  0  0
   -1.5356   -0.3536    2.6068 C   0  0  0  0  0  0  0  0  0  0  0  0
   -1.1439   -0.7455    3.8836 O   0  0  0  0  0  0  0  0  0  0  0  0
   -0.8806    0.6025    2.0095 N   0  0  0  0  0  0  0  0  0  0  0  0
   -1.1294    1.1366    0.6660 C   0  0  1  0  0  0  0  0  0  0  0  0
   -1.0218    2.6734    0.7030 C   0  0  1  0  0  0  0  0  0  0  0  0
    0.2097    3.0810    1.2468 O   0  0  0  0  0  0  0  0  0  0  0  0
   -1.2280    3.2366   -0.5848 O   0  0  0  0  0  0  0  0  0  0  0  0
   -0.2433    2.8022   -1.5110 C   0  0  2  0  0  0  0  0  0  0  0  0
   -0.4719    3.5321   -2.8409 C   0  0  0  0  0  0  0  0  0  0  0  0
   -1.7525    3.2540   -3.3381 O   0  0  0  0  0  0  0  0  0  0  0  0
   -0.2981    1.2628   -1.6953 C   0  0  1  0  0  0  0  0  0  0  0  0
    0.6705    0.8218   -2.6153 O   0  0  0  0  0  0  0  0  0  0  0  0
   -0.1138    0.5577   -0.3393 C   0  0  2  0  0  0  0  0  0  0  0  0
   -0.3470   -0.8321   -0.5183 O   0  0  0  0  0  0  0  0  0  0  0  0
    0.6252   -1.6311    0.1372 C   0  0  2  0  0  0  0  0  0  0  0  0
    1.8354   -1.8535   -0.7749 C   0  0  0  0  0  0  0  0  0  0  0  0
    0.0077   -2.9544    0.4772 C   0  0  0  0  0  0  0  0  0  0  0  0
   -0.6650   -3.5834   -0.3823 O   0  0  0  0  0  0  0  0  0  0  0  0
    0.1993   -3.5081    1.7370 O   0  0  0  0  0  1  0  0  0  0  0  0
   -3.0389   -1.8899    2.6176 H   0  0  0  0  0  0  0  0  0  0  0  0
   -3.5629   -0.3226    1.9001 H   0  0  0  0  0  0  0  0  0  0  0  0
   -2.4599   -1.4306    0.9801 H   0  0  0  0  0  0  0  0  0  0  0  0
   -0.3548   -0.3095    4.3461 H   0  0  0  0  0  0  0  0  0  0  0  0
   -2.1600    0.8929    0.3261 H   0  0  0  0  0  0  0  0  0  0  0  0
   -1.8375    3.0424    1.3655 H   0  0  0  0  0  0  0  0  0  0  0  0
    0.1594    4.0675    1.3435 H   0  0  0  0  0  0  0  0  0  0  0  0
    0.7721    3.0971   -1.1586 H   0  0  0  0  0  0  0  0  0  0  0  0
   -0.3696    4.6276   -2.6721 H   0  0  0  0  0  0  0  0  0  0  0  0
    0.2990    3.2242   -3.5824 H   0  0  0  0  0  0  0  0  0  0  0  0
   -1.8299    3.7522   -4.1929 H   0  0  0  0  0  0  0  0  0  0  0  0
   -1.2990    0.9874   -2.0963 H   0  0  0  0  0  0  0  0  0  0  0  0
    1.5587    1.1133   -2.2807 H   0  0  0  0  0  0  0  0  0  0  0  0
    0.9187    0.7901    0.0209 H   0  0  0  0  0  0  0  0  0  0  0  0
    0.9712   -1.1758    1.0947 H   0  0  0  0  0  0  0  0  0  0  0  0
    1.5138   -2.2761   -1.7510 H   0  0  0  0  0  0  0  0  0  0  0  0
    2.5556   -2.5514   -0.2962 H   0  0  0  0  0  0  0  0  0  0  0  0
    2.3603   -0.8936   -0.9585 H   0  0  0  0  0  0  0  0  0  0  0  0
  1  2  1  0
  2  3  1  0
  2  4  2  3
  4  5  1  0
  5  6  1  0
  6  7  1  0
  6  8  1  0
  8  9  1  0
  9 10  1  0
 10 11  1  0
  9 12  1  0
 12 13  1  0
 12 14  1  0
 14 15  1  0
 15 16  1  0
 16 17  1  0
 16 18  1  0
 18 19  2  0
 18 20  1  0
 14  5  1  0
  1 21  1  0
  1 22  1  0
  1 23  1  0
  3 24  1  0
  5 25  1  6
  6 26  1  1
  7 27  1  0
  9 28  1  1
 10 29  1  0
 10 30  1  0
 11 31  1  0
 12 32  1  6
 13 33  1  0
 14 34  1  1
 16 35  1  1
 17 36  1  0
 17 37  1  0
 17 38  1  0
M  CHG  1  20  -1
M  END
>  <UniqueID>  (147) 
146

>  <SMILES>  (147) 
CC(O)=N[C@H]1[C@@H](O)O[C@H](CO)[C@@H](O)[C@@H]1O[C@H](C)C(=O)[O-]

>  <Energy>  (147) 
35.85666236596238

>  <Genealogy>  (147) 
CC(=O)N[C@H]1[C@@H](O)O[C@H](CO)[C@@H](O)[C@@H]1O[C@H](C)C(=O)[O-] (protonated)
CC(O)=N[C@H]1[C@@H](O)O[C@H](CO)[C@@H](O)[C@@H]1O[C@H](C)C(=O)[O-] (tautomer)
CC(O)=N[C@H]1[C@@H](O)O[C@H](CO)[C@@H](O)[C@@H]1O[C@H](C)C(=O)[O-] (3D coordinates assigned)
CC(O)=N[C@H]1[C@@H](O)O[C@H](CO)[C@@H](O)[C@@H]1O[C@H](C)C(=O)[O-] (nonaromatic ring conformer: 35.85666236596238 kcal/mol)

$$$$
6323218
     RDKit          3D

 38 38  0  0  0  0  0  0  0  0999 V2000
    0.4657    4.0380   -0.2128 C   0  0  0  0  0  0  0  0  0  0  0  0
   -0.0678    2.6816    0.1138 C   0  0  0  0  0  0  0  0  0  0  0  0
   -0.6303    2.4845    1.2250 O   0  0  0  0  0  0  0  0  0  0  0  0
    0.0324    1.6231   -0.8490 N   0  0  0  0  0  0  0  0  0  0  0  0
   -0.4431    0.2606   -0.5713 C   0  0  1  0  0  0  0  0  0  0  0  0
   -0.6371   -0.5309   -1.8791 C   0  0  1  0  0  0  0  0  0  0  0  0
   -1.5191    0.1750   -2.7097 O   0  0  0  0  0  0  0  0  0  0  0  0
    0.5953   -0.7080   -2.5602 O   0  0  0  0  0  0  0  0  0  0  0  0
    1.5301   -1.4719   -1.8091 C   0  0  2  0  0  0  0  0  0  0  0  0
    1.1619   -2.9728   -1.7647 C   0  0  0  0  0  0  0  0  0  0  0  0
    2.2448   -3.7351   -1.3020 O   0  0  0  0  0  0  0  0  0  0  0  0
    1.8298   -0.8508   -0.4160 C   0  0  1  0  0  0  0  0  0  0  0  0
    2.6070    0.3096   -0.5776 O   0  0  0  0  0  0  0  0  0  0  0  0
    0.5406   -0.4831    0.3516 C   0  0  2  0  0  0  0  0  0  0  0  0
   -0.0940   -1.6565    0.8386 O   0  0  0  0  0  0  0  0  0  0  0  0
    0.3070   -1.9652    2.1626 C   0  0  2  0  0  0  0  0  0  0  0  0
    0.1606   -3.4689    2.3780 C   0  0  0  0  0  0  0  0  0  0  0  0
   -0.5521   -1.2258    3.1488 C   0  0  0  0  0  0  0  0  0  0  0  0
   -1.7938   -1.1242    2.9624 O   0  0  0  0  0  0  0  0  0  0  0  0
    0.0169   -0.6813    4.2930 O   0  0  0  0  0  1  0  0  0  0  0  0
    1.4970    3.9475   -0.6135 H   0  0  0  0  0  0  0  0  0  0  0  0
    0.4899    4.6770    0.6954 H   0  0  0  0  0  0  0  0  0  0  0  0
   -0.1826    4.5161   -0.9761 H   0  0  0  0  0  0  0  0  0  0  0  0
    0.4393    1.8481   -1.7857 H   0  0  0  0  0  0  0  0  0  0  0  0
   -1.4328    0.3251   -0.0651 H   0  0  0  0  0  0  0  0  0  0  0  0
   -1.1090   -1.5120   -1.6452 H   0  0  0  0  0  0  0  0  0  0  0  0
   -1.6936   -0.4073   -3.4947 H   0  0  0  0  0  0  0  0  0  0  0  0
    2.4821   -1.4265   -2.3825 H   0  0  0  0  0  0  0  0  0  0  0  0
    0.8652   -3.3130   -2.7831 H   0  0  0  0  0  0  0  0  0  0  0  0
    0.3009   -3.1616   -1.0958 H   0  0  0  0  0  0  0  0  0  0  0  0
    2.8839   -3.8124   -2.0577 H   0  0  0  0  0  0  0  0  0  0  0  0
    2.4071   -1.5818    0.1964 H   0  0  0  0  0  0  0  0  0  0  0  0
    3.5386    0.0141   -0.7535 H   0  0  0  0  0  0  0  0  0  0  0  0
    0.8060    0.2125    1.1845 H   0  0  0  0  0  0  0  0  0  0  0  0
    1.3786   -1.7153    2.3471 H   0  0  0  0  0  0  0  0  0  0  0  0
    0.8107   -4.0135    1.6604 H   0  0  0  0  0  0  0  0  0  0  0  0
   -0.8919   -3.7862    2.2144 H   0  0  0  0  0  0  0  0  0  0  0  0
    0.4678   -3.7433    3.4101 H   0  0  0  0  0  0  0  0  0  0  0  0
  1  2  1  0
  2  3  2  0
  2  4  1  0
  4  5  1  0
  5  6  1  0
  6  7  1  0
  6  8  1  0
  8  9  1  0
  9 10  1  0
 10 11  1  0
  9 12  1  0
 12 13  1  0
 12 14  1  0
 14 15  1  0
 15 16  1  0
 16 17  1  0
 16 18  1  0
 18 19  2  0
 18 20  1  0
 14  5  1  0
  1 21  1  0
  1 22  1  0
  1 23  1  0
  4 24  1  0
  5 25  1  1
  6 26  1  1
  7 27  1  0
  9 28  1  6
 10 29  1  0
 10 30  1  0
 11 31  1  0
 12 32  1  1
 13 33  1  0
 14 34  1  1
 16 35  1  6
 17 36  1  0
 17 37  1  0
 17 38  1  0
M  CHG  1  20  -1
M  END
>  <UniqueID>  (148) 
147

>  <SMILES>  (148) 
CC(=O)N[C@H]1[C@@H](O)O[C@H](CO)[C@@H](O)[C@@H]1O[C@H](C)C(=O)[O-]

>  <Energy>  (148) 
36.228664014084

>  <Genealogy>  (148) 
CC(=O)N[C@H]1[C@@H](O)O[C@H](CO)[C@@H](O)[C@@H]1O[C@H](C)C(=O)[O-] (protonated)
CC(=O)N[C@H]1[C@@H](O)O[C@H](CO)[C@@H](O)[C@@H]1O[C@H](C)C(=O)[O-] (3D coordinates assigned)
CC(=O)N[C@H]1[C@@H](O)O[C@H](CO)[C@@H](O)[C@@H]1O[C@H](C)C(=O)[O-] (nonaromatic ring conformer: 36.228664014084 kcal/mol)

$$$$
5462244
     RDKit          3D

 38 38  0  0  0  0  0  0  0  0999 V2000
   -2.6787   -1.1402    1.7368 C   0  0  0  0  0  0  0  0  0  0  0  0
   -1.6560   -0.1449    1.2963 C   0  0  0  0  0  0  0  0  0  0  0  0
   -1.7141    0.3331    0.1311 O   0  0  0  0  0  0  0  0  0  0  0  0
   -0.6217    0.2632    2.2026 N   0  0  0  0  0  0  0  0  0  0  0  0
    0.4871    1.1355    1.8033 C   0  0  1  0  0  0  0  0  0  0  0  0
    0.7796    2.1562    2.9199 C   0  0  2  0  0  0  0  0  0  0  0  0
   -0.3614    2.9448    3.1232 O   0  0  0  0  0  0  0  0  0  0  0  0
    1.8570    2.9982    2.5462 O   0  0  0  0  0  0  0  0  0  0  0  0
    3.0566    2.2511    2.4297 C   0  0  2  0  0  0  0  0  0  0  0  0
    4.2215    3.2300    2.2189 C   0  0  0  0  0  0  0  0  0  0  0  0
    4.0154    4.0197    1.0770 O   0  0  0  0  0  0  0  0  0  0  0  0
    2.9442    1.2277    1.2725 C   0  0  1  0  0  0  0  0  0  0  0  0
    4.1151    0.4542    1.1923 O   0  0  0  0  0  0  0  0  0  0  0  0
    1.7474    0.2944    1.5188 C   0  0  2  0  0  0  0  0  0  0  0  0
    1.5413   -0.4908    0.3528 O   0  0  0  0  0  0  0  0  0  0  0  0
    1.3270   -1.8602    0.6548 C   0  0  2  0  0  0  0  0  0  0  0  0
    2.6649   -2.5997    0.7403 C   0  0  0  0  0  0  0  0  0  0  0  0
    0.4903   -2.4662   -0.4318 C   0  0  0  0  0  0  0  0  0  0  0  0
    0.7229   -2.1977   -1.6405 O   0  0  0  0  0  0  0  0  0  0  0  0
   -0.5220   -3.3623   -0.1116 O   0  0  0  0  0  1  0  0  0  0  0  0
   -3.3399   -1.4231    0.8902 H   0  0  0  0  0  0  0  0  0  0  0  0
   -2.1711   -2.0522    2.1147 H   0  0  0  0  0  0  0  0  0  0  0  0
   -3.2961   -0.7022    2.5483 H   0  0  0  0  0  0  0  0  0  0  0  0
   -0.5840   -0.1893    3.1446 H   0  0  0  0  0  0  0  0  0  0  0  0
    0.2183    1.7043    0.8845 H   0  0  0  0  0  0  0  0  0  0  0  0
    1.0117    1.6170    3.8710 H   0  0  0  0  0  0  0  0  0  0  0  0
   -0.1724    3.5127    3.9152 H   0  0  0  0  0  0  0  0  0  0  0  0
    3.2679    1.7071    3.3808 H   0  0  0  0  0  0  0  0  0  0  0  0
    5.1917    2.6843    2.1633 H   0  0  0  0  0  0  0  0  0  0  0  0
    4.2829    3.9031    3.1005 H   0  0  0  0  0  0  0  0  0  0  0  0
    4.4603    3.5559    0.3207 H   0  0  0  0  0  0  0  0  0  0  0  0
    2.7646    1.7716    0.3133 H   0  0  0  0  0  0  0  0  0  0  0  0
    4.7043    0.8824    0.5179 H   0  0  0  0  0  0  0  0  0  0  0  0
    1.9853   -0.3125    2.4276 H   0  0  0  0  0  0  0  0  0  0  0  0
    0.7714   -2.0019    1.6114 H   0  0  0  0  0  0  0  0  0  0  0  0
    3.2449   -2.4629   -0.1977 H   0  0  0  0  0  0  0  0  0  0  0  0
    2.4950   -3.6851    0.9077 H   0  0  0  0  0  0  0  0  0  0  0  0
    3.2653   -2.2107    1.5887 H   0  0  0  0  0  0  0  0  0  0  0  0
  1  2  1  0
  2  3  2  0
  2  4  1  0
  4  5  1  0
  5  6  1  0
  6  7  1  0
  6  8  1  0
  8  9  1  0
  9 10  1  0
 10 11  1  0
  9 12  1  0
 12 13  1  0
 12 14  1  0
 14 15  1  0
 15 16  1  0
 16 17  1  0
 16 18  1  0
 18 19  2  0
 18 20  1  0
 14  5  1  0
  1 21  1  0
  1 22  1  0
  1 23  1  0
  4 24  1  0
  5 25  1  6
  6 26  1  1
  7 27  1  0
  9 28  1  1
 10 29  1  0
 10 30  1  0
 11 31  1  0
 12 32  1  6
 13 33  1  0
 14 34  1  1
 16 35  1  1
 17 36  1  0
 17 37  1  0
 17 38  1  0
M  CHG  1  20  -1
M  END
>  <UniqueID>  (149) 
148

>  <SMILES>  (149) 
CC(=O)N[C@H]1[C@H](O)O[C@H](CO)[C@@H](O)[C@@H]1O[C@H](C)C(=O)[O-]

>  <Energy>  (149) 
31.046062265857554

>  <Genealogy>  (149) 
CC(=O)N[C@H]1C(O)O[C@H](CO)[C@@H](O)[C@@H]1O[C@H](C)C(=O)[O-] (protonated)
CC(=O)N[C@H]1[C@H](O)O[C@H](CO)[C@@H](O)[C@@H]1O[C@H](C)C(=O)[O-] (chirality)
CC(=O)N[C@H]1[C@H](O)O[C@H](CO)[C@@H](O)[C@@H]1O[C@H](C)C(=O)[O-] (3D coordinates assigned)
CC(=O)N[C@H]1[C@H](O)O[C@H](CO)[C@@H](O)[C@@H]1O[C@H](C)C(=O)[O-] (nonaromatic ring conformer: 31.046062265857554 kcal/mol)

$$$$
5462244
     RDKit          3D

 38 38  0  0  0  0  0  0  0  0999 V2000
   -2.9291   -1.0619    1.6591 C   0  0  0  0  0  0  0  0  0  0  0  0
   -1.9314   -0.0289    1.2479 C   0  0  0  0  0  0  0  0  0  0  0  0
   -2.2199    0.7794    0.3247 O   0  0  0  0  0  0  0  0  0  0  0  0
   -0.6726    0.0591    1.9309 N   0  0  0  0  0  0  0  0  0  0  0  0
    0.3473    1.0639    1.6121 C   0  0  1  0  0  0  0  0  0  0  0  0
    0.6180    1.9502    2.8460 C   0  0  2  0  0  0  0  0  0  0  0  0
   -0.5562    2.6347    3.1974 O   0  0  0  0  0  0  0  0  0  0  0  0
    1.6121    2.9121    2.5438 O   0  0  0  0  0  0  0  0  0  0  0  0
    2.8614    2.2871    2.3000 C   0  0  2  0  0  0  0  0  0  0  0  0
    3.9192    3.3927    2.1458 C   0  0  0  0  0  0  0  0  0  0  0  0
    5.2139    2.8562    2.0907 O   0  0  0  0  0  0  0  0  0  0  0  0
    2.7742    1.4040    1.0260 C   0  0  1  0  0  0  0  0  0  0  0  0
    3.9984    0.7662    0.7576 O   0  0  0  0  0  0  0  0  0  0  0  0
    1.6438    0.3629    1.1707 C   0  0  2  0  0  0  0  0  0  0  0  0
    1.4153   -0.2635   -0.0842 O   0  0  0  0  0  0  0  0  0  0  0  0
    1.9513   -1.5748   -0.1293 C   0  0  2  0  0  0  0  0  0  0  0  0
    2.2384   -1.9372   -1.5847 C   0  0  0  0  0  0  0  0  0  0  0  0
    0.9732   -2.5526    0.4589 C   0  0  0  0  0  0  0  0  0  0  0  0
   -0.1962   -2.6394   -0.0011 O   0  0  0  0  0  0  0  0  0  0  0  0
    1.3550   -3.3638    1.5201 O   0  0  0  0  0  1  0  0  0  0  0  0
   -3.4061   -0.7546    2.6131 H   0  0  0  0  0  0  0  0  0  0  0  0
   -2.4223   -2.0390    1.8034 H   0  0  0  0  0  0  0  0  0  0  0  0
   -3.7130   -1.1779    0.8802 H   0  0  0  0  0  0  0  0  0  0  0  0
   -0.4759   -0.6214    2.7000 H   0  0  0  0  0  0  0  0  0  0  0  0
    0.0030    1.7229    0.7834 H   0  0  0  0  0  0  0  0  0  0  0  0
    0.9449    1.3195    3.7107 H   0  0  0  0  0  0  0  0  0  0  0  0
   -1.1125    2.0078    3.7299 H   0  0  0  0  0  0  0  0  0  0  0  0
    3.1547    1.6628    3.1771 H   0  0  0  0  0  0  0  0  0  0  0  0
    3.7292    3.9706    1.2161 H   0  0  0  0  0  0  0  0  0  0  0  0
    3.8437    4.1050    2.9993 H   0  0  0  0  0  0  0  0  0  0  0  0
    5.4467    2.5787    3.0152 H   0  0  0  0  0  0  0  0  0  0  0  0
    2.5334    2.0599    0.1598 H   0  0  0  0  0  0  0  0  0  0  0  0
    4.2284    0.2127    1.5495 H   0  0  0  0  0  0  0  0  0  0  0  0
    1.9204   -0.3568    1.9816 H   0  0  0  0  0  0  0  0  0  0  0  0
    2.9229   -1.6500    0.4129 H   0  0  0  0  0  0  0  0  0  0  0  0
    1.3114   -1.8741   -2.1946 H   0  0  0  0  0  0  0  0  0  0  0  0
    2.6496   -2.9676   -1.6521 H   0  0  0  0  0  0  0  0  0  0  0  0
    2.9865   -1.2318   -2.0048 H   0  0  0  0  0  0  0  0  0  0  0  0
  1  2  1  0
  2  3  2  0
  2  4  1  0
  4  5  1  0
  5  6  1  0
  6  7  1  0
  6  8  1  0
  8  9  1  0
  9 10  1  0
 10 11  1  0
  9 12  1  0
 12 13  1  0
 12 14  1  0
 14 15  1  0
 15 16  1  0
 16 17  1  0
 16 18  1  0
 18 19  2  0
 18 20  1  0
 14  5  1  0
  1 21  1  0
  1 22  1  0
  1 23  1  0
  4 24  1  0
  5 25  1  6
  6 26  1  1
  7 27  1  0
  9 28  1  1
 10 29  1  0
 10 30  1  0
 11 31  1  0
 12 32  1  6
 13 33  1  0
 14 34  1  1
 16 35  1  1
 17 36  1  0
 17 37  1  0
 17 38  1  0
M  CHG  1  20  -1
M  END
>  <UniqueID>  (150) 
149

>  <SMILES>  (150) 
CC(=O)N[C@H]1[C@H](O)O[C@H](CO)[C@@H](O)[C@@H]1O[C@H](C)C(=O)[O-]

>  <Energy>  (150) 
32.16006110800916

>  <Genealogy>  (150) 
CC(=O)N[C@H]1C(O)O[C@H](CO)[C@@H](O)[C@@H]1O[C@H](C)C(=O)[O-] (protonated)
CC(=O)N[C@H]1[C@H](O)O[C@H](CO)[C@@H](O)[C@@H]1O[C@H](C)C(=O)[O-] (chirality)
CC(=O)N[C@H]1[C@H](O)O[C@H](CO)[C@@H](O)[C@@H]1O[C@H](C)C(=O)[O-] (3D coordinates assigned)
CC(=O)N[C@H]1[C@H](O)O[C@H](CO)[C@@H](O)[C@@H]1O[C@H](C)C(=O)[O-] (nonaromatic ring conformer: 32.16006110800916 kcal/mol)

$$$$
5462244
     RDKit          3D

 38 38  0  0  0  0  0  0  0  0999 V2000
   -3.6265    0.3968   -3.8266 C   0  0  0  0  0  0  0  0  0  0  0  0
   -3.2881    0.3223   -2.3736 C   0  0  0  0  0  0  0  0  0  0  0  0
   -4.2112    0.3754   -1.5165 O   0  0  0  0  0  0  0  0  0  0  0  0
   -1.9235    0.1536   -1.9661 N   0  0  0  0  0  0  0  0  0  0  0  0
   -1.5300    0.0012   -0.5618 C   0  0  1  0  0  0  0  0  0  0  0  0
   -1.4656   -1.4917   -0.1893 C   0  0  1  0  0  0  0  0  0  0  0  0
   -0.6302   -2.1981   -1.0732 O   0  0  0  0  0  0  0  0  0  0  0  0
   -1.0529   -1.6644    1.1578 O   0  0  0  0  0  0  0  0  0  0  0  0
    0.2533   -1.1525    1.3783 C   0  0  2  0  0  0  0  0  0  0  0  0
    0.6509   -1.4919    2.8222 C   0  0  0  0  0  0  0  0  0  0  0  0
    2.0121   -1.2336    3.0311 O   0  0  0  0  0  0  0  0  0  0  0  0
    0.2910    0.3755    1.1278 C   0  0  1  0  0  0  0  0  0  0  0  0
    1.5988    0.8551    1.3104 O   0  0  0  0  0  0  0  0  0  0  0  0
   -0.1748    0.6827   -0.3086 C   0  0  2  0  0  0  0  0  0  0  0  0
   -0.3397    2.0860   -0.4624 O   0  0  0  0  0  0  0  0  0  0  0  0
    0.7046    2.6647   -1.2261 C   0  0  2  0  0  0  0  0  0  0  0  0
    0.8258    4.1386   -0.8485 C   0  0  0  0  0  0  0  0  0  0  0  0
    0.3977    2.5437   -2.6919 C   0  0  0  0  0  0  0  0  0  0  0  0
    1.2536    2.0633   -3.4804 O   0  0  0  0  0  0  0  0  0  0  0  0
   -0.8280    2.9724   -3.1872 O   0  0  0  0  0  1  0  0  0  0  0  0
   -3.5391   -0.6131   -4.2780 H   0  0  0  0  0  0  0  0  0  0  0  0
   -2.9264    1.0886   -4.3401 H   0  0  0  0  0  0  0  0  0  0  0  0
   -4.6634    0.7696   -3.9666 H   0  0  0  0  0  0  0  0  0  0  0  0
   -1.2038   -0.0003   -2.7088 H   0  0  0  0  0  0  0  0  0  0  0  0
   -2.2848    0.4902    0.0953 H   0  0  0  0  0  0  0  0  0  0  0  0
   -2.4984   -1.8980   -0.2802 H   0  0  0  0  0  0  0  0  0  0  0  0
   -0.7294   -3.1585   -0.8435 H   0  0  0  0  0  0  0  0  0  0  0  0
    0.9861   -1.6606    0.7091 H   0  0  0  0  0  0  0  0  0  0  0  0
    0.4551   -2.5724    3.0054 H   0  0  0  0  0  0  0  0  0  0  0  0
    0.0348   -0.8995    3.5360 H   0  0  0  0  0  0  0  0  0  0  0  0
    2.1926   -1.4585    3.9807 H   0  0  0  0  0  0  0  0  0  0  0  0
   -0.4052    0.8679    1.8495 H   0  0  0  0  0  0  0  0  0  0  0  0
    1.5236    1.8107    1.5690 H   0  0  0  0  0  0  0  0  0  0  0  0
    0.5635    0.2418   -1.0241 H   0  0  0  0  0  0  0  0  0  0  0  0
    1.6939    2.1975   -1.0053 H   0  0  0  0  0  0  0  0  0  0  0  0
   -0.1313    4.6713   -1.0369 H   0  0  0  0  0  0  0  0  0  0  0  0
    1.0745    4.2290    0.2303 H   0  0  0  0  0  0  0  0  0  0  0  0
    1.6343    4.6231   -1.4374 H   0  0  0  0  0  0  0  0  0  0  0  0
  1  2  1  0
  2  3  2  0
  2  4  1  0
  4  5  1  0
  5  6  1  0
  6  7  1  0
  6  8  1  0
  8  9  1  0
  9 10  1  0
 10 11  1  0
  9 12  1  0
 12 13  1  0
 12 14  1  0
 14 15  1  0
 15 16  1  0
 16 17  1  0
 16 18  1  0
 18 19  2  0
 18 20  1  0
 14  5  1  0
  1 21  1  0
  1 22  1  0
  1 23  1  0
  4 24  1  0
  5 25  1  1
  6 26  1  1
  7 27  1  0
  9 28  1  6
 10 29  1  0
 10 30  1  0
 11 31  1  0
 12 32  1  1
 13 33  1  0
 14 34  1  6
 16 35  1  6
 17 36  1  0
 17 37  1  0
 17 38  1  0
M  CHG  1  20  -1
M  END
>  <UniqueID>  (151) 
150

>  <SMILES>  (151) 
CC(=O)N[C@H]1[C@@H](O)O[C@H](CO)[C@@H](O)[C@@H]1O[C@H](C)C(=O)[O-]

>  <Energy>  (151) 
32.396549107353664

>  <Genealogy>  (151) 
CC(=O)N[C@H]1C(O)O[C@H](CO)[C@@H](O)[C@@H]1O[C@H](C)C(=O)[O-] (protonated)
CC(=O)N[C@H]1[C@@H](O)O[C@H](CO)[C@@H](O)[C@@H]1O[C@H](C)C(=O)[O-] (chirality)
CC(=O)N[C@H]1[C@@H](O)O[C@H](CO)[C@@H](O)[C@@H]1O[C@H](C)C(=O)[O-] (3D coordinates assigned)
CC(=O)N[C@H]1[C@@H](O)O[C@H](CO)[C@@H](O)[C@@H]1O[C@H](C)C(=O)[O-] (nonaromatic ring conformer: 32.396549107353664 kcal/mol)

$$$$
5317448
     RDKit          3D

 25 25  0  0  0  0  0  0  0  0999 V2000
   -2.9515   -0.3941   -0.0277 N   0  0  0  0  0  0  0  0  0  0  0  0
   -1.5566   -0.1122    0.3245 C   0  0  1  0  0  0  0  0  0  0  0  0
   -0.7746   -1.4289    0.5471 C   0  0  1  0  0  0  0  0  0  0  0  0
   -0.8735   -2.2872   -0.5656 O   0  0  0  0  0  0  0  0  0  0  0  0
    0.5888   -1.1736    0.8560 O   0  0  0  0  0  0  0  0  0  0  0  0
    1.2468   -0.4887   -0.2014 C   0  0  2  0  0  0  0  0  0  0  0  0
    2.7523   -0.4217    0.0965 C   0  0  0  0  0  0  0  0  0  0  0  0
    2.9913    0.1064    1.3756 O   0  0  0  0  0  0  0  0  0  0  0  0
    0.6359    0.9147   -0.4176 C   0  0  2  0  0  0  0  0  0  0  0  0
    0.7932    1.6911    0.7448 O   0  0  0  0  0  0  0  0  0  0  0  0
   -0.8592    0.7539   -0.7529 C   0  0  2  0  0  0  0  0  0  0  0  0
   -1.4831    2.0063   -0.9025 O   0  0  0  0  0  0  0  0  0  0  0  0
   -3.4934    0.4994    0.0151 H   0  0  0  0  0  0  0  0  0  0  0  0
   -3.0041   -0.7382   -1.0141 H   0  0  0  0  0  0  0  0  0  0  0  0
   -1.5475    0.4413    1.2911 H   0  0  0  0  0  0  0  0  0  0  0  0
   -1.2156   -1.9333    1.4386 H   0  0  0  0  0  0  0  0  0  0  0  0
   -1.7146   -2.8047   -0.4639 H   0  0  0  0  0  0  0  0  0  0  0  0
    1.1560   -1.0629   -1.1528 H   0  0  0  0  0  0  0  0  0  0  0  0
    3.1660   -1.4523    0.0662 H   0  0  0  0  0  0  0  0  0  0  0  0
    3.2763    0.1634   -0.6962 H   0  0  0  0  0  0  0  0  0  0  0  0
    3.3338    1.0298    1.2523 H   0  0  0  0  0  0  0  0  0  0  0  0
    1.1496    1.3979   -1.2831 H   0  0  0  0  0  0  0  0  0  0  0  0
    0.8657    2.6378    0.4552 H   0  0  0  0  0  0  0  0  0  0  0  0
   -0.9324    0.2292   -1.7316 H   0  0  0  0  0  0  0  0  0  0  0  0
   -1.5497    2.4263   -0.0057 H   0  0  0  0  0  0  0  0  0  0  0  0
  1  2  1  0
  2  3  1  0
  3  4  1  0
  3  5  1  0
  5  6  1  0
  6  7  1  0
  7  8  1  0
  6  9  1  0
  9 10  1  0
  9 11  1  0
 11 12  1  0
 11  2  1  0
  1 13  1  0
  1 14  1  0
  2 15  1  1
  3 16  1  1
  4 17  1  0
  6 18  1  6
  7 19  1  0
  7 20  1  0
  8 21  1  0
  9 22  1  6
 10 23  1  0
 11 24  1  6
 12 25  1  0
M  END
>  <UniqueID>  (152) 
151

>  <SMILES>  (152) 
N[C@H]1[C@@H](O)O[C@H](CO)[C@H](O)[C@@H]1O

>  <Energy>  (152) 
26.511424372767618

>  <Genealogy>  (152) 
N[C@H]1[C@@H](O)O[C@H](CO)[C@H](O)[C@@H]1O (3D coordinates assigned)
N[C@H]1[C@@H](O)O[C@H](CO)[C@H](O)[C@@H]1O (nonaromatic ring conformer: 26.511424372767618 kcal/mol)

$$$$
5317448
     RDKit          3D

 26 26  0  0  0  0  0  0  0  0999 V2000
   -2.0794    1.2217    0.7745 N   0  0  0  0  0  4  0  0  0  0  0  0
   -1.0832    1.0718   -0.2990 C   0  0  1  0  0  0  0  0  0  0  0  0
    0.3341    1.4369    0.1929 C   0  0  1  0  0  0  0  0  0  0  0  0
    0.3200    2.7344    0.7241 O   0  0  0  0  0  0  0  0  0  0  0  0
    0.7789    0.5329    1.1932 O   0  0  0  0  0  0  0  0  0  0  0  0
    0.9077   -0.7974    0.7058 C   0  0  2  0  0  0  0  0  0  0  0  0
    2.1328   -0.9722   -0.2228 C   0  0  0  0  0  0  0  0  0  0  0  0
    3.2623   -0.3549    0.3333 O   0  0  0  0  0  0  0  0  0  0  0  0
   -0.4243   -1.3447    0.1274 C   0  0  2  0  0  0  0  0  0  0  0  0
   -0.2165   -2.5969   -0.4757 O   0  0  0  0  0  0  0  0  0  0  0  0
   -1.0815   -0.3657   -0.8668 C   0  0  2  0  0  0  0  0  0  0  0  0
   -0.3989   -0.4005   -2.0948 O   0  0  0  0  0  0  0  0  0  0  0  0
   -1.8147    0.6670    1.6198 H   0  0  0  0  0  0  0  0  0  0  0  0
   -3.0187    0.9080    0.4384 H   0  0  0  0  0  0  0  0  0  0  0  0
   -2.1604    2.2285    1.0449 H   0  0  0  0  0  0  0  0  0  0  0  0
   -1.3560    1.7713   -1.1220 H   0  0  0  0  0  0  0  0  0  0  0  0
    1.0276    1.4407   -0.6783 H   0  0  0  0  0  0  0  0  0  0  0  0
    1.2626    2.9615    0.9380 H   0  0  0  0  0  0  0  0  0  0  0  0
    1.1264   -1.4285    1.5954 H   0  0  0  0  0  0  0  0  0  0  0  0
    2.3370   -2.0555   -0.3825 H   0  0  0  0  0  0  0  0  0  0  0  0
    1.9503   -0.5334   -1.2225 H   0  0  0  0  0  0  0  0  0  0  0  0
    3.5617   -0.9324    1.0834 H   0  0  0  0  0  0  0  0  0  0  0  0
   -1.1206   -1.4784    0.9883 H   0  0  0  0  0  0  0  0  0  0  0  0
   -1.1106   -3.0137   -0.5894 H   0  0  0  0  0  0  0  0  0  0  0  0
   -2.1329   -0.7000   -1.0326 H   0  0  0  0  0  0  0  0  0  0  0  0
   -1.0038   -0.0006   -2.7731 H   0  0  0  0  0  0  0  0  0  0  0  0
  1  2  1  0
  2  3  1  0
  3  4  1  0
  3  5  1  0
  5  6  1  0
  6  7  1  0
  7  8  1  0
  6  9  1  0
  9 10  1  0
  9 11  1  0
 11 12  1  0
 11  2  1  0
  1 13  1  0
  1 14  1  0
  1 15  1  0
  2 16  1  6
  3 17  1  6
  4 18  1  0
  6 19  1  1
  7 20  1  0
  7 21  1  0
  8 22  1  0
  9 23  1  1
 10 24  1  0
 11 25  1  6
 12 26  1  0
M  CHG  1   1   1
M  END
>  <UniqueID>  (153) 
152

>  <SMILES>  (153) 
[NH3+][C@H]1[C@@H](O)O[C@H](CO)[C@H](O)[C@@H]1O

>  <Energy>  (153) 
28.61468532473027

>  <Genealogy>  (153) 
[NH3+][C@H]1[C@@H](O)O[C@H](CO)[C@H](O)[C@@H]1O (protonated)
[NH3+][C@H]1[C@@H](O)O[C@H](CO)[C@H](O)[C@@H]1O (3D coordinates assigned)
[NH3+][C@H]1[C@@H](O)O[C@H](CO)[C@H](O)[C@@H]1O (nonaromatic ring conformer: 28.61468532473027 kcal/mol)

$$$$
5317448
     RDKit          3D

 25 25  0  0  0  0  0  0  0  0999 V2000
   -2.2035   -0.6483   -1.3814 N   0  0  0  0  0  0  0  0  0  0  0  0
   -1.6847   -0.2655   -0.0628 C   0  0  1  0  0  0  0  0  0  0  0  0
   -0.7895   -1.3785    0.5195 C   0  0  1  0  0  0  0  0  0  0  0  0
   -1.4944   -2.5927    0.5607 O   0  0  0  0  0  0  0  0  0  0  0  0
    0.4011   -1.5420   -0.2386 O   0  0  0  0  0  0  0  0  0  0  0  0
    1.2237   -0.3821   -0.2123 C   0  0  2  0  0  0  0  0  0  0  0  0
    1.9125   -0.1928    1.1585 C   0  0  0  0  0  0  0  0  0  0  0  0
    3.0528    0.6101    1.0193 O   0  0  0  0  0  0  0  0  0  0  0  0
    0.4858    0.8714   -0.7585 C   0  0  2  0  0  0  0  0  0  0  0  0
    1.2754    2.0207   -0.5851 O   0  0  0  0  0  0  0  0  0  0  0  0
   -0.9050    1.0681   -0.1184 C   0  0  2  0  0  0  0  0  0  0  0  0
   -0.7642    1.5978    1.1758 O   0  0  0  0  0  0  0  0  0  0  0  0
   -1.4193   -0.7530   -2.0637 H   0  0  0  0  0  0  0  0  0  0  0  0
   -2.8328    0.1097   -1.7327 H   0  0  0  0  0  0  0  0  0  0  0  0
   -2.5567   -0.1372    0.6172 H   0  0  0  0  0  0  0  0  0  0  0  0
   -0.5463   -1.1280    1.5743 H   0  0  0  0  0  0  0  0  0  0  0  0
   -1.5047   -2.9644   -0.3599 H   0  0  0  0  0  0  0  0  0  0  0  0
    2.0476   -0.5846   -0.9323 H   0  0  0  0  0  0  0  0  0  0  0  0
    2.2182   -1.1905    1.5461 H   0  0  0  0  0  0  0  0  0  0  0  0
    1.2243    0.2690    1.8965 H   0  0  0  0  0  0  0  0  0  0  0  0
    3.4514    0.6842    1.9253 H   0  0  0  0  0  0  0  0  0  0  0  0
    0.3409    0.7078   -1.8519 H   0  0  0  0  0  0  0  0  0  0  0  0
    0.8910    2.7255   -1.1697 H   0  0  0  0  0  0  0  0  0  0  0  0
   -1.4691    1.7990   -0.7448 H   0  0  0  0  0  0  0  0  0  0  0  0
   -1.6438    1.9836    1.4278 H   0  0  0  0  0  0  0  0  0  0  0  0
  1  2  1  0
  2  3  1  0
  3  4  1  0
  3  5  1  0
  5  6  1  0
  6  7  1  0
  7  8  1  0
  6  9  1  0
  9 10  1  0
  9 11  1  0
 11 12  1  0
 11  2  1  0
  1 13  1  0
  1 14  1  0
  2 15  1  1
  3 16  1  1
  4 17  1  0
  6 18  1  6
  7 19  1  0
  7 20  1  0
  8 21  1  0
  9 22  1  6
 10 23  1  0
 11 24  1  6
 12 25  1  0
M  END
>  <UniqueID>  (154) 
153

>  <SMILES>  (154) 
N[C@H]1[C@@H](O)O[C@H](CO)[C@H](O)[C@@H]1O

>  <Energy>  (154) 
28.64608427254483

>  <Genealogy>  (154) 
N[C@H]1[C@@H](O)O[C@H](CO)[C@H](O)[C@@H]1O (3D coordinates assigned)
N[C@H]1[C@@H](O)O[C@H](CO)[C@H](O)[C@@H]1O (nonaromatic ring conformer: 28.64608427254483 kcal/mol)

$$$$
5284365
     RDKit          3D

 36 36  0  0  0  0  0  0  0  0999 V2000
    0.5528    1.0508    2.7133 H   0  0  0  0  0  0  0  0  0  0  0  0
    0.3355    0.9508    1.7315 O   0  0  0  0  0  0  0  0  0  0  0  0
   -0.3884   -0.1266    1.2102 C   0  0  0  0  0  0  0  0  0  0  0  0
   -0.5478   -0.2297   -0.0766 N   0  0  0  0  0  0  0  0  0  0  0  0
   -0.0037    0.7091   -1.0606 C   0  0  1  0  0  0  0  0  0  0  0  0
   -0.1681    1.7539   -0.7095 H   0  0  0  0  0  0  0  0  0  0  0  0
    1.5105    0.4792   -1.2530 C   0  0  1  0  0  0  0  0  0  0  0  0
    2.0141    0.7386   -0.2953 H   0  0  0  0  0  0  0  0  0  0  0  0
    1.7814   -0.8697   -1.5449 O   0  0  0  0  0  0  0  0  0  0  0  0
    2.7696   -0.9627   -1.5444 H   0  0  0  0  0  0  0  0  0  0  0  0
    2.0362    1.3386   -2.2537 O   0  0  0  0  0  0  0  0  0  0  0  0
    1.4440    1.0943   -3.5213 C   0  0  2  0  0  0  0  0  0  0  0  0
    1.6075    0.0366   -3.8334 H   0  0  0  0  0  0  0  0  0  0  0  0
    2.1464    1.9797   -4.5576 C   0  0  0  0  0  0  0  0  0  0  0  0
    1.7317    1.7794   -5.5706 H   0  0  0  0  0  0  0  0  0  0  0  0
    1.9827    3.0522   -4.3064 H   0  0  0  0  0  0  0  0  0  0  0  0
    3.5197    1.7024   -4.5614 O   0  0  0  0  0  0  0  0  0  0  0  0
    3.9215    2.3086   -5.2366 H   0  0  0  0  0  0  0  0  0  0  0  0
   -0.0743    1.3901   -3.4821 C   0  0  1  0  0  0  0  0  0  0  0  0
   -0.2326    2.4659   -3.2234 H   0  0  0  0  0  0  0  0  0  0  0  0
   -0.6591    1.0857   -4.7241 O   0  0  0  0  0  0  0  0  0  0  0  0
   -0.7070    1.9316   -5.2414 H   0  0  0  0  0  0  0  0  0  0  0  0
   -0.7397    0.5302   -2.3954 C   0  0  2  0  0  0  0  0  0  0  0  0
   -0.6844   -0.5454   -2.6919 H   0  0  0  0  0  0  0  0  0  0  0  0
   -2.0823    0.9126   -2.2367 O   0  0  0  0  0  0  0  0  0  0  0  0
   -2.5934    0.4849   -2.9726 H   0  0  0  0  0  0  0  0  0  0  0  0
   -0.9618   -1.1320    2.0698 N   0  0  0  0  0  0  0  0  0  0  0  0
   -1.4160   -2.3277    1.4815 N   0  0  0  0  0  0  0  0  0  0  0  0
   -1.8774   -3.2628    2.1684 O   0  0  0  0  0  0  0  0  0  0  0  0
   -1.0335   -0.9563    3.5266 C   0  0  0  0  0  0  0  0  0  0  0  0
   -1.9319   -1.4746    3.9256 H   0  0  0  0  0  0  0  0  0  0  0  0
   -1.1599    0.1159    3.7865 H   0  0  0  0  0  0  0  0  0  0  0  0
    0.2154   -1.5278    4.1934 C   0  0  0  0  0  0  0  0  0  0  0  0
    1.1261   -1.0281    3.8028 H   0  0  0  0  0  0  0  0  0  0  0  0
    0.2898   -2.6166    3.9877 H   0  0  0  0  0  0  0  0  0  0  0  0
    0.1367   -1.2815    5.9558 Cl  0  0  0  0  0  0  0  0  0  0  0  0
  1  2  1  0
  2  3  1  0
  3  4  2  0
  4  5  1  0
  5  6  1  1
  5  7  1  0
  7  8  1  1
  7  9  1  0
  9 10  1  0
  7 11  1  0
 11 12  1  0
 12 13  1  6
 12 14  1  0
 14 15  1  0
 14 16  1  0
 14 17  1  0
 17 18  1  0
 12 19  1  0
 19 20  1  1
 19 21  1  0
 21 22  1  0
 19 23  1  0
 23 24  1  6
 23 25  1  0
 25 26  1  0
  3 27  1  0
 27 28  1  0
 28 29  2  0
 27 30  1  0
 30 31  1  0
 30 32  1  0
 30 33  1  0
 33 34  1  0
 33 35  1  0
 33 36  1  0
 23  5  1  0
M  END
>  <UniqueID>  (155) 
154

>  <SMILES>  (155) 
O=NN(CCCl)/C(O)=N\[C@H]1[C@@H](O)O[C@H](CO)[C@@H](O)[C@@H]1O

>  <Energy>  (155) 
30.310438147851595

>  <Genealogy>  (155) 
O=NN(CCCl)C(O)=N[C@H]1[C@@H](O)O[C@H](CO)[C@@H](O)[C@@H]1O (tautomer)
O=NN(CCCl)/C(O)=N\[C@H]1[C@@H](O)O[C@H](CO)[C@@H](O)[C@@H]1O (cis-trans isomerization)
O=NN(CCCl)/C(O)=N\[C@H]1[C@@H](O)O[C@H](CO)[C@@H](O)[C@@H]1O (3D coordinates assigned)
O=NN(CCCl)/C(O)=N\[C@H]1[C@@H](O)O[C@H](CO)[C@@H](O)[C@@H]1O (nonaromatic ring conformer: 30.310438147851595 kcal/mol)

$$$$
5284365
     RDKit          3D

 37 37  0  0  0  0  0  0  0  0999 V2000
    0.2516   -4.4983   -5.3471 H   0  0  0  0  0  0  0  0  0  0  0  0
   -0.3877   -3.7377   -5.5306 O   0  0  0  0  0  0  0  0  0  0  0  0
   -0.6648   -2.7342   -4.6205 N   0  0  0  0  0  0  0  0  0  0  0  0
   -0.1133   -2.6174   -3.4701 N   0  0  0  0  0  4  0  0  0  0  0  0
   -0.5361   -1.5150   -2.6403 C   0  0  0  0  0  0  0  0  0  0  0  0
   -1.1460   -0.5441   -3.1687 O   0  0  0  0  0  0  0  0  0  0  0  0
   -0.2933   -1.5089   -1.2221 N   0  0  0  0  0  0  0  0  0  0  0  0
   -0.0221   -2.3974   -0.7466 H   0  0  0  0  0  0  0  0  0  0  0  0
   -0.6286   -0.3573   -0.3777 C   0  0  1  0  0  0  0  0  0  0  0  0
   -0.5185    0.5811   -0.9680 H   0  0  0  0  0  0  0  0  0  0  0  0
   -2.0883   -0.4566    0.1066 C   0  0  1  0  0  0  0  0  0  0  0  0
   -2.7402   -0.3925   -0.7937 H   0  0  0  0  0  0  0  0  0  0  0  0
   -2.3264   -1.6889    0.7410 O   0  0  0  0  0  0  0  0  0  0  0  0
   -3.3019   -1.7270    0.9199 H   0  0  0  0  0  0  0  0  0  0  0  0
   -2.4219    0.6322    0.9555 O   0  0  0  0  0  0  0  0  0  0  0  0
   -1.6187    0.6514    2.1269 C   0  0  2  0  0  0  0  0  0  0  0  0
   -1.7379   -0.3007    2.6942 H   0  0  0  0  0  0  0  0  0  0  0  0
   -2.1318    1.7694    3.0441 C   0  0  0  0  0  0  0  0  0  0  0  0
   -1.5549    1.7796    3.9956 H   0  0  0  0  0  0  0  0  0  0  0  0
   -3.1980    1.5687    3.2931 H   0  0  0  0  0  0  0  0  0  0  0  0
   -2.0278    3.0129    2.4059 O   0  0  0  0  0  0  0  0  0  0  0  0
   -2.3699    3.6835    3.0525 H   0  0  0  0  0  0  0  0  0  0  0  0
   -0.1235    0.8466    1.7713 C   0  0  1  0  0  0  0  0  0  0  0  0
    0.0095    1.8230    1.2446 H   0  0  0  0  0  0  0  0  0  0  0  0
    0.6616    0.8008    2.9367 O   0  0  0  0  0  0  0  0  0  0  0  0
    0.7915    1.7372    3.2395 H   0  0  0  0  0  0  0  0  0  0  0  0
    0.3293   -0.2739    0.8215 C   0  0  2  0  0  0  0  0  0  0  0  0
    0.3084   -1.2474    1.3687 H   0  0  0  0  0  0  0  0  0  0  0  0
    1.6293   -0.0146    0.3566 O   0  0  0  0  0  0  0  0  0  0  0  0
    2.2541   -0.2932    1.0760 H   0  0  0  0  0  0  0  0  0  0  0  0
    0.9246   -3.5529   -3.0023 C   0  0  0  0  0  0  0  0  0  0  0  0
    1.6299   -3.7980   -3.8235 H   0  0  0  0  0  0  0  0  0  0  0  0
    1.5581   -3.0739   -2.2253 H   0  0  0  0  0  0  0  0  0  0  0  0
    0.2932   -4.8250   -2.4348 C   0  0  0  0  0  0  0  0  0  0  0  0
   -0.3006   -5.3468   -3.2130 H   0  0  0  0  0  0  0  0  0  0  0  0
   -0.3807   -4.5770   -1.5889 H   0  0  0  0  0  0  0  0  0  0  0  0
    1.5621   -5.9294   -1.8495 Cl  0  0  0  0  0  0  0  0  0  0  0  0
  1  2  1  0
  2  3  1  0
  3  4  2  0
  4  5  1  0
  5  6  2  0
  5  7  1  0
  7  8  1  0
  7  9  1  0
  9 10  1  6
  9 11  1  0
 11 12  1  6
 11 13  1  0
 13 14  1  0
 11 15  1  0
 15 16  1  0
 16 17  1  1
 16 18  1  0
 18 19  1  0
 18 20  1  0
 18 21  1  0
 21 22  1  0
 16 23  1  0
 23 24  1  6
 23 25  1  0
 25 26  1  0
 23 27  1  0
 27 28  1  1
 27 29  1  0
 29 30  1  0
  4 31  1  0
 31 32  1  0
 31 33  1  0
 31 34  1  0
 34 35  1  0
 34 36  1  0
 34 37  1  0
 27  9  1  0
M  CHG  1   4   1
M  END
>  <UniqueID>  (156) 
155

>  <SMILES>  (156) 
O=C(N[C@H]1[C@@H](O)O[C@H](CO)[C@@H](O)[C@@H]1O)/[N+](CCCl)=N/O

>  <Energy>  (156) 
35.40297681089967

>  <Genealogy>  (156) 
O=N[NH+](CCCl)C(=O)N[C@H]1[C@@H](O)O[C@H](CO)[C@@H](O)[C@@H]1O (protonated)
O=C(N[C@H]1[C@@H](O)O[C@H](CO)[C@@H](O)[C@@H]1O)[N+](CCCl)=NO (tautomer)
O=C(N[C@H]1[C@@H](O)O[C@H](CO)[C@@H](O)[C@@H]1O)/[N+](CCCl)=N/O (cis-trans isomerization)
O=C(N[C@H]1[C@@H](O)O[C@H](CO)[C@@H](O)[C@@H]1O)/[N+](CCCl)=N/O (3D coordinates assigned)
O=C(N[C@H]1[C@@H](O)O[C@H](CO)[C@@H](O)[C@@H]1O)/[N+](CCCl)=N/O (nonaromatic ring conformer: 35.40297681089967 kcal/mol)

$$$$
5284365
     RDKit          3D

 37 37  0  0  0  0  0  0  0  0999 V2000
    4.0369    0.2452    1.0889 H   0  0  0  0  0  0  0  0  0  0  0  0
    3.1247    0.0455    0.6999 O   0  0  0  0  0  0  0  0  0  0  0  0
    2.2804    1.0239    0.1589 C   0  0  0  0  0  0  0  0  0  0  0  0
    0.9821    0.6081   -0.3054 N   0  0  0  0  0  0  0  0  0  0  0  0
    0.6080    1.0045   -1.1942 H   0  0  0  0  0  0  0  0  0  0  0  0
    0.3258   -0.5977    0.2122 C   0  0  1  0  0  0  0  0  0  0  0  0
    0.7729   -0.8778    1.1922 H   0  0  0  0  0  0  0  0  0  0  0  0
   -1.1722   -0.3272    0.4550 C   0  0  1  0  0  0  0  0  0  0  0  0
   -1.2398    0.4439    1.2546 H   0  0  0  0  0  0  0  0  0  0  0  0
   -1.7963    0.1723   -0.7032 O   0  0  0  0  0  0  0  0  0  0  0  0
   -2.6881    0.5004   -0.4203 H   0  0  0  0  0  0  0  0  0  0  0  0
   -1.8305   -1.4909    0.9293 O   0  0  0  0  0  0  0  0  0  0  0  0
   -1.7832   -2.5472   -0.0212 C   0  0  2  0  0  0  0  0  0  0  0  0
   -2.2612   -2.2293   -0.9779 H   0  0  0  0  0  0  0  0  0  0  0  0
   -2.6149   -3.7132    0.5311 C   0  0  0  0  0  0  0  0  0  0  0  0
   -2.1006   -4.1636    1.4103 H   0  0  0  0  0  0  0  0  0  0  0  0
   -3.6030   -3.3257    0.8649 H   0  0  0  0  0  0  0  0  0  0  0  0
   -2.8177   -4.6850   -0.4586 O   0  0  0  0  0  0  0  0  0  0  0  0
   -3.3348   -5.4127   -0.0287 H   0  0  0  0  0  0  0  0  0  0  0  0
   -0.3199   -2.9790   -0.2878 C   0  0  1  0  0  0  0  0  0  0  0  0
    0.1166   -3.3573    0.6681 H   0  0  0  0  0  0  0  0  0  0  0  0
   -0.2916   -3.9811   -1.2720 O   0  0  0  0  0  0  0  0  0  0  0  0
    0.4945   -4.5549   -1.0777 H   0  0  0  0  0  0  0  0  0  0  0  0
    0.5027   -1.7696   -0.7676 C   0  0  2  0  0  0  0  0  0  0  0  0
    0.1365   -1.4528   -1.7743 H   0  0  0  0  0  0  0  0  0  0  0  0
    1.8630   -2.1145   -0.8396 O   0  0  0  0  0  0  0  0  0  0  0  0
    1.9956   -2.5954   -1.6982 H   0  0  0  0  0  0  0  0  0  0  0  0
    2.6793    2.2750    0.0739 N   0  0  0  0  0  4  0  0  0  0  0  0
    3.9981    2.5839    0.4641 N   0  0  0  0  0  0  0  0  0  0  0  0
    4.4460    3.7477    0.4105 O   0  0  0  0  0  0  0  0  0  0  0  0
    1.7817    3.3859   -0.3088 C   0  0  0  0  0  0  0  0  0  0  0  0
    2.3486    4.1213   -0.9170 H   0  0  0  0  0  0  0  0  0  0  0  0
    0.9413    3.0737   -0.9552 H   0  0  0  0  0  0  0  0  0  0  0  0
    1.2369    4.0997    0.9311 C   0  0  0  0  0  0  0  0  0  0  0  0
    0.7011    5.0213    0.6209 H   0  0  0  0  0  0  0  0  0  0  0  0
    2.0663    4.3903    1.6093 H   0  0  0  0  0  0  0  0  0  0  0  0
    0.0932    3.0671    1.8250 Cl  0  0  0  0  0  0  0  0  0  0  0  0
  1  2  1  0
  2  3  1  0
  3  4  1  0
  4  5  1  0
  4  6  1  0
  6  7  1  1
  6  8  1  0
  8  9  1  1
  8 10  1  0
 10 11  1  0
  8 12  1  0
 12 13  1  0
 13 14  1  6
 13 15  1  0
 15 16  1  0
 15 17  1  0
 15 18  1  0
 18 19  1  0
 13 20  1  0
 20 21  1  1
 20 22  1  0
 22 23  1  0
 20 24  1  0
 24 25  1  6
 24 26  1  0
 26 27  1  0
  3 28  2  0
 28 29  1  0
 29 30  2  0
 28 31  1  0
 31 32  1  0
 31 33  1  0
 31 34  1  0
 34 35  1  0
 34 36  1  0
 34 37  1  0
 24  6  1  0
M  CHG  1  28   1
M  END
>  <UniqueID>  (157) 
156

>  <SMILES>  (157) 
O=N/[N+](CCCl)=C(\O)N[C@H]1[C@@H](O)O[C@H](CO)[C@@H](O)[C@@H]1O

>  <Energy>  (157) 
38.47046675513611

>  <Genealogy>  (157) 
O=N[NH+](CCCl)C(=O)N[C@H]1[C@@H](O)O[C@H](CO)[C@@H](O)[C@@H]1O (protonated)
O=N[N+](CCCl)=C(O)N[C@H]1[C@@H](O)O[C@H](CO)[C@@H](O)[C@@H]1O (tautomer)
O=N/[N+](CCCl)=C(\O)N[C@H]1[C@@H](O)O[C@H](CO)[C@@H](O)[C@@H]1O (cis-trans isomerization)
O=N/[N+](CCCl)=C(\O)N[C@H]1[C@@H](O)O[C@H](CO)[C@@H](O)[C@@H]1O (3D coordinates assigned)
O=N/[N+](CCCl)=C(\O)N[C@H]1[C@@H](O)O[C@H](CO)[C@@H](O)[C@@H]1O (nonaromatic ring conformer: 38.47046675513611 kcal/mol)

$$$$
4282259
     RDKit          3D

 40 41  0  0  0  0  0  0  0  0999 V2000
    1.9794   -4.8317   -2.3844 C   0  0  0  0  0  0  0  0  0  0  0  0
    2.0897   -4.0508   -1.1157 C   0  0  0  0  0  0  0  0  0  0  0  0
    2.7241   -4.5343   -0.1393 O   0  0  0  0  0  0  0  0  0  0  0  0
    1.4886   -2.7518   -1.0221 N   0  0  0  0  0  0  0  0  0  0  0  0
    1.6018   -1.9163    0.1806 C   0  0  2  0  0  0  0  0  0  0  0  0
    0.5036   -0.8288    0.1812 C   0  0  1  0  0  0  0  0  0  0  0  0
    0.4029   -0.2215    1.4736 O   0  0  0  0  0  0  0  0  0  0  0  0
   -0.5761    0.7107    1.8509 C   0  0  0  0  0  0  0  0  0  0  0  0
   -1.6142    1.1138    0.9871 C   0  0  0  0  0  0  0  0  0  0  0  0
   -2.5611    2.0502    1.4148 C   0  0  0  0  0  0  0  0  0  0  0  0
   -2.4823    2.5902    2.7009 C   0  0  0  0  0  0  0  0  0  0  0  0
   -1.4565    2.1939    3.5625 C   0  0  0  0  0  0  0  0  0  0  0  0
   -0.5082    1.2579    3.1385 C   0  0  0  0  0  0  0  0  0  0  0  0
    0.7285    0.1412   -0.8327 O   0  0  0  0  0  0  0  0  0  0  0  0
    1.9502    0.8329   -0.6289 C   0  0  2  0  0  0  0  0  0  0  0  0
    2.0312    1.9848   -1.6421 C   0  0  0  0  0  0  0  0  0  0  0  0
    3.2143    2.7198   -1.4767 O   0  0  0  0  0  0  0  0  0  0  0  0
    3.1522   -0.1336   -0.7552 C   0  0  2  0  0  0  0  0  0  0  0  0
    3.2164   -0.6745   -2.0522 O   0  0  0  0  0  0  0  0  0  0  0  0
    3.0062   -1.2788    0.2655 C   0  0  1  0  0  0  0  0  0  0  0  0
    3.2159   -0.7940    1.5685 O   0  0  0  0  0  0  0  0  0  0  0  0
    0.9129   -4.9107   -2.6827 H   0  0  0  0  0  0  0  0  0  0  0  0
    2.5458   -4.3141   -3.1865 H   0  0  0  0  0  0  0  0  0  0  0  0
    2.3917   -5.8548   -2.2516 H   0  0  0  0  0  0  0  0  0  0  0  0
    0.9311   -2.4084   -1.8377 H   0  0  0  0  0  0  0  0  0  0  0  0
    1.4397   -2.5620    1.0730 H   0  0  0  0  0  0  0  0  0  0  0  0
   -0.4623   -1.3365   -0.0332 H   0  0  0  0  0  0  0  0  0  0  0  0
   -1.7013    0.7107   -0.0120 H   0  0  0  0  0  0  0  0  0  0  0  0
   -3.3565    2.3576    0.7483 H   0  0  0  0  0  0  0  0  0  0  0  0
   -3.2148    3.3160    3.0290 H   0  0  0  0  0  0  0  0  0  0  0  0
   -1.3956    2.6122    4.5588 H   0  0  0  0  0  0  0  0  0  0  0  0
    0.2849    0.9578    3.8118 H   0  0  0  0  0  0  0  0  0  0  0  0
    1.9677    1.3050    0.3804 H   0  0  0  0  0  0  0  0  0  0  0  0
    1.9965    1.5864   -2.6780 H   0  0  0  0  0  0  0  0  0  0  0  0
    1.1480    2.6525   -1.5186 H   0  0  0  0  0  0  0  0  0  0  0  0
    3.0921    3.2762   -0.6639 H   0  0  0  0  0  0  0  0  0  0  0  0
    4.0961    0.4156   -0.5227 H   0  0  0  0  0  0  0  0  0  0  0  0
    3.8158   -0.0900   -2.5856 H   0  0  0  0  0  0  0  0  0  0  0  0
    3.7725   -2.0587    0.0459 H   0  0  0  0  0  0  0  0  0  0  0  0
    4.1939   -0.6567    1.6724 H   0  0  0  0  0  0  0  0  0  0  0  0
  1  2  1  0
  2  3  2  0
  2  4  1  0
  4  5  1  0
  5  6  1  0
  6  7  1  0
  7  8  1  0
  8  9  2  0
  9 10  1  0
 10 11  2  0
 11 12  1  0
 12 13  2  0
  6 14  1  0
 14 15  1  0
 15 16  1  0
 16 17  1  0
 15 18  1  0
 18 19  1  0
 18 20  1  0
 20 21  1  0
 20  5  1  0
 13  8  1  0
  1 22  1  0
  1 23  1  0
  1 24  1  0
  4 25  1  0
  5 26  1  1
  6 27  1  6
  9 28  1  0
 10 29  1  0
 11 30  1  0
 12 31  1  0
 13 32  1  0
 15 33  1  1
 16 34  1  0
 16 35  1  0
 17 36  1  0
 18 37  1  1
 19 38  1  0
 20 39  1  6
 21 40  1  0
M  END
>  <UniqueID>  (158) 
157

>  <SMILES>  (158) 
CC(=O)N[C@H]1[C@H](O)[C@@H](O)[C@@H](CO)O[C@@H]1Oc1ccccc1

>  <Energy>  (158) 
37.823918640527936

>  <Genealogy>  (158) 
CC(=O)N[C@H]1[C@H](O)[C@@H](O)[C@@H](CO)O[C@@H]1Oc1ccccc1 (chirality)
CC(=O)N[C@H]1[C@H](O)[C@@H](O)[C@@H](CO)O[C@@H]1Oc1ccccc1 (3D coordinates assigned)
CC(=O)N[C@H]1[C@H](O)[C@@H](O)[C@@H](CO)O[C@@H]1Oc1ccccc1 (nonaromatic ring conformer: 37.823918640527936 kcal/mol)

$$$$
4282259
     RDKit          3D

 40 41  0  0  0  0  0  0  0  0999 V2000
   -1.3471    4.3908    2.1240 H   0  0  0  0  0  0  0  0  0  0  0  0
   -0.7197    3.7624    1.6367 O   0  0  0  0  0  0  0  0  0  0  0  0
   -0.8250    2.3795    1.7637 C   0  0  0  0  0  0  0  0  0  0  0  0
    0.0249    1.6343    1.1166 N   0  0  0  0  0  0  0  0  0  0  0  0
    0.0754    0.1680    1.0964 C   0  0  2  0  0  0  0  0  0  0  0  0
   -0.2542   -0.2386    2.0779 H   0  0  0  0  0  0  0  0  0  0  0  0
    1.5282   -0.2938    0.8764 C   0  0  2  0  0  0  0  0  0  0  0  0
    2.1172   -0.0343    1.7877 H   0  0  0  0  0  0  0  0  0  0  0  0
    2.0818    0.3676   -0.2345 O   0  0  0  0  0  0  0  0  0  0  0  0
    3.0667    0.2588   -0.1723 H   0  0  0  0  0  0  0  0  0  0  0  0
    1.5709   -1.8200    0.6607 C   0  0  1  0  0  0  0  0  0  0  0  0
    2.5970   -2.1165    0.3383 H   0  0  0  0  0  0  0  0  0  0  0  0
    1.2425   -2.4827    1.8563 O   0  0  0  0  0  0  0  0  0  0  0  0
    2.0426   -2.4309    2.4418 H   0  0  0  0  0  0  0  0  0  0  0  0
    0.5687   -2.2105   -0.4473 C   0  0  1  0  0  0  0  0  0  0  0  0
    0.8851   -1.7384   -1.4061 H   0  0  0  0  0  0  0  0  0  0  0  0
    0.5769   -3.7265   -0.6894 C   0  0  0  0  0  0  0  0  0  0  0  0
    1.6155   -4.0635   -0.8950 H   0  0  0  0  0  0  0  0  0  0  0  0
    0.2147   -4.2714    0.2125 H   0  0  0  0  0  0  0  0  0  0  0  0
   -0.2149   -4.0469   -1.8018 O   0  0  0  0  0  0  0  0  0  0  0  0
   -1.1593   -4.0293   -1.4959 H   0  0  0  0  0  0  0  0  0  0  0  0
   -0.7457   -1.8067   -0.0963 O   0  0  0  0  0  0  0  0  0  0  0  0
   -0.8500   -0.3926   -0.0078 C   0  0  2  0  0  0  0  0  0  0  0  0
   -1.8947   -0.1500    0.2752 H   0  0  0  0  0  0  0  0  0  0  0  0
   -0.5751    0.2310   -1.2673 O   0  0  0  0  0  0  0  0  0  0  0  0
   -1.3104    0.0255   -2.4447 C   0  0  0  0  0  0  0  0  0  0  0  0
   -2.4550   -0.7956   -2.4922 C   0  0  0  0  0  0  0  0  0  0  0  0
   -2.8201   -1.3013   -1.6095 H   0  0  0  0  0  0  0  0  0  0  0  0
   -3.1455   -0.9701   -3.6958 C   0  0  0  0  0  0  0  0  0  0  0  0
   -4.0234   -1.6024   -3.7284 H   0  0  0  0  0  0  0  0  0  0  0  0
   -2.7051   -0.3291   -4.8565 C   0  0  0  0  0  0  0  0  0  0  0  0
   -3.2411   -0.4654   -5.7869 H   0  0  0  0  0  0  0  0  0  0  0  0
   -1.5732    0.4886   -4.8156 C   0  0  0  0  0  0  0  0  0  0  0  0
   -1.2323    0.9855   -5.7147 H   0  0  0  0  0  0  0  0  0  0  0  0
   -0.8799    0.6649   -3.6143 C   0  0  0  0  0  0  0  0  0  0  0  0
   -0.0024    1.2987   -3.5915 H   0  0  0  0  0  0  0  0  0  0  0  0
   -1.8892    1.7994    2.6561 C   0  0  0  0  0  0  0  0  0  0  0  0
   -2.5415    1.1072    2.0880 H   0  0  0  0  0  0  0  0  0  0  0  0
   -2.5292    2.6046    3.0724 H   0  0  0  0  0  0  0  0  0  0  0  0
   -1.4186    1.2608    3.5048 H   0  0  0  0  0  0  0  0  0  0  0  0
  1  2  1  0
  2  3  1  0
  3  4  2  0
  4  5  1  0
  5  6  1  1
  5  7  1  0
  7  8  1  1
  7  9  1  0
  9 10  1  0
  7 11  1  0
 11 12  1  6
 11 13  1  0
 13 14  1  0
 11 15  1  0
 15 16  1  6
 15 17  1  0
 17 18  1  0
 17 19  1  0
 17 20  1  0
 20 21  1  0
 15 22  1  0
 22 23  1  0
 23 24  1  1
 23 25  1  0
 25 26  1  0
 26 27  2  0
 27 28  1  0
 27 29  1  0
 29 30  1  0
 29 31  2  0
 31 32  1  0
 31 33  1  0
 33 34  1  0
 33 35  2  0
 35 36  1  0
  3 37  1  0
 37 38  1  0
 37 39  1  0
 37 40  1  0
 23  5  1  0
 35 26  1  0
M  END
>  <UniqueID>  (159) 
158

>  <SMILES>  (159) 
C/C(O)=N\[C@@H]1[C@H](O)[C@@H](O)[C@@H](CO)O[C@@H]1Oc1ccccc1

>  <Energy>  (159) 
39.479612948464975

>  <Genealogy>  (159) 
CC(O)=NC1C(Oc2ccccc2)OC(CO)C(O)C1O (tautomer)
CC(O)=N[C@@H]1[C@H](O)[C@@H](O)[C@@H](CO)O[C@@H]1Oc1ccccc1 (chirality)
C/C(O)=N\[C@@H]1[C@H](O)[C@@H](O)[C@@H](CO)O[C@@H]1Oc1ccccc1 (cis-trans isomerization)
C/C(O)=N\[C@@H]1[C@H](O)[C@@H](O)[C@@H](CO)O[C@@H]1Oc1ccccc1 (3D coordinates assigned)
C/C(O)=N\[C@@H]1[C@H](O)[C@@H](O)[C@@H](CO)O[C@@H]1Oc1ccccc1 (nonaromatic ring conformer: 39.479612948464975 kcal/mol)

$$$$
4282259
     RDKit          3D

 40 41  0  0  0  0  0  0  0  0999 V2000
   -0.5263   -3.5757    1.3213 C   0  0  0  0  0  0  0  0  0  0  0  0
    0.6717   -2.6853    1.2616 C   0  0  0  0  0  0  0  0  0  0  0  0
    1.4343   -2.6069    2.2624 O   0  0  0  0  0  0  0  0  0  0  0  0
    0.9114   -1.8834    0.0955 N   0  0  0  0  0  0  0  0  0  0  0  0
    2.0160   -0.9236   -0.0028 C   0  0  2  0  0  0  0  0  0  0  0  0
    1.4925    0.5272    0.0973 C   0  0  1  0  0  0  0  0  0  0  0  0
    0.8811    0.7289    1.3751 O   0  0  0  0  0  0  0  0  0  0  0  0
   -0.4415    0.4171    1.7372 C   0  0  0  0  0  0  0  0  0  0  0  0
   -0.7701    0.4519    3.0989 C   0  0  0  0  0  0  0  0  0  0  0  0
   -2.0639    0.1420    3.5278 C   0  0  0  0  0  0  0  0  0  0  0  0
   -3.0463   -0.1991    2.5962 C   0  0  0  0  0  0  0  0  0  0  0  0
   -2.7365   -0.2268    1.2348 C   0  0  0  0  0  0  0  0  0  0  0  0
   -1.4430    0.0815    0.8013 C   0  0  0  0  0  0  0  0  0  0  0  0
    2.5673    1.4488   -0.0046 O   0  0  0  0  0  0  0  0  0  0  0  0
    3.2456    1.3732   -1.2523 C   0  0  2  0  0  0  0  0  0  0  0  0
    2.3864    1.9276   -2.4153 C   0  0  0  0  0  0  0  0  0  0  0  0
    3.1913    2.2819   -3.5082 O   0  0  0  0  0  0  0  0  0  0  0  0
    3.8303   -0.0424   -1.4983 C   0  0  2  0  0  0  0  0  0  0  0  0
    4.4047   -0.1363   -2.7765 O   0  0  0  0  0  0  0  0  0  0  0  0
    2.7529   -1.1247   -1.3343 C   0  0  1  0  0  0  0  0  0  0  0  0
    3.3485   -2.3971   -1.3424 O   0  0  0  0  0  0  0  0  0  0  0  0
   -0.7095   -4.0342    0.3272 H   0  0  0  0  0  0  0  0  0  0  0  0
   -1.4140   -2.9801    1.6187 H   0  0  0  0  0  0  0  0  0  0  0  0
   -0.3676   -4.3868    2.0631 H   0  0  0  0  0  0  0  0  0  0  0  0
    0.2249   -1.9341   -0.6915 H   0  0  0  0  0  0  0  0  0  0  0  0
    2.7434   -1.0873    0.8240 H   0  0  0  0  0  0  0  0  0  0  0  0
    0.7541    0.7373   -0.7016 H   0  0  0  0  0  0  0  0  0  0  0  0
   -0.0145    0.7120    3.8295 H   0  0  0  0  0  0  0  0  0  0  0  0
   -2.3043    0.1658    4.5828 H   0  0  0  0  0  0  0  0  0  0  0  0
   -4.0478   -0.4398    2.9287 H   0  0  0  0  0  0  0  0  0  0  0  0
   -3.4997   -0.4889    0.5135 H   0  0  0  0  0  0  0  0  0  0  0  0
   -1.2457    0.0504   -0.2587 H   0  0  0  0  0  0  0  0  0  0  0  0
    4.1192    2.0554   -1.1612 H   0  0  0  0  0  0  0  0  0  0  0  0
    1.8130    2.8166   -2.0658 H   0  0  0  0  0  0  0  0  0  0  0  0
    1.6489    1.1749   -2.7593 H   0  0  0  0  0  0  0  0  0  0  0  0
    3.6194    3.1479   -3.2792 H   0  0  0  0  0  0  0  0  0  0  0  0
    4.6167   -0.2291   -0.7281 H   0  0  0  0  0  0  0  0  0  0  0  0
    5.2534    0.3782   -2.7467 H   0  0  0  0  0  0  0  0  0  0  0  0
    2.0165   -1.0501   -2.1691 H   0  0  0  0  0  0  0  0  0  0  0  0
    3.5259   -2.6270   -2.2918 H   0  0  0  0  0  0  0  0  0  0  0  0
  1  2  1  0
  2  3  2  0
  2  4  1  0
  4  5  1  0
  5  6  1  0
  6  7  1  0
  7  8  1  0
  8  9  2  0
  9 10  1  0
 10 11  2  0
 11 12  1  0
 12 13  2  0
  6 14  1  0
 14 15  1  0
 15 16  1  0
 16 17  1  0
 15 18  1  0
 18 19  1  0
 18 20  1  0
 20 21  1  0
 20  5  1  0
 13  8  1  0
  1 22  1  0
  1 23  1  0
  1 24  1  0
  4 25  1  0
  5 26  1  1
  6 27  1  6
  9 28  1  0
 10 29  1  0
 11 30  1  0
 12 31  1  0
 13 32  1  0
 15 33  1  1
 16 34  1  0
 16 35  1  0
 17 36  1  0
 18 37  1  1
 19 38  1  0
 20 39  1  6
 21 40  1  0
M  END
>  <UniqueID>  (160) 
159

>  <SMILES>  (160) 
CC(=O)N[C@H]1[C@H](O)[C@@H](O)[C@@H](CO)O[C@@H]1Oc1ccccc1

>  <Energy>  (160) 
41.16273505684804

>  <Genealogy>  (160) 
CC(=O)N[C@H]1[C@H](O)[C@@H](O)[C@@H](CO)O[C@@H]1Oc1ccccc1 (chirality)
CC(=O)N[C@H]1[C@H](O)[C@@H](O)[C@@H](CO)O[C@@H]1Oc1ccccc1 (3D coordinates assigned)
CC(=O)N[C@H]1[C@H](O)[C@@H](O)[C@@H](CO)O[C@@H]1Oc1ccccc1 (nonaromatic ring conformer: 41.16273505684804 kcal/mol)

$$$$
3052142
     RDKit          3D

 50 50  0  0  0  0  0  0  0  0999 V2000
   -3.4619    3.3602    2.4998 H   0  0  0  0  0  0  0  0  0  0  0  0
   -2.6300    2.8201    2.2948 O   0  0  0  0  0  0  0  0  0  0  0  0
   -1.3658    3.4099    2.2970 C   0  0  0  0  0  0  0  0  0  0  0  0
   -0.3074    2.7131    2.0086 N   0  0  0  0  0  0  0  0  0  0  0  0
   -0.3150    1.2927    1.6535 C   0  0  1  0  0  0  0  0  0  0  0  0
   -1.1127    0.7607    2.2208 H   0  0  0  0  0  0  0  0  0  0  0  0
   -0.5646    1.1288    0.1379 C   0  0  2  0  0  0  0  0  0  0  0  0
    0.1924    1.7226   -0.4281 H   0  0  0  0  0  0  0  0  0  0  0  0
   -1.8560    1.6381   -0.1835 O   0  0  0  0  0  0  0  0  0  0  0  0
   -2.3218    1.7610   -1.4957 C   0  0  0  0  0  0  0  0  0  0  0  0
   -1.6130    1.3887   -2.4702 O   0  0  0  0  0  0  0  0  0  0  0  0
   -3.6893    2.3009   -1.7407 C   0  0  0  0  0  0  0  0  0  0  0  0
   -4.3962    1.4602   -1.8989 H   0  0  0  0  0  0  0  0  0  0  0  0
   -4.0230    2.8982   -0.8662 H   0  0  0  0  0  0  0  0  0  0  0  0
   -3.6856    2.9525   -2.6397 H   0  0  0  0  0  0  0  0  0  0  0  0
   -0.5102   -0.2389   -0.2313 O   0  0  0  0  0  0  0  0  0  0  0  0
    0.7947   -0.7525   -0.0298 C   0  0  2  0  0  0  0  0  0  0  0  0
    1.5501   -0.1253   -0.5588 H   0  0  0  0  0  0  0  0  0  0  0  0
    0.8753   -2.1615   -0.6350 C   0  0  0  0  0  0  0  0  0  0  0  0
    1.8898   -2.5937   -0.4890 H   0  0  0  0  0  0  0  0  0  0  0  0
    0.1451   -2.8277   -0.1283 H   0  0  0  0  0  0  0  0  0  0  0  0
    0.5531   -2.1297   -2.0248 O   0  0  0  0  0  0  0  0  0  0  0  0
    1.4272   -1.6562   -3.0094 C   0  0  0  0  0  0  0  0  0  0  0  0
    2.5936   -1.2799   -2.7126 O   0  0  0  0  0  0  0  0  0  0  0  0
    0.9579   -1.5580   -4.4208 C   0  0  0  0  0  0  0  0  0  0  0  0
    0.6368   -0.5167   -4.6313 H   0  0  0  0  0  0  0  0  0  0  0  0
    0.1001   -2.2435   -4.5845 H   0  0  0  0  0  0  0  0  0  0  0  0
    1.7781   -1.8375   -5.1153 H   0  0  0  0  0  0  0  0  0  0  0  0
    1.1290   -0.7743    1.4763 C   0  0  2  0  0  0  0  0  0  0  0  0
    2.1677   -1.1555    1.6024 H   0  0  0  0  0  0  0  0  0  0  0  0
    0.2037   -1.6274    2.1586 O   0  0  0  0  0  0  0  0  0  0  0  0
    0.4896   -2.2837    3.3611 C   0  0  0  0  0  0  0  0  0  0  0  0
    1.6283   -2.1921    3.8949 O   0  0  0  0  0  0  0  0  0  0  0  0
   -0.5786   -3.0732    4.0366 C   0  0  0  0  0  0  0  0  0  0  0  0
   -0.1559   -4.0184    4.4378 H   0  0  0  0  0  0  0  0  0  0  0  0
   -1.3848   -3.3187    3.3137 H   0  0  0  0  0  0  0  0  0  0  0  0
   -1.0064   -2.4783    4.8701 H   0  0  0  0  0  0  0  0  0  0  0  0
    1.0435    0.6629    2.0262 C   0  0  2  0  0  0  0  0  0  0  0  0
    1.8678    1.2516    1.5612 H   0  0  0  0  0  0  0  0  0  0  0  0
    1.2108    0.6408    3.4456 O   0  0  0  0  0  0  0  0  0  0  0  0
    1.6982    1.7181    4.1940 C   0  0  0  0  0  0  0  0  0  0  0  0
    2.1350    2.7567    3.6278 O   0  0  0  0  0  0  0  0  0  0  0  0
    1.7571    1.6089    5.6790 C   0  0  0  0  0  0  0  0  0  0  0  0
    2.7817    1.3153    5.9881 H   0  0  0  0  0  0  0  0  0  0  0  0
    1.4981    2.5842    6.1425 H   0  0  0  0  0  0  0  0  0  0  0  0
    1.0362    0.8416    6.0315 H   0  0  0  0  0  0  0  0  0  0  0  0
   -1.2236    4.8657    2.6039 C   0  0  0  0  0  0  0  0  0  0  0  0
   -0.2075    5.0829    2.9973 H   0  0  0  0  0  0  0  0  0  0  0  0
   -1.9692    5.1657    3.3696 H   0  0  0  0  0  0  0  0  0  0  0  0
   -1.4923    5.8119    1.1214 Cl  0  0  0  0  0  0  0  0  0  0  0  0
  1  2  1  0
  2  3  1  0
  3  4  2  0
  4  5  1  0
  5  6  1  1
  5  7  1  0
  7  8  1  6
  7  9  1  0
  9 10  1  0
 10 11  2  0
 10 12  1  0
 12 13  1  0
 12 14  1  0
 12 15  1  0
  7 16  1  0
 16 17  1  0
 17 18  1  6
 17 19  1  0
 19 20  1  0
 19 21  1  0
 19 22  1  0
 22 23  1  0
 23 24  2  0
 23 25  1  0
 25 26  1  0
 25 27  1  0
 25 28  1  0
 17 29  1  0
 29 30  1  6
 29 31  1  0
 31 32  1  0
 32 33  2  0
 32 34  1  0
 34 35  1  0
 34 36  1  0
 34 37  1  0
 29 38  1  0
 38 39  1  6
 38 40  1  0
 40 41  1  0
 41 42  2  0
 41 43  1  0
 43 44  1  0
 43 45  1  0
 43 46  1  0
  3 47  1  0
 47 48  1  0
 47 49  1  0
 47 50  1  0
 38  5  1  0
M  END
>  <UniqueID>  (161) 
160

>  <SMILES>  (161) 
CC(=O)OC[C@H]1O[C@@H](OC(C)=O)[C@H](/N=C(\O)CCl)[C@@H](OC(C)=O)[C@H]1OC(C)=O

>  <Energy>  (161) 
30.347262270349123

>  <Genealogy>  (161) 
CC(=O)OC[C@H]1O[C@@H](OC(C)=O)[C@H](N=C(O)CCl)[C@@H](OC(C)=O)[C@H]1OC(C)=O (tautomer)
CC(=O)OC[C@H]1O[C@@H](OC(C)=O)[C@H](/N=C(\O)CCl)[C@@H](OC(C)=O)[C@H]1OC(C)=O (cis-trans isomerization)
CC(=O)OC[C@H]1O[C@@H](OC(C)=O)[C@H](/N=C(\O)CCl)[C@@H](OC(C)=O)[C@H]1OC(C)=O (3D coordinates assigned)
CC(=O)OC[C@H]1O[C@@H](OC(C)=O)[C@H](/N=C(\O)CCl)[C@@H](OC(C)=O)[C@H]1OC(C)=O (nonaromatic ring conformer: 30.347262270349123 kcal/mol)

$$$$
3052142
     RDKit          3D

 50 50  0  0  0  0  0  0  0  0999 V2000
    3.5900    0.1145   -3.1552 H   0  0  0  0  0  0  0  0  0  0  0  0
    2.7482    0.1243   -3.7184 O   0  0  0  0  0  0  0  0  0  0  0  0
    1.5583   -0.4103   -3.2327 C   0  0  0  0  0  0  0  0  0  0  0  0
    0.4696   -0.3701   -4.0051 C   0  0  0  0  0  0  0  0  0  0  0  0
    0.5272    0.0966   -4.9802 H   0  0  0  0  0  0  0  0  0  0  0  0
   -1.0487   -1.1339   -3.5562 Cl  0  0  0  0  0  0  0  0  0  0  0  0
    1.5391   -1.0108   -1.9305 N   0  0  0  0  0  0  0  0  0  0  0  0
    2.3664   -1.5968   -1.6754 H   0  0  0  0  0  0  0  0  0  0  0  0
    0.7774   -0.4167   -0.8271 C   0  0  1  0  0  0  0  0  0  0  0  0
   -0.1199    0.1089   -1.2227 H   0  0  0  0  0  0  0  0  0  0  0  0
    0.3055   -1.5190    0.1424 C   0  0  2  0  0  0  0  0  0  0  0  0
    1.1849   -2.1039    0.5032 H   0  0  0  0  0  0  0  0  0  0  0  0
   -0.5615   -2.4063   -0.5594 O   0  0  0  0  0  0  0  0  0  0  0  0
   -1.0768   -3.5760    0.0068 C   0  0  0  0  0  0  0  0  0  0  0  0
   -0.7621   -3.9188    1.1788 O   0  0  0  0  0  0  0  0  0  0  0  0
   -1.9687   -4.4520   -0.8050 C   0  0  0  0  0  0  0  0  0  0  0  0
   -1.3712   -5.2713   -1.2560 H   0  0  0  0  0  0  0  0  0  0  0  0
   -2.7631   -4.8870   -0.1625 H   0  0  0  0  0  0  0  0  0  0  0  0
   -2.4457   -3.8609   -1.6147 H   0  0  0  0  0  0  0  0  0  0  0  0
   -0.4017   -0.9530    1.2341 O   0  0  0  0  0  0  0  0  0  0  0  0
    0.4570   -0.1312    2.0075 C   0  0  2  0  0  0  0  0  0  0  0  0
    1.3577   -0.7055    2.3308 H   0  0  0  0  0  0  0  0  0  0  0  0
   -0.2678    0.2858    3.2937 C   0  0  0  0  0  0  0  0  0  0  0  0
   -0.4578   -0.6176    3.9135 H   0  0  0  0  0  0  0  0  0  0  0  0
    0.3734    0.9831    3.8768 H   0  0  0  0  0  0  0  0  0  0  0  0
   -1.5101    0.9126    2.9863 O   0  0  0  0  0  0  0  0  0  0  0  0
   -2.3518    1.4469    3.9642 C   0  0  0  0  0  0  0  0  0  0  0  0
   -2.0425    1.3854    5.1852 O   0  0  0  0  0  0  0  0  0  0  0  0
   -3.6004    2.1483    3.5507 C   0  0  0  0  0  0  0  0  0  0  0  0
   -3.9552    1.7463    2.5785 H   0  0  0  0  0  0  0  0  0  0  0  0
   -3.3949    3.2334    3.4415 H   0  0  0  0  0  0  0  0  0  0  0  0
   -4.3943    1.9986    4.3125 H   0  0  0  0  0  0  0  0  0  0  0  0
    0.9140    1.0966    1.1862 C   0  0  2  0  0  0  0  0  0  0  0  0
    1.6101    1.6986    1.8121 H   0  0  0  0  0  0  0  0  0  0  0  0
   -0.2276    1.8743    0.8117 O   0  0  0  0  0  0  0  0  0  0  0  0
   -0.2262    3.2687    0.7009 C   0  0  0  0  0  0  0  0  0  0  0  0
    0.8107    3.9399    0.9534 O   0  0  0  0  0  0  0  0  0  0  0  0
   -1.4630    3.9645    0.2464 C   0  0  0  0  0  0  0  0  0  0  0  0
   -1.4269    4.0994   -0.8545 H   0  0  0  0  0  0  0  0  0  0  0  0
   -2.3553    3.3593    0.5114 H   0  0  0  0  0  0  0  0  0  0  0  0
   -1.5459    4.9575    0.7365 H   0  0  0  0  0  0  0  0  0  0  0  0
    1.6514    0.6024   -0.0737 C   0  0  2  0  0  0  0  0  0  0  0  0
    2.5953    0.0951    0.2329 H   0  0  0  0  0  0  0  0  0  0  0  0
    1.9611    1.6936   -0.9415 O   0  0  0  0  0  0  0  0  0  0  0  0
    3.0324    2.5675   -0.7306 C   0  0  0  0  0  0  0  0  0  0  0  0
    3.8201    2.4031    0.2402 O   0  0  0  0  0  0  0  0  0  0  0  0
    3.2727    3.6750   -1.6982 C   0  0  0  0  0  0  0  0  0  0  0  0
    3.6976    4.5564   -1.1731 H   0  0  0  0  0  0  0  0  0  0  0  0
    2.3160    3.9706   -2.1777 H   0  0  0  0  0  0  0  0  0  0  0  0
    3.9828    3.3345   -2.4801 H   0  0  0  0  0  0  0  0  0  0  0  0
  1  2  1  0
  2  3  1  0
  3  4  2  0
  4  5  1  0
  4  6  1  0
  3  7  1  0
  7  8  1  0
  7  9  1  0
  9 10  1  6
  9 11  1  0
 11 12  1  1
 11 13  1  0
 13 14  1  0
 14 15  2  0
 14 16  1  0
 16 17  1  0
 16 18  1  0
 16 19  1  0
 11 20  1  0
 20 21  1  0
 21 22  1  1
 21 23  1  0
 23 24  1  0
 23 25  1  0
 23 26  1  0
 26 27  1  0
 27 28  2  0
 27 29  1  0
 29 30  1  0
 29 31  1  0
 29 32  1  0
 21 33  1  0
 33 34  1  1
 33 35  1  0
 35 36  1  0
 36 37  2  0
 36 38  1  0
 38 39  1  0
 38 40  1  0
 38 41  1  0
 33 42  1  0
 42 43  1  1
 42 44  1  0
 44 45  1  0
 45 46  2  0
 45 47  1  0
 47 48  1  0
 47 49  1  0
 47 50  1  0
 42  9  1  0
M  END
>  <UniqueID>  (162) 
161

>  <SMILES>  (162) 
CC(=O)OC[C@H]1O[C@@H](OC(C)=O)[C@H](N/C(O)=C\Cl)[C@@H](OC(C)=O)[C@H]1OC(C)=O

>  <Energy>  (162) 
34.06542646859841

>  <Genealogy>  (162) 
CC(=O)OC[C@H]1O[C@@H](OC(C)=O)[C@H](NC(O)=CCl)[C@@H](OC(C)=O)[C@H]1OC(C)=O (tautomer)
CC(=O)OC[C@H]1O[C@@H](OC(C)=O)[C@H](N/C(O)=C\Cl)[C@@H](OC(C)=O)[C@H]1OC(C)=O (cis-trans isomerization)
CC(=O)OC[C@H]1O[C@@H](OC(C)=O)[C@H](N/C(O)=C\Cl)[C@@H](OC(C)=O)[C@H]1OC(C)=O (3D coordinates assigned)
CC(=O)OC[C@H]1O[C@@H](OC(C)=O)[C@H](N/C(O)=C\Cl)[C@@H](OC(C)=O)[C@H]1OC(C)=O (nonaromatic ring conformer: 34.06542646859841 kcal/mol)

$$$$
3052142
     RDKit          3D

 50 50  0  0  0  0  0  0  0  0999 V2000
   -3.0505   -0.7709    1.5292 H   0  0  0  0  0  0  0  0  0  0  0  0
   -3.7133   -0.9548    0.7882 O   0  0  0  0  0  0  0  0  0  0  0  0
   -3.3257   -1.2421   -0.5218 C   0  0  0  0  0  0  0  0  0  0  0  0
   -4.2714   -1.6338   -1.3808 C   0  0  0  0  0  0  0  0  0  0  0  0
   -5.2971   -1.7084   -1.0426 H   0  0  0  0  0  0  0  0  0  0  0  0
   -3.9447   -2.0240   -3.0633 Cl  0  0  0  0  0  0  0  0  0  0  0  0
   -1.9460   -1.1404   -0.9279 N   0  0  0  0  0  0  0  0  0  0  0  0
   -1.6125   -1.7010   -1.7445 H   0  0  0  0  0  0  0  0  0  0  0  0
   -0.9535   -0.3165   -0.2303 C   0  0  1  0  0  0  0  0  0  0  0  0
   -1.4477    0.3357    0.5209 H   0  0  0  0  0  0  0  0  0  0  0  0
    0.0790   -1.2154    0.4921 C   0  0  2  0  0  0  0  0  0  0  0  0
    0.5663   -1.9072   -0.2355 H   0  0  0  0  0  0  0  0  0  0  0  0
   -0.5737   -1.9869    1.5015 O   0  0  0  0  0  0  0  0  0  0  0  0
   -1.1710   -3.2324    1.2728 C   0  0  0  0  0  0  0  0  0  0  0  0
   -1.0584   -3.8114    0.1583 O   0  0  0  0  0  0  0  0  0  0  0  0
   -1.9075   -3.9052    2.3800 C   0  0  0  0  0  0  0  0  0  0  0  0
   -2.8068   -4.4197    1.9802 H   0  0  0  0  0  0  0  0  0  0  0  0
   -1.2441   -4.6492    2.8678 H   0  0  0  0  0  0  0  0  0  0  0  0
   -2.2299   -3.1546    3.1317 H   0  0  0  0  0  0  0  0  0  0  0  0
    1.0645   -0.4188    1.1268 O   0  0  0  0  0  0  0  0  0  0  0  0
    1.8208    0.2996    0.1668 C   0  0  2  0  0  0  0  0  0  0  0  0
    2.2384   -0.3927   -0.6012 H   0  0  0  0  0  0  0  0  0  0  0  0
    3.0158    0.9607    0.8678 C   0  0  0  0  0  0  0  0  0  0  0  0
    2.6509    1.6061    1.6940 H   0  0  0  0  0  0  0  0  0  0  0  0
    3.5854    1.5992    0.1573 H   0  0  0  0  0  0  0  0  0  0  0  0
    3.8768   -0.0279    1.4313 O   0  0  0  0  0  0  0  0  0  0  0  0
    4.7753   -0.7893    0.6757 C   0  0  0  0  0  0  0  0  0  0  0  0
    4.8951   -0.6048   -0.5661 O   0  0  0  0  0  0  0  0  0  0  0  0
    5.5727   -1.8582    1.3418 C   0  0  0  0  0  0  0  0  0  0  0  0
    5.0819   -2.8403    1.1797 H   0  0  0  0  0  0  0  0  0  0  0  0
    5.6385   -1.6595    2.4322 H   0  0  0  0  0  0  0  0  0  0  0  0
    6.5996   -1.8863    0.9199 H   0  0  0  0  0  0  0  0  0  0  0  0
    0.9263    1.3406   -0.5441 C   0  0  2  0  0  0  0  0  0  0  0  0
    1.5128    1.8657   -1.3315 H   0  0  0  0  0  0  0  0  0  0  0  0
    0.3927    2.2785    0.3973 O   0  0  0  0  0  0  0  0  0  0  0  0
    0.9362    3.5461    0.6352 C   0  0  0  0  0  0  0  0  0  0  0  0
    1.9537    3.9450    0.0062 O   0  0  0  0  0  0  0  0  0  0  0  0
    0.3309    4.4147    1.6842 C   0  0  0  0  0  0  0  0  0  0  0  0
   -0.7401    4.1552    1.8181 H   0  0  0  0  0  0  0  0  0  0  0  0
    0.8661    4.2606    2.6442 H   0  0  0  0  0  0  0  0  0  0  0  0
    0.4071    5.4823    1.3881 H   0  0  0  0  0  0  0  0  0  0  0  0
   -0.2330    0.6077   -1.2360 C   0  0  2  0  0  0  0  0  0  0  0  0
    0.1984   -0.0009   -2.0641 H   0  0  0  0  0  0  0  0  0  0  0  0
   -1.1464    1.5741   -1.7615 O   0  0  0  0  0  0  0  0  0  0  0  0
   -1.9265    1.3693   -2.9050 C   0  0  0  0  0  0  0  0  0  0  0  0
   -1.7534    0.3563   -3.6349 O   0  0  0  0  0  0  0  0  0  0  0  0
   -2.9616    2.3741   -3.2785 C   0  0  0  0  0  0  0  0  0  0  0  0
   -2.7091    2.8218   -4.2627 H   0  0  0  0  0  0  0  0  0  0  0  0
   -3.0072    3.1793   -2.5148 H   0  0  0  0  0  0  0  0  0  0  0  0
   -3.9542    1.8803   -3.3420 H   0  0  0  0  0  0  0  0  0  0  0  0
  1  2  1  0
  2  3  1  0
  3  4  2  0
  4  5  1  0
  4  6  1  0
  3  7  1  0
  7  8  1  0
  7  9  1  0
  9 10  1  1
  9 11  1  0
 11 12  1  6
 11 13  1  0
 13 14  1  0
 14 15  2  0
 14 16  1  0
 16 17  1  0
 16 18  1  0
 16 19  1  0
 11 20  1  0
 20 21  1  0
 21 22  1  6
 21 23  1  0
 23 24  1  0
 23 25  1  0
 23 26  1  0
 26 27  1  0
 27 28  2  0
 27 29  1  0
 29 30  1  0
 29 31  1  0
 29 32  1  0
 21 33  1  0
 33 34  1  6
 33 35  1  0
 35 36  1  0
 36 37  2  0
 36 38  1  0
 38 39  1  0
 38 40  1  0
 38 41  1  0
 33 42  1  0
 42 43  1  6
 42 44  1  0
 44 45  1  0
 45 46  2  0
 45 47  1  0
 47 48  1  0
 47 49  1  0
 47 50  1  0
 42  9  1  0
M  END
>  <UniqueID>  (163) 
162

>  <SMILES>  (163) 
CC(=O)OC[C@H]1O[C@@H](OC(C)=O)[C@H](N/C(O)=C/Cl)[C@@H](OC(C)=O)[C@H]1OC(C)=O

>  <Energy>  (163) 
35.619659257475114

>  <Genealogy>  (163) 
CC(=O)OC[C@H]1O[C@@H](OC(C)=O)[C@H](NC(O)=CCl)[C@@H](OC(C)=O)[C@H]1OC(C)=O (tautomer)
CC(=O)OC[C@H]1O[C@@H](OC(C)=O)[C@H](N/C(O)=C/Cl)[C@@H](OC(C)=O)[C@H]1OC(C)=O (cis-trans isomerization)
CC(=O)OC[C@H]1O[C@@H](OC(C)=O)[C@H](N/C(O)=C/Cl)[C@@H](OC(C)=O)[C@H]1OC(C)=O (3D coordinates assigned)
CC(=O)OC[C@H]1O[C@@H](OC(C)=O)[C@H](N/C(O)=C/Cl)[C@@H](OC(C)=O)[C@H]1OC(C)=O (nonaromatic ring conformer: 35.619659257475114 kcal/mol)

$$$$
2801971
     RDKit          3D

 43 44  0  0  0  0  0  0  0  0999 V2000
    0.6999    3.4031    1.5306 C   0  0  0  0  0  0  0  0  0  0  0  0
   -0.0875    2.5566    0.5848 C   0  0  0  0  0  0  0  0  0  0  0  0
   -0.1969    2.9116   -0.6199 O   0  0  0  0  0  0  0  0  0  0  0  0
   -0.7561    1.3796    1.0606 N   0  0  0  0  0  0  0  0  0  0  0  0
   -1.4762    0.4652    0.1647 C   0  0  1  0  0  0  0  0  0  0  0  0
   -0.4765   -0.3370   -0.6937 C   0  0  1  0  0  0  0  0  0  0  0  0
    0.4650   -0.9978    0.1414 O   0  0  0  0  0  0  0  0  0  0  0  0
    1.7085   -1.1509   -0.5136 C   0  0  0  0  0  0  0  0  0  0  0  0
    2.5621    0.0692   -0.2916 C   0  0  0  0  0  0  0  0  0  0  0  0
    3.0468    0.3609    0.9938 C   0  0  0  0  0  0  0  0  0  0  0  0
    3.8052    1.5144    1.2155 C   0  0  0  0  0  0  0  0  0  0  0  0
    4.0767    2.3878    0.1589 C   0  0  0  0  0  0  0  0  0  0  0  0
    3.5911    2.1083   -1.1214 C   0  0  0  0  0  0  0  0  0  0  0  0
    2.8357    0.9537   -1.3482 C   0  0  0  0  0  0  0  0  0  0  0  0
   -1.1496   -1.2609   -1.5357 O   0  0  0  0  0  0  0  0  0  0  0  0
   -1.8771   -2.2239   -0.7881 C   0  0  2  0  0  0  0  0  0  0  0  0
   -2.4694   -3.2463   -1.7697 C   0  0  0  0  0  0  0  0  0  0  0  0
   -1.4558   -3.8188   -2.5516 O   0  0  0  0  0  0  0  0  0  0  0  0
   -2.9929   -1.5428    0.0385 C   0  0  1  0  0  0  0  0  0  0  0  0
   -3.6707   -2.4980    0.8166 O   0  0  0  0  0  0  0  0  0  0  0  0
   -2.3722   -0.4911    0.9716 C   0  0  2  0  0  0  0  0  0  0  0  0
   -3.3864    0.2488    1.6021 O   0  0  0  0  0  0  0  0  0  0  0  0
    1.4612    3.9927    0.9771 H   0  0  0  0  0  0  0  0  0  0  0  0
    1.2197    2.7614    2.2724 H   0  0  0  0  0  0  0  0  0  0  0  0
    0.0162    4.0964    2.0625 H   0  0  0  0  0  0  0  0  0  0  0  0
   -0.7260    1.1783    2.0863 H   0  0  0  0  0  0  0  0  0  0  0  0
   -2.1296    1.0615   -0.5123 H   0  0  0  0  0  0  0  0  0  0  0  0
    0.0185    0.4074   -1.3588 H   0  0  0  0  0  0  0  0  0  0  0  0
    1.5950   -1.3877   -1.5981 H   0  0  0  0  0  0  0  0  0  0  0  0
    2.2266   -2.0262   -0.0680 H   0  0  0  0  0  0  0  0  0  0  0  0
    2.8312   -0.3015    1.8231 H   0  0  0  0  0  0  0  0  0  0  0  0
    4.1754    1.7355    2.2082 H   0  0  0  0  0  0  0  0  0  0  0  0
    4.6589    3.2833    0.3333 H   0  0  0  0  0  0  0  0  0  0  0  0
    3.7972    2.7884   -1.9377 H   0  0  0  0  0  0  0  0  0  0  0  0
    2.4585    0.7546   -2.3435 H   0  0  0  0  0  0  0  0  0  0  0  0
   -1.1991   -2.7844   -0.1035 H   0  0  0  0  0  0  0  0  0  0  0  0
   -3.1906   -2.7393   -2.4460 H   0  0  0  0  0  0  0  0  0  0  0  0
   -3.0186   -4.0452   -1.2217 H   0  0  0  0  0  0  0  0  0  0  0  0
   -0.9729   -4.4594   -1.9667 H   0  0  0  0  0  0  0  0  0  0  0  0
   -3.6996   -1.0236   -0.6544 H   0  0  0  0  0  0  0  0  0  0  0  0
   -4.4783   -2.7712    0.3082 H   0  0  0  0  0  0  0  0  0  0  0  0
   -1.7460   -1.0086    1.7384 H   0  0  0  0  0  0  0  0  0  0  0  0
   -3.7213   -0.3040    2.3556 H   0  0  0  0  0  0  0  0  0  0  0  0
  1  2  1  0
  2  3  2  0
  2  4  1  0
  4  5  1  0
  5  6  1  0
  6  7  1  0
  7  8  1  0
  8  9  1  0
  9 10  2  0
 10 11  1  0
 11 12  2  0
 12 13  1  0
 13 14  2  0
  6 15  1  0
 15 16  1  0
 16 17  1  0
 17 18  1  0
 16 19  1  0
 19 20  1  0
 19 21  1  0
 21 22  1  0
 21  5  1  0
 14  9  1  0
  1 23  1  0
  1 24  1  0
  1 25  1  0
  4 26  1  0
  5 27  1  6
  6 28  1  6
  8 29  1  0
  8 30  1  0
 10 31  1  0
 11 32  1  0
 12 33  1  0
 13 34  1  0
 14 35  1  0
 16 36  1  1
 17 37  1  0
 17 38  1  0
 18 39  1  0
 19 40  1  6
 20 41  1  0
 21 42  1  1
 22 43  1  0
M  END
>  <UniqueID>  (164) 
163

>  <SMILES>  (164) 
CC(=O)N[C@H]1[C@@H](OCc2ccccc2)O[C@H](CO)[C@@H](O)[C@@H]1O

>  <Energy>  (164) 
39.184377316760916

>  <Genealogy>  (164) 
CC(=O)N[C@H]1[C@@H](OCc2ccccc2)O[C@H](CO)[C@@H](O)[C@@H]1O (3D coordinates assigned)
CC(=O)N[C@H]1[C@@H](OCc2ccccc2)O[C@H](CO)[C@@H](O)[C@@H]1O (nonaromatic ring conformer: 39.184377316760916 kcal/mol)

$$$$
2801971
     RDKit          3D

 43 44  0  0  0  0  0  0  0  0999 V2000
   -1.3223    4.3234    1.7369 C   0  0  0  0  0  0  0  0  0  0  0  0
   -1.7915    3.2466    0.8140 C   0  0  0  0  0  0  0  0  0  0  0  0
   -2.3671    3.5563   -0.2642 O   0  0  0  0  0  0  0  0  0  0  0  0
   -1.5946    1.8701    1.1649 N   0  0  0  0  0  0  0  0  0  0  0  0
   -1.9634    0.7694    0.2665 C   0  0  1  0  0  0  0  0  0  0  0  0
   -0.9148    0.6285   -0.8552 C   0  0  1  0  0  0  0  0  0  0  0  0
    0.3810    0.4792   -0.2961 O   0  0  0  0  0  0  0  0  0  0  0  0
    1.3690    0.7275   -1.2734 C   0  0  0  0  0  0  0  0  0  0  0  0
    2.7070    0.3540   -0.7068 C   0  0  0  0  0  0  0  0  0  0  0  0
    3.4976    1.3154   -0.0553 C   0  0  0  0  0  0  0  0  0  0  0  0
    4.7245    0.9519    0.5090 C   0  0  0  0  0  0  0  0  0  0  0  0
    5.1631   -0.3735    0.4386 C   0  0  0  0  0  0  0  0  0  0  0  0
    4.3727   -1.3389   -0.1912 C   0  0  0  0  0  0  0  0  0  0  0  0
    3.1454   -0.9797   -0.7571 C   0  0  0  0  0  0  0  0  0  0  0  0
   -1.2409   -0.4553   -1.7143 O   0  0  0  0  0  0  0  0  0  0  0  0
   -1.2217   -1.6974   -1.0275 C   0  0  2  0  0  0  0  0  0  0  0  0
   -1.4464   -2.8093   -2.0661 C   0  0  0  0  0  0  0  0  0  0  0  0
   -1.2450   -4.0793   -1.5060 O   0  0  0  0  0  0  0  0  0  0  0  0
   -2.3094   -1.7232    0.0724 C   0  0  1  0  0  0  0  0  0  0  0  0
   -2.2462   -2.9366    0.7780 O   0  0  0  0  0  0  0  0  0  0  0  0
   -2.0916   -0.5540    1.0472 C   0  0  2  0  0  0  0  0  0  0  0  0
   -3.1814   -0.4835    1.9314 O   0  0  0  0  0  0  0  0  0  0  0  0
   -1.5096    5.3260    1.2967 H   0  0  0  0  0  0  0  0  0  0  0  0
   -0.2333    4.2082    1.9181 H   0  0  0  0  0  0  0  0  0  0  0  0
   -1.8640    4.2460    2.7025 H   0  0  0  0  0  0  0  0  0  0  0  0
   -1.1475    1.6562    2.0856 H   0  0  0  0  0  0  0  0  0  0  0  0
   -2.9525    0.9907   -0.1953 H   0  0  0  0  0  0  0  0  0  0  0  0
   -0.9721    1.5647   -1.4580 H   0  0  0  0  0  0  0  0  0  0  0  0
    1.3696    1.8050   -1.5545 H   0  0  0  0  0  0  0  0  0  0  0  0
    1.1921    0.1285   -2.1965 H   0  0  0  0  0  0  0  0  0  0  0  0
    3.1642    2.3433    0.0170 H   0  0  0  0  0  0  0  0  0  0  0  0
    5.3331    1.6968    1.0054 H   0  0  0  0  0  0  0  0  0  0  0  0
    6.1119   -0.6534    0.8777 H   0  0  0  0  0  0  0  0  0  0  0  0
    4.7087   -2.3667   -0.2368 H   0  0  0  0  0  0  0  0  0  0  0  0
    2.5363   -1.7394   -1.2318 H   0  0  0  0  0  0  0  0  0  0  0  0
   -0.2206   -1.8733   -0.5700 H   0  0  0  0  0  0  0  0  0  0  0  0
   -2.4820   -2.7514   -2.4645 H   0  0  0  0  0  0  0  0  0  0  0  0
   -0.7528   -2.6636   -2.9260 H   0  0  0  0  0  0  0  0  0  0  0  0
   -0.2638   -4.1948   -1.4081 H   0  0  0  0  0  0  0  0  0  0  0  0
   -3.3083   -1.6129   -0.4147 H   0  0  0  0  0  0  0  0  0  0  0  0
   -3.1340   -3.0713    1.2013 H   0  0  0  0  0  0  0  0  0  0  0  0
   -1.1491   -0.7459    1.6154 H   0  0  0  0  0  0  0  0  0  0  0  0
   -2.8620   -0.0237    2.7510 H   0  0  0  0  0  0  0  0  0  0  0  0
  1  2  1  0
  2  3  2  0
  2  4  1  0
  4  5  1  0
  5  6  1  0
  6  7  1  0
  7  8  1  0
  8  9  1  0
  9 10  2  0
 10 11  1  0
 11 12  2  0
 12 13  1  0
 13 14  2  0
  6 15  1  0
 15 16  1  0
 16 17  1  0
 17 18  1  0
 16 19  1  0
 19 20  1  0
 19 21  1  0
 21 22  1  0
 21  5  1  0
 14  9  1  0
  1 23  1  0
  1 24  1  0
  1 25  1  0
  4 26  1  0
  5 27  1  6
  6 28  1  6
  8 29  1  0
  8 30  1  0
 10 31  1  0
 11 32  1  0
 12 33  1  0
 13 34  1  0
 14 35  1  0
 16 36  1  1
 17 37  1  0
 17 38  1  0
 18 39  1  0
 19 40  1  6
 20 41  1  0
 21 42  1  1
 22 43  1  0
M  END
>  <UniqueID>  (165) 
164

>  <SMILES>  (165) 
CC(=O)N[C@H]1[C@@H](OCc2ccccc2)O[C@H](CO)[C@@H](O)[C@@H]1O

>  <Energy>  (165) 
40.47160525029426

>  <Genealogy>  (165) 
CC(=O)N[C@H]1[C@@H](OCc2ccccc2)O[C@H](CO)[C@@H](O)[C@@H]1O (3D coordinates assigned)
CC(=O)N[C@H]1[C@@H](OCc2ccccc2)O[C@H](CO)[C@@H](O)[C@@H]1O (nonaromatic ring conformer: 40.47160525029426 kcal/mol)

$$$$
2801971
     RDKit          3D

 43 44  0  0  0  0  0  0  0  0999 V2000
    4.0494    3.3159   -0.7572 H   0  0  0  0  0  0  0  0  0  0  0  0
    3.2301    2.9415   -1.2206 O   0  0  0  0  0  0  0  0  0  0  0  0
    2.8032    1.6342   -1.0026 C   0  0  0  0  0  0  0  0  0  0  0  0
    1.7180    1.2339   -1.6029 N   0  0  0  0  0  0  0  0  0  0  0  0
    1.0581   -0.0728   -1.4922 C   0  0  1  0  0  0  0  0  0  0  0  0
    1.8109   -0.8895   -1.5458 H   0  0  0  0  0  0  0  0  0  0  0  0
    0.2829   -0.1757   -0.1603 C   0  0  1  0  0  0  0  0  0  0  0  0
    1.0526   -0.2130    0.6414 H   0  0  0  0  0  0  0  0  0  0  0  0
   -0.5739    0.9481   -0.0054 O   0  0  0  0  0  0  0  0  0  0  0  0
   -0.7895    1.2392    1.3615 C   0  0  0  0  0  0  0  0  0  0  0  0
   -1.7268    1.8283    1.4444 H   0  0  0  0  0  0  0  0  0  0  0  0
   -0.9532    0.3158    1.9655 H   0  0  0  0  0  0  0  0  0  0  0  0
    0.3391    2.0769    1.9041 C   0  0  0  0  0  0  0  0  0  0  0  0
    0.6419    3.3145    1.3131 C   0  0  0  0  0  0  0  0  0  0  0  0
    0.0555    3.6807    0.4794 H   0  0  0  0  0  0  0  0  0  0  0  0
    1.7145    4.0769    1.7853 C   0  0  0  0  0  0  0  0  0  0  0  0
    1.9488    5.0261    1.3211 H   0  0  0  0  0  0  0  0  0  0  0  0
    2.4881    3.6117    2.8521 C   0  0  0  0  0  0  0  0  0  0  0  0
    3.3198    4.2017    3.2148 H   0  0  0  0  0  0  0  0  0  0  0  0
    2.1887    2.3845    3.4499 C   0  0  0  0  0  0  0  0  0  0  0  0
    2.7898    2.0244    4.2748 H   0  0  0  0  0  0  0  0  0  0  0  0
    1.1181    1.6177    2.9792 C   0  0  0  0  0  0  0  0  0  0  0  0
    0.9055    0.6634    3.4447 H   0  0  0  0  0  0  0  0  0  0  0  0
   -0.4467   -1.3912   -0.0807 O   0  0  0  0  0  0  0  0  0  0  0  0
   -1.4265   -1.4898   -1.1023 C   0  0  2  0  0  0  0  0  0  0  0  0
   -2.1360   -0.6319   -1.0435 H   0  0  0  0  0  0  0  0  0  0  0  0
   -2.2411   -2.7661   -0.8483 C   0  0  0  0  0  0  0  0  0  0  0  0
   -2.5412   -2.7950    0.2234 H   0  0  0  0  0  0  0  0  0  0  0  0
   -1.6191   -3.6649   -1.0610 H   0  0  0  0  0  0  0  0  0  0  0  0
   -3.3949   -2.7778   -1.6433 O   0  0  0  0  0  0  0  0  0  0  0  0
   -3.8583   -3.6324   -1.4437 H   0  0  0  0  0  0  0  0  0  0  0  0
   -0.7498   -1.5159   -2.4939 C   0  0  1  0  0  0  0  0  0  0  0  0
   -0.0692   -2.4008   -2.5531 H   0  0  0  0  0  0  0  0  0  0  0  0
   -1.7196   -1.5630   -3.5108 O   0  0  0  0  0  0  0  0  0  0  0  0
   -1.7987   -2.5101   -3.7980 H   0  0  0  0  0  0  0  0  0  0  0  0
    0.0935   -0.2480   -2.6782 C   0  0  2  0  0  0  0  0  0  0  0  0
   -0.5971    0.6291   -2.7269 H   0  0  0  0  0  0  0  0  0  0  0  0
    0.8192   -0.3505   -3.8770 O   0  0  0  0  0  0  0  0  0  0  0  0
    1.0569    0.5735   -4.1516 H   0  0  0  0  0  0  0  0  0  0  0  0
    3.5898    0.7576   -0.0655 C   0  0  0  0  0  0  0  0  0  0  0  0
    3.6651   -0.2810   -0.4438 H   0  0  0  0  0  0  0  0  0  0  0  0
    3.1231    0.7642    0.9394 H   0  0  0  0  0  0  0  0  0  0  0  0
    4.6244    1.1460    0.0358 H   0  0  0  0  0  0  0  0  0  0  0  0
  1  2  1  0
  2  3  1  0
  3  4  2  0
  4  5  1  0
  5  6  1  1
  5  7  1  0
  7  8  1  1
  7  9  1  0
  9 10  1  0
 10 11  1  0
 10 12  1  0
 10 13  1  0
 13 14  2  0
 14 15  1  0
 14 16  1  0
 16 17  1  0
 16 18  2  0
 18 19  1  0
 18 20  1  0
 20 21  1  0
 20 22  2  0
 22 23  1  0
  7 24  1  0
 24 25  1  0
 25 26  1  6
 25 27  1  0
 27 28  1  0
 27 29  1  0
 27 30  1  0
 30 31  1  0
 25 32  1  0
 32 33  1  1
 32 34  1  0
 34 35  1  0
 32 36  1  0
 36 37  1  6
 36 38  1  0
 38 39  1  0
  3 40  1  0
 40 41  1  0
 40 42  1  0
 40 43  1  0
 36  5  1  0
 22 13  1  0
M  END
>  <UniqueID>  (166) 
165

>  <SMILES>  (166) 
C/C(O)=N/[C@H]1[C@@H](OCc2ccccc2)O[C@H](CO)[C@@H](O)[C@@H]1O

>  <Energy>  (166) 
42.793135442086566

>  <Genealogy>  (166) 
CC(O)=N[C@H]1[C@@H](OCc2ccccc2)O[C@H](CO)[C@@H](O)[C@@H]1O (tautomer)
C/C(O)=N/[C@H]1[C@@H](OCc2ccccc2)O[C@H](CO)[C@@H](O)[C@@H]1O (cis-trans isomerization)
C/C(O)=N/[C@H]1[C@@H](OCc2ccccc2)O[C@H](CO)[C@@H](O)[C@@H]1O (3D coordinates assigned)
C/C(O)=N/[C@H]1[C@@H](OCc2ccccc2)O[C@H](CO)[C@@H](O)[C@@H]1O (nonaromatic ring conformer: 42.793135442086566 kcal/mol)

$$$$
2733787
     RDKit          3D

 48 50  0  0  0  0  0  0  0  0999 V2000
    0.9189   -5.5819   -2.1246 H   0  0  0  0  0  0  0  0  0  0  0  0
    0.4070   -4.7718   -1.7964 O   0  0  0  0  0  0  0  0  0  0  0  0
    0.5777   -3.5209   -2.3891 C   0  0  0  0  0  0  0  0  0  0  0  0
   -0.0673   -2.4832   -1.9464 N   0  0  0  0  0  0  0  0  0  0  0  0
   -1.0344   -2.5097   -0.8464 C   0  0  1  0  0  0  0  0  0  0  0  0
   -0.7214   -3.2515   -0.0759 H   0  0  0  0  0  0  0  0  0  0  0  0
   -1.0742   -1.1238   -0.1814 C   0  0  2  0  0  0  0  0  0  0  0  0
   -1.3236   -0.3512   -0.9474 H   0  0  0  0  0  0  0  0  0  0  0  0
    0.2180   -0.8293    0.3482 O   0  0  0  0  0  0  0  0  0  0  0  0
    0.5813    0.3876    0.9461 C   0  0  0  0  0  0  0  0  0  0  0  0
    1.8802    0.5153    1.4479 C   0  0  0  0  0  0  0  0  0  0  0  0
    2.5716   -0.3140    1.3663 H   0  0  0  0  0  0  0  0  0  0  0  0
    2.2987    1.7013    2.0566 C   0  0  0  0  0  0  0  0  0  0  0  0
    3.3123    1.7540    2.4310 H   0  0  0  0  0  0  0  0  0  0  0  0
    1.4146    2.7908    2.1737 C   0  0  0  0  0  0  0  0  0  0  0  0
    1.7825    4.0133    2.7805 C   0  0  0  0  0  0  0  0  0  0  0  0
    3.1586    4.2404    3.3506 C   0  0  0  0  0  0  0  0  0  0  0  0
    3.9200    4.1313    2.5498 H   0  0  0  0  0  0  0  0  0  0  0  0
    3.3583    3.5026    4.1559 H   0  0  0  0  0  0  0  0  0  0  0  0
    3.2608    5.2578    3.7846 H   0  0  0  0  0  0  0  0  0  0  0  0
    0.8324    5.0414    2.8503 C   0  0  0  0  0  0  0  0  0  0  0  0
    1.0770    5.9928    3.3080 H   0  0  0  0  0  0  0  0  0  0  0  0
   -0.4439    4.8344    2.3229 C   0  0  0  0  0  0  0  0  0  0  0  0
   -1.3038    5.7518    2.3810 O   0  0  0  0  0  0  0  0  0  0  0  0
   -0.7594    3.6746    1.7588 O   0  0  0  0  0  0  0  0  0  0  0  0
    0.0998    2.6646    1.6645 C   0  0  0  0  0  0  0  0  0  0  0  0
   -0.3081    1.4729    1.0559 C   0  0  0  0  0  0  0  0  0  0  0  0
   -1.3176    1.4057    0.6738 H   0  0  0  0  0  0  0  0  0  0  0  0
   -2.0152   -1.1201    0.8773 O   0  0  0  0  0  0  0  0  0  0  0  0
   -3.3303   -1.2750    0.3728 C   0  0  2  0  0  0  0  0  0  0  0  0
   -3.5546   -0.4904   -0.3886 H   0  0  0  0  0  0  0  0  0  0  0  0
   -4.3203   -1.0785    1.5300 C   0  0  0  0  0  0  0  0  0  0  0  0
   -5.3607   -1.1832    1.1565 H   0  0  0  0  0  0  0  0  0  0  0  0
   -4.1606   -1.8536    2.3150 H   0  0  0  0  0  0  0  0  0  0  0  0
   -4.1848    0.2070    2.0748 O   0  0  0  0  0  0  0  0  0  0  0  0
   -3.4131    0.1751    2.6986 H   0  0  0  0  0  0  0  0  0  0  0  0
   -3.4889   -2.6762   -0.2640 C   0  0  1  0  0  0  0  0  0  0  0  0
   -3.3132   -3.4545    0.5189 H   0  0  0  0  0  0  0  0  0  0  0  0
   -4.7709   -2.8149   -0.8243 O   0  0  0  0  0  0  0  0  0  0  0  0
   -5.3399   -3.2662   -0.1475 H   0  0  0  0  0  0  0  0  0  0  0  0
   -2.4409   -2.8650   -1.3727 C   0  0  2  0  0  0  0  0  0  0  0  0
   -2.6977   -2.1761   -2.2149 H   0  0  0  0  0  0  0  0  0  0  0  0
   -2.4752   -4.2001   -1.8087 O   0  0  0  0  0  0  0  0  0  0  0  0
   -2.2263   -4.1997   -2.7697 H   0  0  0  0  0  0  0  0  0  0  0  0
    1.5431   -3.3595   -3.5185 C   0  0  0  0  0  0  0  0  0  0  0  0
    1.3134   -2.4429   -4.1029 H   0  0  0  0  0  0  0  0  0  0  0  0
    2.5738   -3.2848   -3.1142 H   0  0  0  0  0  0  0  0  0  0  0  0
    1.4796   -4.2363   -4.1962 H   0  0  0  0  0  0  0  0  0  0  0  0
  1  2  1  0
  2  3  1  0
  3  4  2  0
  4  5  1  0
  5  6  1  1
  5  7  1  0
  7  8  1  6
  7  9  1  0
  9 10  1  0
 10 11  2  0
 11 12  1  0
 11 13  1  0
 13 14  1  0
 13 15  2  0
 15 16  1  0
 16 17  1  0
 17 18  1  0
 17 19  1  0
 17 20  1  0
 16 21  2  0
 21 22  1  0
 21 23  1  0
 23 24  2  0
 23 25  1  0
 25 26  1  0
 26 27  2  0
 27 28  1  0
  7 29  1  0
 29 30  1  0
 30 31  1  6
 30 32  1  0
 32 33  1  0
 32 34  1  0
 32 35  1  0
 35 36  1  0
 30 37  1  0
 37 38  1  1
 37 39  1  0
 39 40  1  0
 37 41  1  0
 41 42  1  6
 41 43  1  0
 43 44  1  0
  3 45  1  0
 45 46  1  0
 45 47  1  0
 45 48  1  0
 41  5  1  0
 27 10  1  0
 26 15  1  0
M  END
>  <UniqueID>  (167) 
166

>  <SMILES>  (167) 
C/C(O)=N/[C@H]1[C@H](Oc2ccc3c(C)cc(=O)oc3c2)O[C@H](CO)[C@@H](O)[C@@H]1O

>  <Energy>  (167) 
50.85708653505314

>  <Genealogy>  (167) 
CC(O)=N[C@H]1[C@H](Oc2ccc3c(C)cc(=O)oc3c2)O[C@H](CO)[C@@H](O)[C@@H]1O (tautomer)
C/C(O)=N/[C@H]1[C@H](Oc2ccc3c(C)cc(=O)oc3c2)O[C@H](CO)[C@@H](O)[C@@H]1O (cis-trans isomerization)
C/C(O)=N/[C@H]1[C@H](Oc2ccc3c(C)cc(=O)oc3c2)O[C@H](CO)[C@@H](O)[C@@H]1O (3D coordinates assigned)
C/C(O)=N/[C@H]1[C@H](Oc2ccc3c(C)cc(=O)oc3c2)O[C@H](CO)[C@@H](O)[C@@H]1O (nonaromatic ring conformer: 50.85708653505314 kcal/mol)

$$$$
2733787
     RDKit          3D

 48 50  0  0  0  0  0  0  0  0999 V2000
    4.2829   -0.7795    1.3948 C   0  0  0  0  0  0  0  0  0  0  0  0
    3.0364   -0.0103    1.6873 C   0  0  0  0  0  0  0  0  0  0  0  0
    3.0697    1.2500    1.6838 O   0  0  0  0  0  0  0  0  0  0  0  0
    1.8047   -0.7070    1.9234 N   0  0  0  0  0  0  0  0  0  0  0  0
    0.5240   -0.0150    2.1014 C   0  0  1  0  0  0  0  0  0  0  0  0
   -0.2450    0.0222    0.7690 C   0  0  2  0  0  0  0  0  0  0  0  0
    0.5323    0.7360   -0.1913 O   0  0  0  0  0  0  0  0  0  0  0  0
    0.2061    0.8704   -1.5495 C   0  0  0  0  0  0  0  0  0  0  0  0
    1.0667    1.6120   -2.3646 C   0  0  0  0  0  0  0  0  0  0  0  0
    0.7952    1.7809   -3.7247 C   0  0  0  0  0  0  0  0  0  0  0  0
   -0.3546    1.2039   -4.2972 C   0  0  0  0  0  0  0  0  0  0  0  0
   -0.6798    1.3422   -5.6658 C   0  0  0  0  0  0  0  0  0  0  0  0
    0.1872    2.1240   -6.6184 C   0  0  0  0  0  0  0  0  0  0  0  0
   -1.8466    0.7305   -6.1441 C   0  0  0  0  0  0  0  0  0  0  0  0
   -2.6524    0.0049   -5.2641 C   0  0  0  0  0  0  0  0  0  0  0  0
   -3.7021   -0.5481   -5.6847 O   0  0  0  0  0  0  0  0  0  0  0  0
   -2.3200   -0.1069   -3.9836 O   0  0  0  0  0  0  0  0  0  0  0  0
   -1.2265    0.4516   -3.4739 C   0  0  0  0  0  0  0  0  0  0  0  0
   -0.9443    0.2884   -2.1135 C   0  0  0  0  0  0  0  0  0  0  0  0
   -1.4847    0.6877    0.9427 O   0  0  0  0  0  0  0  0  0  0  0  0
   -2.3442   -0.0626    1.7849 C   0  0  2  0  0  0  0  0  0  0  0  0
   -3.7205    0.6224    1.7841 C   0  0  0  0  0  0  0  0  0  0  0  0
   -4.6778   -0.1567    2.4499 O   0  0  0  0  0  0  0  0  0  0  0  0
   -1.7482   -0.1392    3.2167 C   0  0  1  0  0  0  0  0  0  0  0  0
   -2.5649   -0.8919    4.0795 O   0  0  0  0  0  0  0  0  0  0  0  0
   -0.3265   -0.7396    3.1636 C   0  0  2  0  0  0  0  0  0  0  0  0
    0.2900   -0.6847    4.4264 O   0  0  0  0  0  0  0  0  0  0  0  0
    4.2546   -1.1420    0.3463 H   0  0  0  0  0  0  0  0  0  0  0  0
    4.3594   -1.6490    2.0808 H   0  0  0  0  0  0  0  0  0  0  0  0
    5.1779   -0.1364    1.5336 H   0  0  0  0  0  0  0  0  0  0  0  0
    1.7998   -1.7476    1.8202 H   0  0  0  0  0  0  0  0  0  0  0  0
    0.6955    1.0318    2.4397 H   0  0  0  0  0  0  0  0  0  0  0  0
   -0.3926   -1.0198    0.3977 H   0  0  0  0  0  0  0  0  0  0  0  0
    1.9549    2.0620   -1.9389 H   0  0  0  0  0  0  0  0  0  0  0  0
    1.4891    2.3628   -4.3164 H   0  0  0  0  0  0  0  0  0  0  0  0
    0.2617    3.1788   -6.2798 H   0  0  0  0  0  0  0  0  0  0  0  0
   -0.2296    2.1232   -7.6481 H   0  0  0  0  0  0  0  0  0  0  0  0
    1.2015    1.6743   -6.6588 H   0  0  0  0  0  0  0  0  0  0  0  0
   -2.1294    0.8140   -7.1871 H   0  0  0  0  0  0  0  0  0  0  0  0
   -1.6272   -0.2925   -1.5084 H   0  0  0  0  0  0  0  0  0  0  0  0
   -2.4817   -1.0905    1.3731 H   0  0  0  0  0  0  0  0  0  0  0  0
   -3.6505    1.6119    2.2846 H   0  0  0  0  0  0  0  0  0  0  0  0
   -4.0471    0.8049    0.7345 H   0  0  0  0  0  0  0  0  0  0  0  0
   -4.9094   -0.9054    1.8403 H   0  0  0  0  0  0  0  0  0  0  0  0
   -1.6807    0.8949    3.6220 H   0  0  0  0  0  0  0  0  0  0  0  0
   -2.6497   -1.8034    3.6948 H   0  0  0  0  0  0  0  0  0  0  0  0
   -0.4105   -1.8111    2.8737 H   0  0  0  0  0  0  0  0  0  0  0  0
    0.3703    0.2714    4.6824 H   0  0  0  0  0  0  0  0  0  0  0  0
  1  2  1  0
  2  3  2  0
  2  4  1  0
  4  5  1  0
  5  6  1  0
  6  7  1  0
  7  8  1  0
  8  9  2  0
  9 10  1  0
 10 11  2  0
 11 12  1  0
 12 13  1  0
 12 14  2  0
 14 15  1  0
 15 16  2  0
 15 17  1  0
 17 18  1  0
 18 19  2  0
  6 20  1  0
 20 21  1  0
 21 22  1  0
 22 23  1  0
 21 24  1  0
 24 25  1  0
 24 26  1  0
 26 27  1  0
 26  5  1  0
 19  8  1  0
 18 11  1  0
  1 28  1  0
  1 29  1  0
  1 30  1  0
  4 31  1  0
  5 32  1  1
  6 33  1  6
  9 34  1  0
 10 35  1  0
 13 36  1  0
 13 37  1  0
 13 38  1  0
 14 39  1  0
 19 40  1  0
 21 41  1  6
 22 42  1  0
 22 43  1  0
 23 44  1  0
 24 45  1  1
 25 46  1  0
 26 47  1  6
 27 48  1  0
M  END
>  <UniqueID>  (168) 
167

>  <SMILES>  (168) 
CC(=O)N[C@H]1[C@H](Oc2ccc3c(C)cc(=O)oc3c2)O[C@H](CO)[C@@H](O)[C@@H]1O

>  <Energy>  (168) 
51.914952941271245

>  <Genealogy>  (168) 
CC(=O)N[C@H]1[C@H](Oc2ccc3c(C)cc(=O)oc3c2)O[C@H](CO)[C@@H](O)[C@@H]1O (3D coordinates assigned)
CC(=O)N[C@H]1[C@H](Oc2ccc3c(C)cc(=O)oc3c2)O[C@H](CO)[C@@H](O)[C@@H]1O (nonaromatic ring conformer: 51.914952941271245 kcal/mol)

$$$$
2733787
     RDKit          3D

 48 50  0  0  0  0  0  0  0  0999 V2000
    2.3498   -1.0227   -1.4124 C   0  0  0  0  0  0  0  0  0  0  0  0
    1.8090   -0.3394   -0.1987 C   0  0  0  0  0  0  0  0  0  0  0  0
    2.4186    0.6592    0.2706 O   0  0  0  0  0  0  0  0  0  0  0  0
    0.5737   -0.7815    0.3839 N   0  0  0  0  0  0  0  0  0  0  0  0
   -0.0666   -0.1025    1.5151 C   0  0  1  0  0  0  0  0  0  0  0  0
   -1.3320    0.6604    1.0568 C   0  0  2  0  0  0  0  0  0  0  0  0
   -0.9686    1.6953    0.1381 O   0  0  0  0  0  0  0  0  0  0  0  0
   -0.7225    1.5496   -1.2384 C   0  0  0  0  0  0  0  0  0  0  0  0
   -0.0749    2.5988   -1.8985 C   0  0  0  0  0  0  0  0  0  0  0  0
    0.2252    2.5136   -3.2600 C   0  0  0  0  0  0  0  0  0  0  0  0
   -0.1293    1.3671   -3.9952 C   0  0  0  0  0  0  0  0  0  0  0  0
    0.1574    1.2215   -5.3715 C   0  0  0  0  0  0  0  0  0  0  0  0
    0.8712    2.2910   -6.1568 C   0  0  0  0  0  0  0  0  0  0  0  0
   -0.2365    0.0423   -6.0186 C   0  0  0  0  0  0  0  0  0  0  0  0
   -0.8976   -0.9512   -5.2935 C   0  0  0  0  0  0  0  0  0  0  0  0
   -1.2558   -2.0135   -5.8661 O   0  0  0  0  0  0  0  0  0  0  0  0
   -1.1520   -0.7848   -4.0012 O   0  0  0  0  0  0  0  0  0  0  0  0
   -0.8012    0.3110   -3.3352 C   0  0  0  0  0  0  0  0  0  0  0  0
   -1.0991    0.4081   -1.9719 C   0  0  0  0  0  0  0  0  0  0  0  0
   -1.9427    1.2812    2.1748 O   0  0  0  0  0  0  0  0  0  0  0  0
   -2.4431    0.3141    3.0846 C   0  0  2  0  0  0  0  0  0  0  0  0
   -3.2534    1.0417    4.1677 C   0  0  0  0  0  0  0  0  0  0  0  0
   -4.2763    1.8037    3.5850 O   0  0  0  0  0  0  0  0  0  0  0  0
   -1.2742   -0.4822    3.7103 C   0  0  1  0  0  0  0  0  0  0  0  0
   -1.7674   -1.4874    4.5604 O   0  0  0  0  0  0  0  0  0  0  0  0
   -0.4493   -1.1394    2.5898 C   0  0  2  0  0  0  0  0  0  0  0  0
    0.6949   -1.7681    3.1129 O   0  0  0  0  0  0  0  0  0  0  0  0
    1.8927   -0.5789   -2.3207 H   0  0  0  0  0  0  0  0  0  0  0  0
    3.4523   -0.8996   -1.4634 H   0  0  0  0  0  0  0  0  0  0  0  0
    2.1152   -2.1072   -1.3776 H   0  0  0  0  0  0  0  0  0  0  0  0
    0.0727   -1.5833   -0.0624 H   0  0  0  0  0  0  0  0  0  0  0  0
    0.6319    0.6343    1.9711 H   0  0  0  0  0  0  0  0  0  0  0  0
   -2.0617   -0.0284    0.5780 H   0  0  0  0  0  0  0  0  0  0  0  0
    0.2120    3.4846   -1.3459 H   0  0  0  0  0  0  0  0  0  0  0  0
    0.7361    3.3464   -3.7243 H   0  0  0  0  0  0  0  0  0  0  0  0
    1.8750    2.4724   -5.7183 H   0  0  0  0  0  0  0  0  0  0  0  0
    0.2808    3.2310   -6.1345 H   0  0  0  0  0  0  0  0  0  0  0  0
    1.0091    1.9977   -7.2193 H   0  0  0  0  0  0  0  0  0  0  0  0
   -0.0343   -0.1062   -7.0730 H   0  0  0  0  0  0  0  0  0  0  0  0
   -1.6164   -0.4161   -1.5052 H   0  0  0  0  0  0  0  0  0  0  0  0
   -3.1384   -0.3893    2.5679 H   0  0  0  0  0  0  0  0  0  0  0  0
   -2.5868    1.7251    4.7363 H   0  0  0  0  0  0  0  0  0  0  0  0
   -3.6897    0.3129    4.8877 H   0  0  0  0  0  0  0  0  0  0  0  0
   -4.9823    1.1645    3.3043 H   0  0  0  0  0  0  0  0  0  0  0  0
   -0.6132    0.2223    4.2720 H   0  0  0  0  0  0  0  0  0  0  0  0
   -1.7712   -1.1167    5.4812 H   0  0  0  0  0  0  0  0  0  0  0  0
   -1.0784   -1.9246    2.1128 H   0  0  0  0  0  0  0  0  0  0  0  0
    1.2611   -1.0672    3.5303 H   0  0  0  0  0  0  0  0  0  0  0  0
  1  2  1  0
  2  3  2  0
  2  4  1  0
  4  5  1  0
  5  6  1  0
  6  7  1  0
  7  8  1  0
  8  9  2  0
  9 10  1  0
 10 11  2  0
 11 12  1  0
 12 13  1  0
 12 14  2  0
 14 15  1  0
 15 16  2  0
 15 17  1  0
 17 18  1  0
 18 19  2  0
  6 20  1  0
 20 21  1  0
 21 22  1  0
 22 23  1  0
 21 24  1  0
 24 25  1  0
 24 26  1  0
 26 27  1  0
 26  5  1  0
 19  8  1  0
 18 11  1  0
  1 28  1  0
  1 29  1  0
  1 30  1  0
  4 31  1  0
  5 32  1  1
  6 33  1  6
  9 34  1  0
 10 35  1  0
 13 36  1  0
 13 37  1  0
 13 38  1  0
 14 39  1  0
 19 40  1  0
 21 41  1  6
 22 42  1  0
 22 43  1  0
 23 44  1  0
 24 45  1  1
 25 46  1  0
 26 47  1  6
 27 48  1  0
M  END
>  <UniqueID>  (169) 
168

>  <SMILES>  (169) 
CC(=O)N[C@H]1[C@H](Oc2ccc3c(C)cc(=O)oc3c2)O[C@H](CO)[C@@H](O)[C@@H]1O

>  <Energy>  (169) 
52.23051723202724

>  <Genealogy>  (169) 
CC(=O)N[C@H]1[C@H](Oc2ccc3c(C)cc(=O)oc3c2)O[C@H](CO)[C@@H](O)[C@@H]1O (3D coordinates assigned)
CC(=O)N[C@H]1[C@H](Oc2ccc3c(C)cc(=O)oc3c2)O[C@H](CO)[C@@H](O)[C@@H]1O (nonaromatic ring conformer: 52.23051723202724 kcal/mol)

$$$$
2733335
     RDKit          3D

 33 33  0  0  0  0  0  0  0  0999 V2000
    4.6218   -0.1763    2.5855 H   0  0  0  0  0  0  0  0  0  0  0  0
    4.1142    0.1712    1.7812 O   0  0  0  0  0  0  0  0  0  0  0  0
    2.8858   -0.3699    1.4119 C   0  0  0  0  0  0  0  0  0  0  0  0
    2.2936    0.1009    0.3522 N   0  0  0  0  0  0  0  0  0  0  0  0
    0.9768   -0.2844   -0.1667 C   0  0  1  0  0  0  0  0  0  0  0  0
    0.9160   -1.3893   -0.2658 H   0  0  0  0  0  0  0  0  0  0  0  0
   -0.1503    0.2019    0.7725 C   0  0  1  0  0  0  0  0  0  0  0  0
   -0.0566   -0.3548    1.7304 H   0  0  0  0  0  0  0  0  0  0  0  0
   -0.0198    1.5756    1.0444 O   0  0  0  0  0  0  0  0  0  0  0  0
   -0.6994    1.7897    1.7355 H   0  0  0  0  0  0  0  0  0  0  0  0
   -1.4322   -0.0978    0.2393 O   0  0  0  0  0  0  0  0  0  0  0  0
   -1.6488    0.5517   -1.0043 C   0  0  2  0  0  0  0  0  0  0  0  0
   -1.5477    1.6558   -0.8883 H   0  0  0  0  0  0  0  0  0  0  0  0
   -3.0992    0.2951   -1.4415 C   0  0  0  0  0  0  0  0  0  0  0  0
   -3.3190    0.8135   -2.4037 H   0  0  0  0  0  0  0  0  0  0  0  0
   -3.7818    0.7281   -0.6795 H   0  0  0  0  0  0  0  0  0  0  0  0
   -3.3612   -1.0807   -1.5348 O   0  0  0  0  0  0  0  0  0  0  0  0
   -3.1870   -1.3450   -2.4755 H   0  0  0  0  0  0  0  0  0  0  0  0
   -0.6387    0.0608   -2.0662 C   0  0  1  0  0  0  0  0  0  0  0  0
   -0.7767   -1.0369   -2.2160 H   0  0  0  0  0  0  0  0  0  0  0  0
   -0.8517    0.7504   -3.2721 O   0  0  0  0  0  0  0  0  0  0  0  0
   -0.5209    0.1654   -4.0027 H   0  0  0  0  0  0  0  0  0  0  0  0
    0.7940    0.3181   -1.5675 C   0  0  2  0  0  0  0  0  0  0  0  0
    0.9696    1.4199   -1.5078 H   0  0  0  0  0  0  0  0  0  0  0  0
    1.7209   -0.2691   -2.4454 O   0  0  0  0  0  0  0  0  0  0  0  0
    1.8641    0.3737   -3.1883 H   0  0  0  0  0  0  0  0  0  0  0  0
    2.3005   -1.4130    2.2083 N   0  0  0  0  0  0  0  0  0  0  0  0
    2.0006   -2.6462    1.6045 N   0  0  0  0  0  0  0  0  0  0  0  0
    1.5891   -3.6159    2.2747 O   0  0  0  0  0  0  0  0  0  0  0  0
    2.2792   -1.2815    3.6649 C   0  0  0  0  0  0  0  0  0  0  0  0
    1.3613   -1.7515    4.0761 H   0  0  0  0  0  0  0  0  0  0  0  0
    3.1726   -1.7781    4.0981 H   0  0  0  0  0  0  0  0  0  0  0  0
    2.2755   -0.2101    3.9600 H   0  0  0  0  0  0  0  0  0  0  0  0
  1  2  1  0
  2  3  1  0
  3  4  2  0
  4  5  1  0
  5  6  1  6
  5  7  1  0
  7  8  1  1
  7  9  1  0
  9 10  1  0
  7 11  1  0
 11 12  1  0
 12 13  1  1
 12 14  1  0
 14 15  1  0
 14 16  1  0
 14 17  1  0
 17 18  1  0
 12 19  1  0
 19 20  1  6
 19 21  1  0
 21 22  1  0
 19 23  1  0
 23 24  1  1
 23 25  1  0
 25 26  1  0
  3 27  1  0
 27 28  1  0
 28 29  2  0
 27 30  1  0
 30 31  1  0
 30 32  1  0
 30 33  1  0
 23  5  1  0
M  END
>  <UniqueID>  (170) 
169

>  <SMILES>  (170) 
CN(N=O)/C(O)=N/[C@H]1[C@@H](O)O[C@H](CO)[C@@H](O)[C@@H]1O

>  <Energy>  (170) 
34.748305563478894

>  <Genealogy>  (170) 
CN(N=O)C(O)=N[C@H]1C(O)O[C@H](CO)[C@@H](O)[C@@H]1O (tautomer)
CN(N=O)C(O)=N[C@H]1[C@@H](O)O[C@H](CO)[C@@H](O)[C@@H]1O (chirality)
CN(N=O)/C(O)=N/[C@H]1[C@@H](O)O[C@H](CO)[C@@H](O)[C@@H]1O (cis-trans isomerization)
CN(N=O)/C(O)=N/[C@H]1[C@@H](O)O[C@H](CO)[C@@H](O)[C@@H]1O (3D coordinates assigned)
CN(N=O)/C(O)=N/[C@H]1[C@@H](O)O[C@H](CO)[C@@H](O)[C@@H]1O (nonaromatic ring conformer: 34.748305563478894 kcal/mol)

$$$$
2733335
     RDKit          3D

 33 33  0  0  0  0  0  0  0  0999 V2000
   -0.7518   -1.8351    0.7633 H   0  0  0  0  0  0  0  0  0  0  0  0
   -0.0474   -1.6587    1.4669 O   0  0  0  0  0  0  0  0  0  0  0  0
    0.4857   -0.3928    1.7319 C   0  0  0  0  0  0  0  0  0  0  0  0
    0.1130    0.6612    1.0601 N   0  0  0  0  0  0  0  0  0  0  0  0
   -0.8517    0.7046   -0.0427 C   0  0  1  0  0  0  0  0  0  0  0  0
   -1.7470    0.0988    0.2204 H   0  0  0  0  0  0  0  0  0  0  0  0
   -1.3180    2.1580   -0.2536 C   0  0  1  0  0  0  0  0  0  0  0  0
   -2.1204    2.1881   -1.0257 H   0  0  0  0  0  0  0  0  0  0  0  0
   -1.8537    2.6571    0.9441 O   0  0  0  0  0  0  0  0  0  0  0  0
   -2.7375    2.2219    1.0712 H   0  0  0  0  0  0  0  0  0  0  0  0
   -0.2360    2.9919   -0.6334 O   0  0  0  0  0  0  0  0  0  0  0  0
    0.3379    2.6151   -1.8794 C   0  0  2  0  0  0  0  0  0  0  0  0
    1.2418    3.2515   -2.0052 H   0  0  0  0  0  0  0  0  0  0  0  0
   -0.5577    2.9672   -3.0874 C   0  0  0  0  0  0  0  0  0  0  0  0
   -1.4580    2.3202   -3.1533 H   0  0  0  0  0  0  0  0  0  0  0  0
    0.0195    2.7991   -4.0216 H   0  0  0  0  0  0  0  0  0  0  0  0
   -0.9280    4.3188   -3.0441 O   0  0  0  0  0  0  0  0  0  0  0  0
   -1.7004    4.3833   -2.4240 H   0  0  0  0  0  0  0  0  0  0  0  0
    0.8388    1.1458   -1.8871 C   0  0  1  0  0  0  0  0  0  0  0  0
    1.0899    0.8440   -2.9317 H   0  0  0  0  0  0  0  0  0  0  0  0
    1.9979    1.0412   -1.0981 O   0  0  0  0  0  0  0  0  0  0  0  0
    2.7509    1.3984   -1.6380 H   0  0  0  0  0  0  0  0  0  0  0  0
   -0.2226    0.1673   -1.3424 C   0  0  2  0  0  0  0  0  0  0  0  0
    0.2711   -0.8089   -1.1282 H   0  0  0  0  0  0  0  0  0  0  0  0
   -1.2341   -0.0441   -2.2944 O   0  0  0  0  0  0  0  0  0  0  0  0
   -0.8519   -0.6314   -2.9979 H   0  0  0  0  0  0  0  0  0  0  0  0
    1.4681   -0.2640    2.7724 N   0  0  0  0  0  0  0  0  0  0  0  0
    1.9330   -1.4360    3.3954 N   0  0  0  0  0  0  0  0  0  0  0  0
    2.8535   -1.4088    4.2385 O   0  0  0  0  0  0  0  0  0  0  0  0
    2.0837    1.0340    3.0703 C   0  0  0  0  0  0  0  0  0  0  0  0
    2.9007    1.2328    2.3455 H   0  0  0  0  0  0  0  0  0  0  0  0
    1.3302    1.8476    3.0079 H   0  0  0  0  0  0  0  0  0  0  0  0
    2.4971    1.0478    4.1002 H   0  0  0  0  0  0  0  0  0  0  0  0
  1  2  1  0
  2  3  1  0
  3  4  2  0
  4  5  1  0
  5  6  1  1
  5  7  1  0
  7  8  1  6
  7  9  1  0
  9 10  1  0
  7 11  1  0
 11 12  1  0
 12 13  1  6
 12 14  1  0
 14 15  1  0
 14 16  1  0
 14 17  1  0
 17 18  1  0
 12 19  1  0
 19 20  1  6
 19 21  1  0
 21 22  1  0
 19 23  1  0
 23 24  1  1
 23 25  1  0
 25 26  1  0
  3 27  1  0
 27 28  1  0
 28 29  2  0
 27 30  1  0
 30 31  1  0
 30 32  1  0
 30 33  1  0
 23  5  1  0
M  END
>  <UniqueID>  (171) 
170

>  <SMILES>  (171) 
CN(N=O)/C(O)=N\[C@H]1[C@@H](O)O[C@H](CO)[C@@H](O)[C@@H]1O

>  <Energy>  (171) 
34.96241390300509

>  <Genealogy>  (171) 
CN(N=O)C(O)=N[C@H]1C(O)O[C@H](CO)[C@@H](O)[C@@H]1O (tautomer)
CN(N=O)C(O)=N[C@H]1[C@@H](O)O[C@H](CO)[C@@H](O)[C@@H]1O (chirality)
CN(N=O)/C(O)=N\[C@H]1[C@@H](O)O[C@H](CO)[C@@H](O)[C@@H]1O (cis-trans isomerization)
CN(N=O)/C(O)=N\[C@H]1[C@@H](O)O[C@H](CO)[C@@H](O)[C@@H]1O (3D coordinates assigned)
CN(N=O)/C(O)=N\[C@H]1[C@@H](O)O[C@H](CO)[C@@H](O)[C@@H]1O (nonaromatic ring conformer: 34.96241390300509 kcal/mol)

$$$$
2733335
     RDKit          3D

 34 34  0  0  0  0  0  0  0  0999 V2000
    2.2372   -0.6111   -2.1871 H   0  0  0  0  0  0  0  0  0  0  0  0
    1.7383   -0.5190   -1.3125 O   0  0  0  0  0  0  0  0  0  0  0  0
    2.3336   -0.1984   -0.0863 C   0  0  0  0  0  0  0  0  0  0  0  0
    1.4912   -0.0717    1.0823 N   0  0  0  0  0  0  0  0  0  0  0  0
    1.9381   -0.0557    2.0263 H   0  0  0  0  0  0  0  0  0  0  0  0
    0.0230    0.0412    1.0815 C   0  0  1  0  0  0  0  0  0  0  0  0
   -0.3005    0.1008    2.1470 H   0  0  0  0  0  0  0  0  0  0  0  0
   -0.4681    1.3466    0.4186 C   0  0  1  0  0  0  0  0  0  0  0  0
   -0.0106    2.1916    0.9815 H   0  0  0  0  0  0  0  0  0  0  0  0
   -0.0656    1.4377   -0.9238 O   0  0  0  0  0  0  0  0  0  0  0  0
   -0.3190    2.3468   -1.2312 H   0  0  0  0  0  0  0  0  0  0  0  0
   -1.8794    1.4663    0.5333 O   0  0  0  0  0  0  0  0  0  0  0  0
   -2.5532    0.4053   -0.1320 C   0  0  2  0  0  0  0  0  0  0  0  0
   -2.2810    0.3886   -1.2128 H   0  0  0  0  0  0  0  0  0  0  0  0
   -4.0613    0.6679   -0.0531 C   0  0  0  0  0  0  0  0  0  0  0  0
   -4.3827    0.6870    1.0129 H   0  0  0  0  0  0  0  0  0  0  0  0
   -4.6143   -0.1412   -0.5807 H   0  0  0  0  0  0  0  0  0  0  0  0
   -4.3579    1.8974   -0.6555 O   0  0  0  0  0  0  0  0  0  0  0  0
   -5.3389    2.0184   -0.5663 H   0  0  0  0  0  0  0  0  0  0  0  0
   -2.2021   -0.9621    0.5135 C   0  0  1  0  0  0  0  0  0  0  0  0
   -2.5316   -0.9439    1.5767 H   0  0  0  0  0  0  0  0  0  0  0  0
   -2.8720   -2.0205   -0.1275 O   0  0  0  0  0  0  0  0  0  0  0  0
   -2.6096   -2.0081   -1.0851 H   0  0  0  0  0  0  0  0  0  0  0  0
   -0.6803   -1.1909    0.4799 C   0  0  2  0  0  0  0  0  0  0  0  0
   -0.3847   -1.3364   -0.5815 H   0  0  0  0  0  0  0  0  0  0  0  0
   -0.3680   -2.3389    1.2259 O   0  0  0  0  0  0  0  0  0  0  0  0
    0.5284   -2.6416    0.9248 H   0  0  0  0  0  0  0  0  0  0  0  0
    3.6339   -0.0227    0.0105 N   0  0  0  0  0  4  0  0  0  0  0  0
    4.1874    0.3439    1.2545 N   0  0  0  0  0  0  0  0  0  0  0  0
    5.4101    0.5474    1.4054 O   0  0  0  0  0  0  0  0  0  0  0  0
    4.5124   -0.1749   -1.1602 C   0  0  0  0  0  0  0  0  0  0  0  0
    4.2578    0.5869   -1.9278 H   0  0  0  0  0  0  0  0  0  0  0  0
    5.5810   -0.0408   -0.8974 H   0  0  0  0  0  0  0  0  0  0  0  0
    4.4080   -1.1959   -1.5859 H   0  0  0  0  0  0  0  0  0  0  0  0
  1  2  1  0
  2  3  1  0
  3  4  1  0
  4  5  1  0
  4  6  1  0
  6  7  1  1
  6  8  1  0
  8  9  1  1
  8 10  1  0
 10 11  1  0
  8 12  1  0
 12 13  1  0
 13 14  1  6
 13 15  1  0
 15 16  1  0
 15 17  1  0
 15 18  1  0
 18 19  1  0
 13 20  1  0
 20 21  1  1
 20 22  1  0
 22 23  1  0
 20 24  1  0
 24 25  1  6
 24 26  1  0
 26 27  1  0
  3 28  2  0
 28 29  1  0
 29 30  2  0
 28 31  1  0
 31 32  1  0
 31 33  1  0
 31 34  1  0
 24  6  1  0
M  CHG  1  28   1
M  END
>  <UniqueID>  (172) 
171

>  <SMILES>  (172) 
C/[N+](N=O)=C(\O)N[C@H]1[C@@H](O)O[C@H](CO)[C@@H](O)[C@@H]1O

>  <Energy>  (172) 
38.1907630881702

>  <Genealogy>  (172) 
C[NH+](N=O)C(=O)N[C@H]1C(O)O[C@H](CO)[C@@H](O)[C@@H]1O (protonated)
C[N+](N=O)=C(O)N[C@H]1C(O)O[C@H](CO)[C@@H](O)[C@@H]1O (tautomer)
C[N+](N=O)=C(O)N[C@H]1[C@@H](O)O[C@H](CO)[C@@H](O)[C@@H]1O (chirality)
C/[N+](N=O)=C(\O)N[C@H]1[C@@H](O)O[C@H](CO)[C@@H](O)[C@@H]1O (cis-trans isomerization)
C/[N+](N=O)=C(\O)N[C@H]1[C@@H](O)O[C@H](CO)[C@@H](O)[C@@H]1O (3D coordinates assigned)
C/[N+](N=O)=C(\O)N[C@H]1[C@@H](O)O[C@H](CO)[C@@H](O)[C@@H]1O (nonaromatic ring conformer: 38.1907630881702 kcal/mol)

$$$$
644170
     RDKit          3D

 30 30  0  0  0  0  0  0  0  0999 V2000
    3.9059   -0.5750   -1.8306 C   0  0  0  0  0  0  0  0  0  0  0  0
    3.1690   -0.8480   -0.5602 C   0  0  0  0  0  0  0  0  0  0  0  0
    3.7631   -1.4216    0.3925 O   0  0  0  0  0  0  0  0  0  0  0  0
    1.8042   -0.4279   -0.4220 N   0  0  0  0  0  0  0  0  0  0  0  0
    1.0443   -0.5914    0.8245 C   0  0  2  0  0  0  0  0  0  0  0  0
   -0.4270   -0.9221    0.5012 C   0  0  1  0  0  0  0  0  0  0  0  0
   -1.1068   -1.3348    1.6605 O   0  0  0  0  0  0  0  0  0  0  0  0
   -1.0847    0.1736   -0.1208 O   0  0  0  0  0  0  0  0  0  0  0  0
   -1.1315    1.3111    0.7282 C   0  0  2  0  0  0  0  0  0  0  0  0
   -1.9437    2.4073    0.0230 C   0  0  0  0  0  0  0  0  0  0  0  0
   -3.2318    1.9438   -0.2808 O   0  0  0  0  0  0  0  0  0  0  0  0
    0.2975    1.8159    1.0514 C   0  0  1  0  0  0  0  0  0  0  0  0
    0.2610    2.9362    1.9018 O   0  0  0  0  0  0  0  0  0  0  0  0
    1.1278    0.6822    1.6860 C   0  0  2  0  0  0  0  0  0  0  0  0
    2.4687    1.0775    1.8249 O   0  0  0  0  0  0  0  0  0  0  0  0
    3.2933   -0.9024   -2.6965 H   0  0  0  0  0  0  0  0  0  0  0  0
    4.1055    0.5135   -1.9147 H   0  0  0  0  0  0  0  0  0  0  0  0
    4.8716   -1.1237   -1.8478 H   0  0  0  0  0  0  0  0  0  0  0  0
    1.3722    0.1047   -1.2113 H   0  0  0  0  0  0  0  0  0  0  0  0
    1.4631   -1.4428    1.4062 H   0  0  0  0  0  0  0  0  0  0  0  0
   -0.4250   -1.7712   -0.2197 H   0  0  0  0  0  0  0  0  0  0  0  0
   -2.0071   -1.6314    1.3659 H   0  0  0  0  0  0  0  0  0  0  0  0
   -1.6637    1.0672    1.6766 H   0  0  0  0  0  0  0  0  0  0  0  0
   -1.4400    2.6920   -0.9256 H   0  0  0  0  0  0  0  0  0  0  0  0
   -2.0094    3.3186    0.6603 H   0  0  0  0  0  0  0  0  0  0  0  0
   -3.7416    1.9423    0.5712 H   0  0  0  0  0  0  0  0  0  0  0  0
    0.7890    2.1256    0.1027 H   0  0  0  0  0  0  0  0  0  0  0  0
   -0.1964    2.6640    2.7401 H   0  0  0  0  0  0  0  0  0  0  0  0
    0.7068    0.4382    2.6908 H   0  0  0  0  0  0  0  0  0  0  0  0
    2.5142    1.6710    2.6193 H   0  0  0  0  0  0  0  0  0  0  0  0
  1  2  1  0
  2  3  2  0
  2  4  1  0
  4  5  1  0
  5  6  1  0
  6  7  1  0
  6  8  1  0
  8  9  1  0
  9 10  1  0
 10 11  1  0
  9 12  1  0
 12 13  1  0
 12 14  1  0
 14 15  1  0
 14  5  1  0
  1 16  1  0
  1 17  1  0
  1 18  1  0
  4 19  1  0
  5 20  1  1
  6 21  1  6
  7 22  1  0
  9 23  1  1
 10 24  1  0
 10 25  1  0
 11 26  1  0
 12 27  1  6
 13 28  1  0
 14 29  1  1
 15 30  1  0
M  END
>  <UniqueID>  (173) 
172

>  <SMILES>  (173) 
CC(=O)N[C@@H]1[C@@H](O)O[C@H](CO)[C@@H](O)[C@@H]1O

>  <Energy>  (173) 
25.905595633706014

>  <Genealogy>  (173) 
CC(=O)N[C@@H]1[C@@H](O)O[C@H](CO)[C@@H](O)[C@@H]1O (3D coordinates assigned)
CC(=O)N[C@@H]1[C@@H](O)O[C@H](CO)[C@@H](O)[C@@H]1O (nonaromatic ring conformer: 25.905595633706014 kcal/mol)

$$$$
644170
     RDKit          3D

 30 30  0  0  0  0  0  0  0  0999 V2000
   -0.4584   -3.6436   -3.9278 H   0  0  0  0  0  0  0  0  0  0  0  0
   -0.4063   -2.7977   -3.3729 O   0  0  0  0  0  0  0  0  0  0  0  0
   -1.1671   -2.6331   -2.2182 C   0  0  0  0  0  0  0  0  0  0  0  0
   -1.0347   -1.5267   -1.5440 N   0  0  0  0  0  0  0  0  0  0  0  0
   -1.7514   -1.1551   -0.3175 C   0  0  2  0  0  0  0  0  0  0  0  0
   -1.9538   -2.0605    0.2960 H   0  0  0  0  0  0  0  0  0  0  0  0
   -3.0838   -0.4584   -0.6785 C   0  0  1  0  0  0  0  0  0  0  0  0
   -3.6391   -1.1060   -1.3923 H   0  0  0  0  0  0  0  0  0  0  0  0
   -3.8868   -0.2704    0.4616 O   0  0  0  0  0  0  0  0  0  0  0  0
   -4.2188   -1.1668    0.7301 H   0  0  0  0  0  0  0  0  0  0  0  0
   -2.8578    0.7760   -1.3415 O   0  0  0  0  0  0  0  0  0  0  0  0
   -2.1523    1.6958   -0.5211 C   0  0  2  0  0  0  0  0  0  0  0  0
   -2.7192    1.8890    0.4190 H   0  0  0  0  0  0  0  0  0  0  0  0
   -2.0668    3.0425   -1.2583 C   0  0  0  0  0  0  0  0  0  0  0  0
   -3.0937    3.4257   -1.4585 H   0  0  0  0  0  0  0  0  0  0  0  0
   -1.5603    3.7933   -0.6154 H   0  0  0  0  0  0  0  0  0  0  0  0
   -1.3504    2.9209   -2.4588 O   0  0  0  0  0  0  0  0  0  0  0  0
   -1.9715    2.5252   -3.1244 H   0  0  0  0  0  0  0  0  0  0  0  0
   -0.7464    1.1596   -0.1642 C   0  0  1  0  0  0  0  0  0  0  0  0
   -0.1565    1.0395   -1.1044 H   0  0  0  0  0  0  0  0  0  0  0  0
   -0.1054    2.0639    0.6999 O   0  0  0  0  0  0  0  0  0  0  0  0
    0.8718    1.9340    0.5823 H   0  0  0  0  0  0  0  0  0  0  0  0
   -0.8793   -0.2106    0.5260 C   0  0  2  0  0  0  0  0  0  0  0  0
   -1.3798   -0.0720    1.5150 H   0  0  0  0  0  0  0  0  0  0  0  0
    0.3881   -0.7879    0.7150 O   0  0  0  0  0  0  0  0  0  0  0  0
    0.7680   -0.3903    1.5415 H   0  0  0  0  0  0  0  0  0  0  0  0
   -2.0820   -3.7421   -1.7723 C   0  0  0  0  0  0  0  0  0  0  0  0
   -2.1321   -4.5387   -2.5432 H   0  0  0  0  0  0  0  0  0  0  0  0
   -3.1103   -3.3624   -1.6085 H   0  0  0  0  0  0  0  0  0  0  0  0
   -1.6967   -4.1906   -0.8330 H   0  0  0  0  0  0  0  0  0  0  0  0
  1  2  1  0
  2  3  1  0
  3  4  2  0
  4  5  1  0
  5  6  1  1
  5  7  1  0
  7  8  1  6
  7  9  1  0
  9 10  1  0
  7 11  1  0
 11 12  1  0
 12 13  1  1
 12 14  1  0
 14 15  1  0
 14 16  1  0
 14 17  1  0
 17 18  1  0
 12 19  1  0
 19 20  1  6
 19 21  1  0
 21 22  1  0
 19 23  1  0
 23 24  1  1
 23 25  1  0
 25 26  1  0
  3 27  1  0
 27 28  1  0
 27 29  1  0
 27 30  1  0
 23  5  1  0
M  END
>  <UniqueID>  (174) 
173

>  <SMILES>  (174) 
C/C(O)=N\[C@@H]1[C@@H](O)O[C@H](CO)[C@@H](O)[C@@H]1O

>  <Energy>  (174) 
28.40742921752201

>  <Genealogy>  (174) 
CC(O)=N[C@@H]1[C@@H](O)O[C@H](CO)[C@@H](O)[C@@H]1O (tautomer)
C/C(O)=N\[C@@H]1[C@@H](O)O[C@H](CO)[C@@H](O)[C@@H]1O (cis-trans isomerization)
C/C(O)=N\[C@@H]1[C@@H](O)O[C@H](CO)[C@@H](O)[C@@H]1O (3D coordinates assigned)
C/C(O)=N\[C@@H]1[C@@H](O)O[C@H](CO)[C@@H](O)[C@@H]1O (nonaromatic ring conformer: 28.40742921752201 kcal/mol)

$$$$
644170
     RDKit          3D

 30 30  0  0  0  0  0  0  0  0999 V2000
    4.1563   -1.6597   -1.1858 C   0  0  0  0  0  0  0  0  0  0  0  0
    3.2807   -1.0854   -0.1204 C   0  0  0  0  0  0  0  0  0  0  0  0
    3.7473   -0.8980    1.0358 O   0  0  0  0  0  0  0  0  0  0  0  0
    1.9113   -0.7743   -0.4118 N   0  0  0  0  0  0  0  0  0  0  0  0
    1.0169   -0.1663    0.5805 C   0  0  2  0  0  0  0  0  0  0  0  0
   -0.4632   -0.4034    0.2091 C   0  0  1  0  0  0  0  0  0  0  0  0
   -0.7163   -1.7848    0.1871 O   0  0  0  0  0  0  0  0  0  0  0  0
   -1.3264    0.1758    1.1742 O   0  0  0  0  0  0  0  0  0  0  0  0
   -1.1792    1.5868    1.2766 C   0  0  2  0  0  0  0  0  0  0  0  0
   -1.7791    2.3441    0.0714 C   0  0  0  0  0  0  0  0  0  0  0  0
   -3.1154    1.9678   -0.1251 O   0  0  0  0  0  0  0  0  0  0  0  0
    0.2701    2.0089    1.6232 C   0  0  1  0  0  0  0  0  0  0  0  0
    0.5365    1.6448    2.9547 O   0  0  0  0  0  0  0  0  0  0  0  0
    1.3018    1.3400    0.6924 C   0  0  2  0  0  0  0  0  0  0  0  0
    1.2750    1.9306   -0.5826 O   0  0  0  0  0  0  0  0  0  0  0  0
    5.2101   -1.7145   -0.8388 H   0  0  0  0  0  0  0  0  0  0  0  0
    3.8057   -2.6811   -1.4417 H   0  0  0  0  0  0  0  0  0  0  0  0
    4.1104   -1.0196   -2.0915 H   0  0  0  0  0  0  0  0  0  0  0  0
    1.5588   -0.9566   -1.3791 H   0  0  0  0  0  0  0  0  0  0  0  0
    1.1949   -0.6440    1.5708 H   0  0  0  0  0  0  0  0  0  0  0  0
   -0.6791    0.0180   -0.8005 H   0  0  0  0  0  0  0  0  0  0  0  0
   -0.4776   -2.1175   -0.7173 H   0  0  0  0  0  0  0  0  0  0  0  0
   -1.8018    1.8987    2.1447 H   0  0  0  0  0  0  0  0  0  0  0  0
   -1.7574    3.4338    0.2860 H   0  0  0  0  0  0  0  0  0  0  0  0
   -1.1952    2.1940   -0.8609 H   0  0  0  0  0  0  0  0  0  0  0  0
   -3.0998    1.1134   -0.6302 H   0  0  0  0  0  0  0  0  0  0  0  0
    0.3525    3.1177    1.5300 H   0  0  0  0  0  0  0  0  0  0  0  0
    1.3187    2.1803    3.2507 H   0  0  0  0  0  0  0  0  0  0  0  0
    2.3202    1.4701    1.1282 H   0  0  0  0  0  0  0  0  0  0  0  0
    1.7181    2.8152   -0.4994 H   0  0  0  0  0  0  0  0  0  0  0  0
  1  2  1  0
  2  3  2  0
  2  4  1  0
  4  5  1  0
  5  6  1  0
  6  7  1  0
  6  8  1  0
  8  9  1  0
  9 10  1  0
 10 11  1  0
  9 12  1  0
 12 13  1  0
 12 14  1  0
 14 15  1  0
 14  5  1  0
  1 16  1  0
  1 17  1  0
  1 18  1  0
  4 19  1  0
  5 20  1  1
  6 21  1  6
  7 22  1  0
  9 23  1  1
 10 24  1  0
 10 25  1  0
 11 26  1  0
 12 27  1  1
 13 28  1  0
 14 29  1  1
 15 30  1  0
M  END
>  <UniqueID>  (175) 
174

>  <SMILES>  (175) 
CC(=O)N[C@@H]1[C@@H](O)O[C@H](CO)[C@@H](O)[C@@H]1O

>  <Energy>  (175) 
28.672690388670603

>  <Genealogy>  (175) 
CC(=O)N[C@@H]1[C@@H](O)O[C@H](CO)[C@@H](O)[C@@H]1O (3D coordinates assigned)
CC(=O)N[C@@H]1[C@@H](O)O[C@H](CO)[C@@H](O)[C@@H]1O (nonaromatic ring conformer: 28.672690388670603 kcal/mol)

$$$$
449462
     RDKit          3D

 25 25  0  0  0  0  0  0  0  0999 V2000
    1.2867    2.4353   -0.0853 N   0  0  0  0  0  0  0  0  0  0  0  0
    0.7863    1.0637    0.0467 C   0  0  1  0  0  0  0  0  0  0  0  0
    1.7031    0.2521    0.9909 C   0  0  2  0  0  0  0  0  0  0  0  0
    2.9929    0.1795    0.4420 O   0  0  0  0  0  0  0  0  0  0  0  0
    1.2148   -1.0704    1.1387 O   0  0  0  0  0  0  0  0  0  0  0  0
   -0.0481   -1.0686    1.7834 C   0  0  2  0  0  0  0  0  0  0  0  0
   -0.4247   -2.5149    2.1277 C   0  0  0  0  0  0  0  0  0  0  0  0
   -1.6447   -2.5481    2.8162 O   0  0  0  0  0  0  0  0  0  0  0  0
   -1.1075   -0.3949    0.8788 C   0  0  2  0  0  0  0  0  0  0  0  0
   -1.2469   -1.1055   -0.3277 O   0  0  0  0  0  0  0  0  0  0  0  0
   -0.6656    1.0480    0.5752 C   0  0  2  0  0  0  0  0  0  0  0  0
   -1.5224    1.6266   -0.3757 O   0  0  0  0  0  0  0  0  0  0  0  0
    0.7090    2.9399   -0.7962 H   0  0  0  0  0  0  0  0  0  0  0  0
    1.1753    2.9378    0.8257 H   0  0  0  0  0  0  0  0  0  0  0  0
    0.8094    0.5815   -0.9571 H   0  0  0  0  0  0  0  0  0  0  0  0
    1.7609    0.7499    1.9911 H   0  0  0  0  0  0  0  0  0  0  0  0
    3.4568    1.0272    0.6707 H   0  0  0  0  0  0  0  0  0  0  0  0
    0.0103   -0.5173    2.7522 H   0  0  0  0  0  0  0  0  0  0  0  0
   -0.4920   -3.1269    1.2006 H   0  0  0  0  0  0  0  0  0  0  0  0
    0.3725   -2.9494    2.7717 H   0  0  0  0  0  0  0  0  0  0  0  0
   -1.8316   -3.5054    2.9990 H   0  0  0  0  0  0  0  0  0  0  0  0
   -2.0830   -0.3462    1.4198 H   0  0  0  0  0  0  0  0  0  0  0  0
   -1.9923   -1.7492   -0.2036 H   0  0  0  0  0  0  0  0  0  0  0  0
   -0.7070    1.6383    1.5219 H   0  0  0  0  0  0  0  0  0  0  0  0
   -2.3743    1.8289    0.0924 H   0  0  0  0  0  0  0  0  0  0  0  0
  1  2  1  0
  2  3  1  0
  3  4  1  0
  3  5  1  0
  5  6  1  0
  6  7  1  0
  7  8  1  0
  6  9  1  0
  9 10  1  0
  9 11  1  0
 11 12  1  0
 11  2  1  0
  1 13  1  0
  1 14  1  0
  2 15  1  6
  3 16  1  1
  4 17  1  0
  6 18  1  1
  7 19  1  0
  7 20  1  0
  8 21  1  0
  9 22  1  1
 10 23  1  0
 11 24  1  1
 12 25  1  0
M  END
>  <UniqueID>  (176) 
175

>  <SMILES>  (176) 
N[C@H]1[C@H](O)O[C@H](CO)[C@H](O)[C@@H]1O

>  <Energy>  (176) 
21.808739088295685

>  <Genealogy>  (176) 
N[C@H]1[C@H](O)O[C@H](CO)[C@H](O)[C@@H]1O (3D coordinates assigned)
N[C@H]1[C@H](O)O[C@H](CO)[C@H](O)[C@@H]1O (nonaromatic ring conformer: 21.808739088295685 kcal/mol)

$$$$
449462
     RDKit          3D

 26 26  0  0  0  0  0  0  0  0999 V2000
    3.3047   -1.4255   -0.9026 N   0  0  0  0  0  4  0  0  0  0  0  0
    2.2164   -0.4376   -0.8704 C   0  0  1  0  0  0  0  0  0  0  0  0
    0.8829   -1.0992   -0.4342 C   0  0  2  0  0  0  0  0  0  0  0  0
    0.5108   -2.0712   -1.3772 O   0  0  0  0  0  0  0  0  0  0  0  0
   -0.1537   -0.1345   -0.3749 O   0  0  0  0  0  0  0  0  0  0  0  0
    0.1090    0.8244    0.6354 C   0  0  2  0  0  0  0  0  0  0  0  0
   -1.1386    1.7030    0.8105 C   0  0  0  0  0  0  0  0  0  0  0  0
   -0.9787    2.5871    1.8883 O   0  0  0  0  0  0  0  0  0  0  0  0
    1.3517    1.6608    0.2592 C   0  0  2  0  0  0  0  0  0  0  0  0
    1.1096    2.3588   -0.9382 O   0  0  0  0  0  0  0  0  0  0  0  0
    2.5605    0.7227    0.0939 C   0  0  2  0  0  0  0  0  0  0  0  0
    3.6557    1.4568   -0.3947 O   0  0  0  0  0  0  0  0  0  0  0  0
    3.0867   -2.1791   -1.5933 H   0  0  0  0  0  0  0  0  0  0  0  0
    3.4422   -1.8529    0.0424 H   0  0  0  0  0  0  0  0  0  0  0  0
    4.1950   -0.9707   -1.2076 H   0  0  0  0  0  0  0  0  0  0  0  0
    2.0817   -0.0207   -1.8950 H   0  0  0  0  0  0  0  0  0  0  0  0
    1.0087   -1.5814    0.5684 H   0  0  0  0  0  0  0  0  0  0  0  0
    0.8654   -2.9433   -1.0614 H   0  0  0  0  0  0  0  0  0  0  0  0
    0.2849    0.3202    1.6155 H   0  0  0  0  0  0  0  0  0  0  0  0
   -2.0076    1.0465    1.0294 H   0  0  0  0  0  0  0  0  0  0  0  0
   -1.3734    2.2521   -0.1309 H   0  0  0  0  0  0  0  0  0  0  0  0
   -0.6106    3.4310    1.5173 H   0  0  0  0  0  0  0  0  0  0  0  0
    1.5707    2.3763    1.0868 H   0  0  0  0  0  0  0  0  0  0  0  0
    1.7012    3.1560   -0.9342 H   0  0  0  0  0  0  0  0  0  0  0  0
    2.7986    0.2997    1.1008 H   0  0  0  0  0  0  0  0  0  0  0  0
    4.4734    1.0798    0.0235 H   0  0  0  0  0  0  0  0  0  0  0  0
  1  2  1  0
  2  3  1  0
  3  4  1  0
  3  5  1  0
  5  6  1  0
  6  7  1  0
  7  8  1  0
  6  9  1  0
  9 10  1  0
  9 11  1  0
 11 12  1  0
 11  2  1  0
  1 13  1  0
  1 14  1  0
  1 15  1  0
  2 16  1  6
  3 17  1  1
  4 18  1  0
  6 19  1  1
  7 20  1  0
  7 21  1  0
  8 22  1  0
  9 23  1  1
 10 24  1  0
 11 25  1  1
 12 26  1  0
M  CHG  1   1   1
M  END
>  <UniqueID>  (177) 
176

>  <SMILES>  (177) 
[NH3+][C@H]1[C@H](O)O[C@H](CO)[C@H](O)[C@@H]1O

>  <Energy>  (177) 
24.167721575295623

>  <Genealogy>  (177) 
[NH3+][C@H]1[C@H](O)O[C@H](CO)[C@H](O)[C@@H]1O (protonated)
[NH3+][C@H]1[C@H](O)O[C@H](CO)[C@H](O)[C@@H]1O (3D coordinates assigned)
[NH3+][C@H]1[C@H](O)O[C@H](CO)[C@H](O)[C@@H]1O (nonaromatic ring conformer: 24.167721575295623 kcal/mol)

$$$$
449462
     RDKit          3D

 25 25  0  0  0  0  0  0  0  0999 V2000
    0.9488    2.5814    0.8139 N   0  0  0  0  0  0  0  0  0  0  0  0
    0.9341    1.3015    0.0960 C   0  0  1  0  0  0  0  0  0  0  0  0
    1.8142    0.2501    0.8088 C   0  0  2  0  0  0  0  0  0  0  0  0
    2.0769   -0.8349   -0.0422 O   0  0  0  0  0  0  0  0  0  0  0  0
    1.2661   -0.1819    2.0489 O   0  0  0  0  0  0  0  0  0  0  0  0
   -0.0491   -0.7184    1.9502 C   0  0  2  0  0  0  0  0  0  0  0  0
   -0.0494   -2.1640    1.3974 C   0  0  0  0  0  0  0  0  0  0  0  0
   -1.2197   -2.8428    1.7690 O   0  0  0  0  0  0  0  0  0  0  0  0
   -1.0468    0.2527    1.2603 C   0  0  2  0  0  0  0  0  0  0  0  0
   -2.2960   -0.3573    1.0570 O   0  0  0  0  0  0  0  0  0  0  0  0
   -0.5077    0.8002   -0.0727 C   0  0  2  0  0  0  0  0  0  0  0  0
   -0.5473   -0.1839   -1.0758 O   0  0  0  0  0  0  0  0  0  0  0  0
    0.7834    2.4221    1.8341 H   0  0  0  0  0  0  0  0  0  0  0  0
    1.9018    3.0030    0.7228 H   0  0  0  0  0  0  0  0  0  0  0  0
    1.3549    1.4799   -0.9201 H   0  0  0  0  0  0  0  0  0  0  0  0
    2.7876    0.7431    1.0331 H   0  0  0  0  0  0  0  0  0  0  0  0
    2.7570   -1.3940    0.4165 H   0  0  0  0  0  0  0  0  0  0  0  0
   -0.4045   -0.8056    3.0007 H   0  0  0  0  0  0  0  0  0  0  0  0
    0.0147   -2.1726    0.2930 H   0  0  0  0  0  0  0  0  0  0  0  0
    0.8407   -2.7118    1.7834 H   0  0  0  0  0  0  0  0  0  0  0  0
   -1.1079   -3.1078    2.7192 H   0  0  0  0  0  0  0  0  0  0  0  0
   -1.1887    1.1274    1.9379 H   0  0  0  0  0  0  0  0  0  0  0  0
   -2.7261   -0.4358    1.9486 H   0  0  0  0  0  0  0  0  0  0  0  0
   -1.1404    1.6652   -0.3863 H   0  0  0  0  0  0  0  0  0  0  0  0
   -1.4777   -0.2122   -1.4211 H   0  0  0  0  0  0  0  0  0  0  0  0
  1  2  1  0
  2  3  1  0
  3  4  1  0
  3  5  1  0
  5  6  1  0
  6  7  1  0
  7  8  1  0
  6  9  1  0
  9 10  1  0
  9 11  1  0
 11 12  1  0
 11  2  1  0
  1 13  1  0
  1 14  1  0
  2 15  1  6
  3 16  1  1
  4 17  1  0
  6 18  1  1
  7 19  1  0
  7 20  1  0
  8 21  1  0
  9 22  1  1
 10 23  1  0
 11 24  1  6
 12 25  1  0
M  END
>  <UniqueID>  (178) 
177

>  <SMILES>  (178) 
N[C@H]1[C@H](O)O[C@H](CO)[C@H](O)[C@@H]1O

>  <Energy>  (178) 
30.800146408543718

>  <Genealogy>  (178) 
N[C@H]1[C@H](O)O[C@H](CO)[C@H](O)[C@@H]1O (3D coordinates assigned)
N[C@H]1[C@H](O)O[C@H](CO)[C@H](O)[C@@H]1O (nonaromatic ring conformer: 30.800146408543718 kcal/mol)

$$$$
448882
     RDKit          3D

 33 33  0  0  0  0  0  0  0  0999 V2000
    0.1107    2.9385    0.4958 C   0  0  0  0  0  0  0  0  0  0  0  0
   -0.1637    1.5717    0.7118 O   0  0  0  0  0  0  0  0  0  0  0  0
   -0.0658    0.8549   -0.5100 C   0  0  1  0  0  0  0  0  0  0  0  0
    1.2876    0.7150   -0.9266 O   0  0  0  0  0  0  0  0  0  0  0  0
    2.0551   -0.0151    0.0184 C   0  0  2  0  0  0  0  0  0  0  0  0
    3.5286    0.0236   -0.4163 C   0  0  0  0  0  0  0  0  0  0  0  0
    4.3453   -0.6426    0.5092 O   0  0  0  0  0  0  0  0  0  0  0  0
    1.5353   -1.4650    0.1363 C   0  0  2  0  0  0  0  0  0  0  0  0
    1.6664   -2.1215   -1.1009 O   0  0  0  0  0  0  0  0  0  0  0  0
    0.0579   -1.4328    0.5705 C   0  0  2  0  0  0  0  0  0  0  0  0
   -0.4862   -2.7275    0.5577 O   0  0  0  0  0  0  0  0  0  0  0  0
   -0.7505   -0.5244   -0.3754 C   0  0  1  0  0  0  0  0  0  0  0  0
   -2.1267   -0.3664    0.1106 N   0  0  0  0  0  0  0  0  0  0  0  0
   -3.1883    0.1099   -0.7282 C   0  0  0  0  0  0  0  0  0  0  0  0
   -4.5602    0.2878   -0.1643 C   0  0  0  0  0  0  0  0  0  0  0  0
   -2.9819    0.3473   -1.9491 O   0  0  0  0  0  0  0  0  0  0  0  0
   -0.6651    3.4031   -0.1519 H   0  0  0  0  0  0  0  0  0  0  0  0
    1.1231    3.0880    0.0595 H   0  0  0  0  0  0  0  0  0  0  0  0
    0.0876    3.4615    1.4736 H   0  0  0  0  0  0  0  0  0  0  0  0
   -0.6101    1.3934   -1.3202 H   0  0  0  0  0  0  0  0  0  0  0  0
    2.0072    0.4738    1.0190 H   0  0  0  0  0  0  0  0  0  0  0  0
    3.8591    1.0823   -0.5220 H   0  0  0  0  0  0  0  0  0  0  0  0
    3.6462   -0.4578   -1.4103 H   0  0  0  0  0  0  0  0  0  0  0  0
    4.4275   -0.0451    1.2978 H   0  0  0  0  0  0  0  0  0  0  0  0
    2.1267   -1.9965    0.9190 H   0  0  0  0  0  0  0  0  0  0  0  0
    1.6952   -3.0952   -0.9100 H   0  0  0  0  0  0  0  0  0  0  0  0
   -0.0011   -1.0163    1.6046 H   0  0  0  0  0  0  0  0  0  0  0  0
   -0.1061   -3.2047    1.3411 H   0  0  0  0  0  0  0  0  0  0  0  0
   -0.7758   -1.0085   -1.3782 H   0  0  0  0  0  0  0  0  0  0  0  0
   -2.3583   -0.6267    1.0966 H   0  0  0  0  0  0  0  0  0  0  0  0
   -5.2002    0.8602   -0.8689 H   0  0  0  0  0  0  0  0  0  0  0  0
   -5.0175   -0.7072    0.0154 H   0  0  0  0  0  0  0  0  0  0  0  0
   -4.5016    0.8424    0.7955 H   0  0  0  0  0  0  0  0  0  0  0  0
  1  2  1  0
  2  3  1  0
  3  4  1  0
  4  5  1  0
  5  6  1  0
  6  7  1  0
  5  8  1  0
  8  9  1  0
  8 10  1  0
 10 11  1  0
 10 12  1  0
 12 13  1  0
 13 14  1  0
 14 15  1  0
 14 16  2  0
 12  3  1  0
  1 17  1  0
  1 18  1  0
  1 19  1  0
  3 20  1  6
  5 21  1  1
  6 22  1  0
  6 23  1  0
  7 24  1  0
  8 25  1  1
  9 26  1  0
 10 27  1  1
 11 28  1  0
 12 29  1  6
 13 30  1  0
 15 31  1  0
 15 32  1  0
 15 33  1  0
M  END
>  <UniqueID>  (179) 
178

>  <SMILES>  (179) 
CO[C@H]1O[C@H](CO)[C@H](O)[C@H](O)[C@H]1NC(C)=O

>  <Energy>  (179) 
29.363131104834302

>  <Genealogy>  (179) 
CO[C@H]1O[C@H](CO)[C@H](O)[C@H](O)[C@H]1NC(C)=O (3D coordinates assigned)
CO[C@H]1O[C@H](CO)[C@H](O)[C@H](O)[C@H]1NC(C)=O (nonaromatic ring conformer: 29.363131104834302 kcal/mol)

$$$$
448882
     RDKit          3D

 33 33  0  0  0  0  0  0  0  0999 V2000
    0.4670    1.0664    3.9830 H   0  0  0  0  0  0  0  0  0  0  0  0
    0.1929    0.7135    3.0740 O   0  0  0  0  0  0  0  0  0  0  0  0
    0.8208   -0.3971    2.5108 C   0  0  0  0  0  0  0  0  0  0  0  0
    0.4483   -0.8548    1.3530 N   0  0  0  0  0  0  0  0  0  0  0  0
   -0.6001   -0.2625    0.5152 C   0  0  1  0  0  0  0  0  0  0  0  0
   -1.4061    0.1529    1.1608 H   0  0  0  0  0  0  0  0  0  0  0  0
   -0.0149    0.8533   -0.3832 C   0  0  1  0  0  0  0  0  0  0  0  0
   -0.8361    1.2910   -1.0013 H   0  0  0  0  0  0  0  0  0  0  0  0
    0.5984    1.8441    0.4254 O   0  0  0  0  0  0  0  0  0  0  0  0
   -0.2872    2.9138    0.6794 C   0  0  0  0  0  0  0  0  0  0  0  0
    0.1927    3.6070    1.4001 H   0  0  0  0  0  0  0  0  0  0  0  0
   -0.4925    3.4832   -0.2535 H   0  0  0  0  0  0  0  0  0  0  0  0
   -1.2381    2.5592    1.1345 H   0  0  0  0  0  0  0  0  0  0  0  0
    0.9832    0.3235   -1.2419 O   0  0  0  0  0  0  0  0  0  0  0  0
    0.4712   -0.6371   -2.1582 C   0  0  2  0  0  0  0  0  0  0  0  0
    1.3628   -1.0691   -2.6641 H   0  0  0  0  0  0  0  0  0  0  0  0
   -0.3663    0.0225   -3.2815 C   0  0  0  0  0  0  0  0  0  0  0  0
   -1.3928    0.2527   -2.9372 H   0  0  0  0  0  0  0  0  0  0  0  0
    0.1034    0.9883   -3.5780 H   0  0  0  0  0  0  0  0  0  0  0  0
   -0.4597   -0.8219   -4.3979 O   0  0  0  0  0  0  0  0  0  0  0  0
    0.4070   -0.7586   -4.8781 H   0  0  0  0  0  0  0  0  0  0  0  0
   -0.2160   -1.8252   -1.4331 C   0  0  2  0  0  0  0  0  0  0  0  0
    0.5921   -2.3899   -0.9098 H   0  0  0  0  0  0  0  0  0  0  0  0
   -0.8317   -2.6817   -2.3608 O   0  0  0  0  0  0  0  0  0  0  0  0
   -1.0167   -3.5340   -1.8862 H   0  0  0  0  0  0  0  0  0  0  0  0
   -1.2250   -1.3568   -0.3616 C   0  0  2  0  0  0  0  0  0  0  0  0
   -1.4795   -2.2226    0.2958 H   0  0  0  0  0  0  0  0  0  0  0  0
   -2.4020   -0.8681   -0.9548 O   0  0  0  0  0  0  0  0  0  0  0  0
   -2.9541   -1.6562   -1.1989 H   0  0  0  0  0  0  0  0  0  0  0  0
    1.9059   -1.0975    3.2630 C   0  0  0  0  0  0  0  0  0  0  0  0
    2.5550   -0.3523    3.7683 H   0  0  0  0  0  0  0  0  0  0  0  0
    1.4539   -1.7645    4.0259 H   0  0  0  0  0  0  0  0  0  0  0  0
    2.5324   -1.7035    2.5740 H   0  0  0  0  0  0  0  0  0  0  0  0
  1  2  1  0
  2  3  1  0
  3  4  2  0
  4  5  1  0
  5  6  1  1
  5  7  1  0
  7  8  1  6
  7  9  1  0
  9 10  1  0
 10 11  1  0
 10 12  1  0
 10 13  1  0
  7 14  1  0
 14 15  1  0
 15 16  1  6
 15 17  1  0
 17 18  1  0
 17 19  1  0
 17 20  1  0
 20 21  1  0
 15 22  1  0
 22 23  1  1
 22 24  1  0
 24 25  1  0
 22 26  1  0
 26 27  1  1
 26 28  1  0
 28 29  1  0
  3 30  1  0
 30 31  1  0
 30 32  1  0
 30 33  1  0
 26  5  1  0
M  END
>  <UniqueID>  (180) 
179

>  <SMILES>  (180) 
CO[C@H]1O[C@H](CO)[C@H](O)[C@H](O)[C@H]1/N=C(\C)O

>  <Energy>  (180) 
36.24977339823279

>  <Genealogy>  (180) 
CO[C@H]1O[C@H](CO)[C@H](O)[C@H](O)[C@H]1N=C(C)O (tautomer)
CO[C@H]1O[C@H](CO)[C@H](O)[C@H](O)[C@H]1/N=C(\C)O (cis-trans isomerization)
CO[C@H]1O[C@H](CO)[C@H](O)[C@H](O)[C@H]1/N=C(\C)O (3D coordinates assigned)
CO[C@H]1O[C@H](CO)[C@H](O)[C@H](O)[C@H]1/N=C(\C)O (nonaromatic ring conformer: 36.24977339823279 kcal/mol)

$$$$
448882
     RDKit          3D

 33 33  0  0  0  0  0  0  0  0999 V2000
    3.5578   -1.1782    2.2462 H   0  0  0  0  0  0  0  0  0  0  0  0
    2.7397   -0.7934    1.7896 O   0  0  0  0  0  0  0  0  0  0  0  0
    2.7464   -0.4958    0.4269 C   0  0  0  0  0  0  0  0  0  0  0  0
    1.6982    0.0182   -0.1437 N   0  0  0  0  0  0  0  0  0  0  0  0
    0.4344    0.2983    0.5443 C   0  0  1  0  0  0  0  0  0  0  0  0
    0.6504    0.7750    1.5264 H   0  0  0  0  0  0  0  0  0  0  0  0
   -0.4050    1.2742   -0.3024 C   0  0  1  0  0  0  0  0  0  0  0  0
   -1.3641    1.4900    0.2243 H   0  0  0  0  0  0  0  0  0  0  0  0
    0.3442    2.4598   -0.5179 O   0  0  0  0  0  0  0  0  0  0  0  0
   -0.0082    3.4612    0.4127 C   0  0  0  0  0  0  0  0  0  0  0  0
    0.6676    4.3293    0.2718 H   0  0  0  0  0  0  0  0  0  0  0  0
   -1.0494    3.8107    0.2378 H   0  0  0  0  0  0  0  0  0  0  0  0
    0.1108    3.1070    1.4603 H   0  0  0  0  0  0  0  0  0  0  0  0
   -0.6858    0.7107   -1.5719 O   0  0  0  0  0  0  0  0  0  0  0  0
   -1.4767   -0.4695   -1.5005 C   0  0  2  0  0  0  0  0  0  0  0  0
   -1.4120   -0.9145   -2.5185 H   0  0  0  0  0  0  0  0  0  0  0  0
   -2.9859   -0.1655   -1.3379 C   0  0  0  0  0  0  0  0  0  0  0  0
   -3.2448    0.7100   -1.9705 H   0  0  0  0  0  0  0  0  0  0  0  0
   -3.5835   -1.0243   -1.7269 H   0  0  0  0  0  0  0  0  0  0  0  0
   -3.3393    0.1261   -0.0130 O   0  0  0  0  0  0  0  0  0  0  0  0
   -3.7548   -0.6915    0.3668 H   0  0  0  0  0  0  0  0  0  0  0  0
   -0.8808   -1.5603   -0.5649 C   0  0  2  0  0  0  0  0  0  0  0  0
   -0.0016   -1.9909   -1.1021 H   0  0  0  0  0  0  0  0  0  0  0  0
   -1.8178   -2.5846   -0.3469 O   0  0  0  0  0  0  0  0  0  0  0  0
   -1.3156   -3.3631    0.0106 H   0  0  0  0  0  0  0  0  0  0  0  0
   -0.3582   -1.0019    0.7749 C   0  0  2  0  0  0  0  0  0  0  0  0
    0.3148   -1.7710    1.2213 H   0  0  0  0  0  0  0  0  0  0  0  0
   -1.4229   -0.7730    1.6615 O   0  0  0  0  0  0  0  0  0  0  0  0
   -1.0297   -0.6858    2.5691 H   0  0  0  0  0  0  0  0  0  0  0  0
    3.9819   -0.7316   -0.3802 C   0  0  0  0  0  0  0  0  0  0  0  0
    3.7361   -0.8022   -1.4614 H   0  0  0  0  0  0  0  0  0  0  0  0
    4.6911    0.1070   -0.2218 H   0  0  0  0  0  0  0  0  0  0  0  0
    4.4627   -1.6808   -0.0640 H   0  0  0  0  0  0  0  0  0  0  0  0
  1  2  1  0
  2  3  1  0
  3  4  2  0
  4  5  1  0
  5  6  1  1
  5  7  1  0
  7  8  1  1
  7  9  1  0
  9 10  1  0
 10 11  1  0
 10 12  1  0
 10 13  1  0
  7 14  1  0
 14 15  1  0
 15 16  1  6
 15 17  1  0
 17 18  1  0
 17 19  1  0
 17 20  1  0
 20 21  1  0
 15 22  1  0
 22 23  1  6
 22 24  1  0
 24 25  1  0
 22 26  1  0
 26 27  1  1
 26 28  1  0
 28 29  1  0
  3 30  1  0
 30 31  1  0
 30 32  1  0
 30 33  1  0
 26  5  1  0
M  END
>  <UniqueID>  (181) 
180

>  <SMILES>  (181) 
CO[C@H]1O[C@H](CO)[C@H](O)[C@H](O)[C@H]1/N=C(/C)O

>  <Energy>  (181) 
38.75771050580736

>  <Genealogy>  (181) 
CO[C@H]1O[C@H](CO)[C@H](O)[C@H](O)[C@H]1N=C(C)O (tautomer)
CO[C@H]1O[C@H](CO)[C@H](O)[C@H](O)[C@H]1/N=C(/C)O (cis-trans isomerization)
CO[C@H]1O[C@H](CO)[C@H](O)[C@H](O)[C@H]1/N=C(/C)O (3D coordinates assigned)
CO[C@H]1O[C@H](CO)[C@H](O)[C@H](O)[C@H]1/N=C(/C)O (nonaromatic ring conformer: 38.75771050580736 kcal/mol)

$$$$
447448
     RDKit          3D

 36 36  0  0  0  0  0  0  0  0999 V2000
    2.3806    2.9629    0.4214 H   0  0  0  0  0  0  0  0  0  0  0  0
    1.6664    2.2479    0.4901 O   0  0  0  0  0  0  0  0  0  0  0  0
    1.9917    0.8926    0.4295 C   0  0  0  0  0  0  0  0  0  0  0  0
    1.0640   -0.0156    0.4922 N   0  0  0  0  0  0  0  0  0  0  0  0
   -0.3686    0.2628    0.6207 C   0  0  1  0  0  0  0  0  0  0  0  0
   -0.5301    1.1862    1.2233 H   0  0  0  0  0  0  0  0  0  0  0  0
   -1.0104    0.4403   -0.7738 C   0  0  2  0  0  0  0  0  0  0  0  0
   -0.8273   -0.4723   -1.3959 H   0  0  0  0  0  0  0  0  0  0  0  0
   -0.4522    1.5570   -1.4155 O   0  0  0  0  0  0  0  0  0  0  0  0
    0.3456    1.2418   -1.9158 H   0  0  0  0  0  0  0  0  0  0  0  0
   -2.4021    0.6650   -0.6418 O   0  0  0  0  0  0  0  0  0  0  0  0
   -3.0519   -0.4814   -0.1183 C   0  0  2  0  0  0  0  0  0  0  0  0
   -2.8401   -1.3721   -0.7566 H   0  0  0  0  0  0  0  0  0  0  0  0
   -4.5656   -0.2311   -0.1724 C   0  0  0  0  0  0  0  0  0  0  0  0
   -4.8454    0.5697    0.5490 H   0  0  0  0  0  0  0  0  0  0  0  0
   -4.8378    0.1107   -1.1964 H   0  0  0  0  0  0  0  0  0  0  0  0
   -5.2685   -1.4079    0.1179 O   0  0  0  0  0  0  0  0  0  0  0  0
   -6.2313   -1.1703    0.0795 H   0  0  0  0  0  0  0  0  0  0  0  0
   -2.5742   -0.7476    1.3295 C   0  0  1  0  0  0  0  0  0  0  0  0
   -2.8563    0.1282    1.9624 H   0  0  0  0  0  0  0  0  0  0  0  0
   -3.1767   -1.9165    1.8244 O   0  0  0  0  0  0  0  0  0  0  0  0
   -3.1377   -1.8643    2.8150 H   0  0  0  0  0  0  0  0  0  0  0  0
   -1.0445   -0.9118    1.3501 C   0  0  2  0  0  0  0  0  0  0  0  0
   -0.7894   -1.8654    0.8267 H   0  0  0  0  0  0  0  0  0  0  0  0
   -0.6039   -0.9649    2.6833 O   0  0  0  0  0  0  0  0  0  0  0  0
    0.2779   -1.4211    2.6790 H   0  0  0  0  0  0  0  0  0  0  0  0
    3.4204    0.4739    0.2556 C   0  0  0  0  0  0  0  0  0  0  0  0
    4.0786    1.1871    0.7975 H   0  0  0  0  0  0  0  0  0  0  0  0
    3.5713   -0.5357    0.6980 H   0  0  0  0  0  0  0  0  0  0  0  0
    3.7895    0.4509   -1.2301 C   0  0  0  0  0  0  0  0  0  0  0  0
    3.6446    1.4628   -1.6683 H   0  0  0  0  0  0  0  0  0  0  0  0
    3.1291   -0.2636   -1.7692 H   0  0  0  0  0  0  0  0  0  0  0  0
    5.2420    0.0291   -1.4307 C   0  0  0  0  0  0  0  0  0  0  0  0
    5.9247    0.7424   -0.9216 H   0  0  0  0  0  0  0  0  0  0  0  0
    5.4071   -0.9913   -1.0237 H   0  0  0  0  0  0  0  0  0  0  0  0
    5.4805    0.0217   -2.5151 H   0  0  0  0  0  0  0  0  0  0  0  0
  1  2  1  0
  2  3  1  0
  3  4  2  0
  4  5  1  0
  5  6  1  1
  5  7  1  0
  7  8  1  6
  7  9  1  0
  9 10  1  0
  7 11  1  0
 11 12  1  0
 12 13  1  6
 12 14  1  0
 14 15  1  0
 14 16  1  0
 14 17  1  0
 17 18  1  0
 12 19  1  0
 19 20  1  1
 19 21  1  0
 21 22  1  0
 19 23  1  0
 23 24  1  6
 23 25  1  0
 25 26  1  0
  3 27  1  0
 27 28  1  0
 27 29  1  0
 27 30  1  0
 30 31  1  0
 30 32  1  0
 30 33  1  0
 33 34  1  0
 33 35  1  0
 33 36  1  0
 23  5  1  0
M  END
>  <UniqueID>  (182) 
181

>  <SMILES>  (182) 
CCC/C(O)=N\[C@H]1[C@H](O)O[C@H](CO)[C@@H](O)[C@@H]1O

>  <Energy>  (182) 
25.19380966500501

>  <Genealogy>  (182) 
CCCC(O)=N[C@H]1[C@H](O)O[C@H](CO)[C@@H](O)[C@@H]1O (tautomer)
CCC/C(O)=N\[C@H]1[C@H](O)O[C@H](CO)[C@@H](O)[C@@H]1O (cis-trans isomerization)
CCC/C(O)=N\[C@H]1[C@H](O)O[C@H](CO)[C@@H](O)[C@@H]1O (3D coordinates assigned)
CCC/C(O)=N\[C@H]1[C@H](O)O[C@H](CO)[C@@H](O)[C@@H]1O (nonaromatic ring conformer: 25.19380966500501 kcal/mol)

$$$$
447448
     RDKit          3D

 36 36  0  0  0  0  0  0  0  0999 V2000
    1.6678   -2.0062    1.2941 H   0  0  0  0  0  0  0  0  0  0  0  0
    1.2579   -1.1649    0.9113 O   0  0  0  0  0  0  0  0  0  0  0  0
    0.7088   -0.1391    1.6871 C   0  0  0  0  0  0  0  0  0  0  0  0
    0.6525   -0.2248    3.0289 C   0  0  0  0  0  0  0  0  0  0  0  0
    0.2466    0.6089    3.5899 H   0  0  0  0  0  0  0  0  0  0  0  0
    1.1325   -1.4050    3.8281 C   0  0  0  0  0  0  0  0  0  0  0  0
    2.1409   -1.7279    3.4931 H   0  0  0  0  0  0  0  0  0  0  0  0
    1.2277   -1.0956    4.8912 H   0  0  0  0  0  0  0  0  0  0  0  0
    0.1402   -2.5634    3.7584 C   0  0  0  0  0  0  0  0  0  0  0  0
    0.5149   -3.4094    4.3720 H   0  0  0  0  0  0  0  0  0  0  0  0
   -0.8467   -2.2459    4.1579 H   0  0  0  0  0  0  0  0  0  0  0  0
    0.0098   -2.9157    2.7143 H   0  0  0  0  0  0  0  0  0  0  0  0
    0.1947    1.0425    1.0418 N   0  0  0  0  0  0  0  0  0  0  0  0
   -0.1966    1.8067    1.6395 H   0  0  0  0  0  0  0  0  0  0  0  0
    0.1662    1.2701   -0.4105 C   0  0  1  0  0  0  0  0  0  0  0  0
   -0.2806    2.2758   -0.5892 H   0  0  0  0  0  0  0  0  0  0  0  0
    1.5811    1.2918   -1.0203 C   0  0  2  0  0  0  0  0  0  0  0  0
    2.0909    0.3125   -0.8692 H   0  0  0  0  0  0  0  0  0  0  0  0
    2.3344    2.2870   -0.3822 O   0  0  0  0  0  0  0  0  0  0  0  0
    3.2591    2.2088   -0.7347 H   0  0  0  0  0  0  0  0  0  0  0  0
    1.5011    1.5935   -2.4029 O   0  0  0  0  0  0  0  0  0  0  0  0
    0.8349    0.5559   -3.1056 C   0  0  2  0  0  0  0  0  0  0  0  0
    1.3425   -0.4209   -2.9224 H   0  0  0  0  0  0  0  0  0  0  0  0
    0.9487    0.8590   -4.6094 C   0  0  0  0  0  0  0  0  0  0  0  0
    2.0104    1.0762   -4.8685 H   0  0  0  0  0  0  0  0  0  0  0  0
    0.3567    1.7657   -4.8580 H   0  0  0  0  0  0  0  0  0  0  0  0
    0.4828   -0.2140   -5.3832 O   0  0  0  0  0  0  0  0  0  0  0  0
    1.1810   -0.9186   -5.3426 H   0  0  0  0  0  0  0  0  0  0  0  0
   -0.6467    0.4671   -2.6568 C   0  0  1  0  0  0  0  0  0  0  0  0
   -1.1489    1.4333   -2.9058 H   0  0  0  0  0  0  0  0  0  0  0  0
   -1.2820   -0.5969   -3.3191 O   0  0  0  0  0  0  0  0  0  0  0  0
   -2.2511   -0.3835   -3.3474 H   0  0  0  0  0  0  0  0  0  0  0  0
   -0.7195    0.2400   -1.1334 C   0  0  2  0  0  0  0  0  0  0  0  0
   -0.3498   -0.7875   -0.9140 H   0  0  0  0  0  0  0  0  0  0  0  0
   -2.0446    0.3797   -0.6879 O   0  0  0  0  0  0  0  0  0  0  0  0
   -2.4960   -0.4911   -0.8414 H   0  0  0  0  0  0  0  0  0  0  0  0
  1  2  1  0
  2  3  1  0
  3  4  2  0
  4  5  1  0
  4  6  1  0
  6  7  1  0
  6  8  1  0
  6  9  1  0
  9 10  1  0
  9 11  1  0
  9 12  1  0
  3 13  1  0
 13 14  1  0
 13 15  1  0
 15 16  1  1
 15 17  1  0
 17 18  1  6
 17 19  1  0
 19 20  1  0
 17 21  1  0
 21 22  1  0
 22 23  1  6
 22 24  1  0
 24 25  1  0
 24 26  1  0
 24 27  1  0
 27 28  1  0
 22 29  1  0
 29 30  1  1
 29 31  1  0
 31 32  1  0
 29 33  1  0
 33 34  1  6
 33 35  1  0
 35 36  1  0
 33 15  1  0
M  END
>  <UniqueID>  (183) 
182

>  <SMILES>  (183) 
CC/C=C(/O)N[C@H]1[C@H](O)O[C@H](CO)[C@@H](O)[C@@H]1O

>  <Energy>  (183) 
29.04350471544054

>  <Genealogy>  (183) 
CCC=C(O)N[C@H]1[C@H](O)O[C@H](CO)[C@@H](O)[C@@H]1O (tautomer)
CC/C=C(/O)N[C@H]1[C@H](O)O[C@H](CO)[C@@H](O)[C@@H]1O (cis-trans isomerization)
CC/C=C(/O)N[C@H]1[C@H](O)O[C@H](CO)[C@@H](O)[C@@H]1O (3D coordinates assigned)
CC/C=C(/O)N[C@H]1[C@H](O)O[C@H](CO)[C@@H](O)[C@@H]1O (nonaromatic ring conformer: 29.04350471544054 kcal/mol)

$$$$
447448
     RDKit          3D

 36 36  0  0  0  0  0  0  0  0999 V2000
   -2.4159    3.6452   -1.0043 H   0  0  0  0  0  0  0  0  0  0  0  0
   -2.7985    2.7266   -1.1954 O   0  0  0  0  0  0  0  0  0  0  0  0
   -2.0601    1.5730   -0.9464 C   0  0  0  0  0  0  0  0  0  0  0  0
   -0.8640    1.6895   -0.4389 N   0  0  0  0  0  0  0  0  0  0  0  0
    0.0809    0.6179   -0.1047 C   0  0  1  0  0  0  0  0  0  0  0  0
   -0.4360   -0.3558    0.0309 H   0  0  0  0  0  0  0  0  0  0  0  0
    1.1403    0.4811   -1.2200 C   0  0  2  0  0  0  0  0  0  0  0  0
    1.6364    1.4660   -1.3836 H   0  0  0  0  0  0  0  0  0  0  0  0
    0.5267    0.1276   -2.4316 O   0  0  0  0  0  0  0  0  0  0  0  0
    0.2762   -0.8309   -2.3651 H   0  0  0  0  0  0  0  0  0  0  0  0
    2.1048   -0.5023   -0.8770 O   0  0  0  0  0  0  0  0  0  0  0  0
    2.8554   -0.0980    0.2569 C   0  0  2  0  0  0  0  0  0  0  0  0
    3.3342    0.8936    0.0755 H   0  0  0  0  0  0  0  0  0  0  0  0
    3.9860   -1.1134    0.4796 C   0  0  0  0  0  0  0  0  0  0  0  0
    4.5995   -0.8072    1.3529 H   0  0  0  0  0  0  0  0  0  0  0  0
    3.5656   -2.1228    0.6965 H   0  0  0  0  0  0  0  0  0  0  0  0
    4.8270   -1.1617   -0.6420 O   0  0  0  0  0  0  0  0  0  0  0  0
    4.3943   -1.7666   -1.2996 H   0  0  0  0  0  0  0  0  0  0  0  0
    1.9386   -0.0105    1.5006 C   0  0  1  0  0  0  0  0  0  0  0  0
    1.5047   -1.0202    1.7035 H   0  0  0  0  0  0  0  0  0  0  0  0
    2.6653    0.4526    2.6115 O   0  0  0  0  0  0  0  0  0  0  0  0
    2.9561   -0.3454    3.1254 H   0  0  0  0  0  0  0  0  0  0  0  0
    0.7861    0.9704    1.2179 C   0  0  2  0  0  0  0  0  0  0  0  0
    1.2162    1.9935    1.1246 H   0  0  0  0  0  0  0  0  0  0  0  0
   -0.1294    0.9892    2.2858 O   0  0  0  0  0  0  0  0  0  0  0  0
   -0.5119    0.0770    2.3731 H   0  0  0  0  0  0  0  0  0  0  0  0
   -2.7099    0.2452   -1.2356 C   0  0  0  0  0  0  0  0  0  0  0  0
   -1.9731   -0.4895   -1.6168 H   0  0  0  0  0  0  0  0  0  0  0  0
   -3.4613    0.3893   -2.0421 H   0  0  0  0  0  0  0  0  0  0  0  0
   -3.4163   -0.2931    0.0132 C   0  0  0  0  0  0  0  0  0  0  0  0
   -2.6904   -0.4021    0.8474 H   0  0  0  0  0  0  0  0  0  0  0  0
   -4.2060    0.4222    0.3317 H   0  0  0  0  0  0  0  0  0  0  0  0
   -4.0587   -1.6498   -0.2593 C   0  0  0  0  0  0  0  0  0  0  0  0
   -4.5681   -2.0110    0.6588 H   0  0  0  0  0  0  0  0  0  0  0  0
   -3.2843   -2.3910   -0.5507 H   0  0  0  0  0  0  0  0  0  0  0  0
   -4.8104   -1.5646   -1.0728 H   0  0  0  0  0  0  0  0  0  0  0  0
  1  2  1  0
  2  3  1  0
  3  4  2  0
  4  5  1  0
  5  6  1  1
  5  7  1  0
  7  8  1  6
  7  9  1  0
  9 10  1  0
  7 11  1  0
 11 12  1  0
 12 13  1  6
 12 14  1  0
 14 15  1  0
 14 16  1  0
 14 17  1  0
 17 18  1  0
 12 19  1  0
 19 20  1  1
 19 21  1  0
 21 22  1  0
 19 23  1  0
 23 24  1  6
 23 25  1  0
 25 26  1  0
  3 27  1  0
 27 28  1  0
 27 29  1  0
 27 30  1  0
 30 31  1  0
 30 32  1  0
 30 33  1  0
 33 34  1  0
 33 35  1  0
 33 36  1  0
 23  5  1  0
M  END
>  <UniqueID>  (184) 
183

>  <SMILES>  (184) 
CCC/C(O)=N/[C@H]1[C@H](O)O[C@H](CO)[C@@H](O)[C@@H]1O

>  <Energy>  (184) 
29.062088171983618

>  <Genealogy>  (184) 
CCCC(O)=N[C@H]1[C@H](O)O[C@H](CO)[C@@H](O)[C@@H]1O (tautomer)
CCC/C(O)=N/[C@H]1[C@H](O)O[C@H](CO)[C@@H](O)[C@@H]1O (cis-trans isomerization)
CCC/C(O)=N/[C@H]1[C@H](O)O[C@H](CO)[C@@H](O)[C@@H]1O (3D coordinates assigned)
CCC/C(O)=N/[C@H]1[C@H](O)O[C@H](CO)[C@@H](O)[C@@H]1O (nonaromatic ring conformer: 29.062088171983618 kcal/mol)

$$$$
446101
     RDKit          3D

 33 33  0  0  0  0  0  0  0  0999 V2000
    4.7844    0.4526   -0.2186 C   0  0  0  0  0  0  0  0  0  0  0  0
    3.3498    0.5611   -0.6205 C   0  0  0  0  0  0  0  0  0  0  0  0
    2.9947    1.4723   -1.4162 O   0  0  0  0  0  0  0  0  0  0  0  0
    2.3839   -0.3460   -0.0708 N   0  0  0  0  0  0  0  0  0  0  0  0
    0.9481   -0.2482   -0.3531 C   0  0  1  0  0  0  0  0  0  0  0  0
    0.3659   -1.6544   -0.6026 C   0  0  2  0  0  0  0  0  0  0  0  0
    0.9799   -2.2032   -1.7369 O   0  0  0  0  0  0  0  0  0  0  0  0
   -1.0327   -1.5816   -0.8287 O   0  0  0  0  0  0  0  0  0  0  0  0
   -1.6981   -1.1134    0.3330 C   0  0  2  0  0  0  0  0  0  0  0  0
   -3.2128   -1.2777    0.1487 C   0  0  0  0  0  0  0  0  0  0  0  0
   -3.6348   -0.6797   -1.0464 O   0  0  0  0  0  0  0  0  0  0  0  0
   -1.3038    0.3537    0.6318 C   0  0  2  0  0  0  0  0  0  0  0  0
   -1.6685    1.1781   -0.4622 O   0  0  0  0  0  0  0  0  0  0  0  0
   -2.6066    2.4879    0.0713 S   0  0  0  0  0  6  0  0  0  0  0  0
   -2.8488    3.4141   -1.0860 O   0  0  0  0  0  0  0  0  0  0  0  0
   -3.9289    1.9965    0.5902 O   0  0  0  0  0  0  0  0  0  0  0  0
   -1.8046    3.3317    1.2837 O   0  0  0  0  0  1  0  0  0  0  0  0
    0.2220    0.4187    0.8332 C   0  0  2  0  0  0  0  0  0  0  0  0
    0.6241    1.7589    0.9564 O   0  0  0  0  0  0  0  0  0  0  0  0
    5.4246    1.0658   -0.8880 H   0  0  0  0  0  0  0  0  0  0  0  0
    4.9031    0.8103    0.8252 H   0  0  0  0  0  0  0  0  0  0  0  0
    5.1126   -0.6059   -0.2821 H   0  0  0  0  0  0  0  0  0  0  0  0
    2.7036   -1.0293    0.6533 H   0  0  0  0  0  0  0  0  0  0  0  0
    0.7762    0.3593   -1.2701 H   0  0  0  0  0  0  0  0  0  0  0  0
    0.5883   -2.3125    0.2730 H   0  0  0  0  0  0  0  0  0  0  0  0
    0.6621   -3.1415   -1.8016 H   0  0  0  0  0  0  0  0  0  0  0  0
   -1.4282   -1.7425    1.2148 H   0  0  0  0  0  0  0  0  0  0  0  0
   -3.4539   -2.3639    0.1191 H   0  0  0  0  0  0  0  0  0  0  0  0
   -3.7494   -0.8267    1.0136 H   0  0  0  0  0  0  0  0  0  0  0  0
   -4.6191   -0.8007   -1.0823 H   0  0  0  0  0  0  0  0  0  0  0  0
   -1.7862    0.6427    1.5962 H   0  0  0  0  0  0  0  0  0  0  0  0
    0.4683   -0.1357    1.7713 H   0  0  0  0  0  0  0  0  0  0  0  0
    1.4849    1.7595    1.4509 H   0  0  0  0  0  0  0  0  0  0  0  0
  1  2  1  0
  2  3  2  0
  2  4  1  0
  4  5  1  0
  5  6  1  0
  6  7  1  0
  6  8  1  0
  8  9  1  0
  9 10  1  0
 10 11  1  0
  9 12  1  0
 12 13  1  0
 13 14  1  0
 14 15  2  0
 14 16  2  0
 14 17  1  0
 12 18  1  0
 18 19  1  0
 18  5  1  0
  1 20  1  0
  1 21  1  0
  1 22  1  0
  4 23  1  0
  5 24  1  6
  6 25  1  1
  7 26  1  0
  9 27  1  1
 10 28  1  0
 10 29  1  0
 11 30  1  0
 12 31  1  1
 18 32  1  1
 19 33  1  0
M  CHG  1  17  -1
M  END
>  <UniqueID>  (185) 
184

>  <SMILES>  (185) 
CC(=O)N[C@H]1[C@H](O)O[C@H](CO)[C@H](OS(=O)(=O)[O-])[C@@H]1O

>  <Energy>  (185) 
28.729284523530545

>  <Genealogy>  (185) 
CC(=O)N[C@H]1[C@H](O)O[C@H](CO)[C@H](OS(=O)(=O)[O-])[C@@H]1O (protonated)
CC(=O)N[C@H]1[C@H](O)O[C@H](CO)[C@H](OS(=O)(=O)[O-])[C@@H]1O (3D coordinates assigned)
CC(=O)N[C@H]1[C@H](O)O[C@H](CO)[C@H](OS(=O)(=O)[O-])[C@@H]1O (nonaromatic ring conformer: 28.729284523530545 kcal/mol)

$$$$
446101
     RDKit          3D

 33 33  0  0  0  0  0  0  0  0999 V2000
    3.8161   -2.7877    3.0472 H   0  0  0  0  0  0  0  0  0  0  0  0
    3.0087   -2.7838    2.4355 O   0  0  0  0  0  0  0  0  0  0  0  0
    2.4569   -1.5967    1.9603 C   0  0  0  0  0  0  0  0  0  0  0  0
    1.4287   -1.6700    1.1639 N   0  0  0  0  0  0  0  0  0  0  0  0
    0.6916   -0.5506    0.5666 C   0  0  1  0  0  0  0  0  0  0  0  0
    1.3210    0.3655    0.5241 H   0  0  0  0  0  0  0  0  0  0  0  0
    0.3049   -0.9166   -0.8798 C   0  0  2  0  0  0  0  0  0  0  0  0
   -0.2545   -1.8843   -0.8825 H   0  0  0  0  0  0  0  0  0  0  0  0
    1.4758   -1.0809   -1.6329 O   0  0  0  0  0  0  0  0  0  0  0  0
    1.1923   -1.4185   -2.5224 H   0  0  0  0  0  0  0  0  0  0  0  0
   -0.4751    0.1147   -1.4652 O   0  0  0  0  0  0  0  0  0  0  0  0
   -1.7124    0.2462   -0.7849 C   0  0  2  0  0  0  0  0  0  0  0  0
   -2.2347   -0.7399   -0.7420 H   0  0  0  0  0  0  0  0  0  0  0  0
   -2.6233    1.1835   -1.5919 C   0  0  0  0  0  0  0  0  0  0  0  0
   -2.5875    0.8813   -2.6603 H   0  0  0  0  0  0  0  0  0  0  0  0
   -2.2677    2.2381   -1.5404 H   0  0  0  0  0  0  0  0  0  0  0  0
   -3.9541    1.0738   -1.1612 O   0  0  0  0  0  0  0  0  0  0  0  0
   -4.0729    1.7181   -0.4175 H   0  0  0  0  0  0  0  0  0  0  0  0
   -1.4700    0.7637    0.6536 C   0  0  2  0  0  0  0  0  0  0  0  0
   -2.4544    0.8099    1.1757 H   0  0  0  0  0  0  0  0  0  0  0  0
   -0.7921    2.0083    0.5954 O   0  0  0  0  0  0  0  0  0  0  0  0
   -1.5561    3.1635    1.5786 S   0  0  0  0  0  6  0  0  0  0  0  0
   -2.8794    3.5547    0.9849 O   0  0  0  0  0  0  0  0  0  0  0  0
   -1.7648    2.6322    2.9692 O   0  0  0  0  0  0  0  0  0  0  0  0
   -0.5769    4.5250    1.6637 O   0  0  0  0  0  1  0  0  0  0  0  0
   -0.5843   -0.2671    1.3848 C   0  0  2  0  0  0  0  0  0  0  0  0
   -1.1540   -1.2234    1.4831 H   0  0  0  0  0  0  0  0  0  0  0  0
   -0.2376    0.2024    2.6607 O   0  0  0  0  0  0  0  0  0  0  0  0
   -1.0178    0.0324    3.2507 H   0  0  0  0  0  0  0  0  0  0  0  0
    3.0799   -0.2846    2.3543 C   0  0  0  0  0  0  0  0  0  0  0  0
    3.5314    0.1990    1.4631 H   0  0  0  0  0  0  0  0  0  0  0  0
    2.3224    0.3896    2.8016 H   0  0  0  0  0  0  0  0  0  0  0  0
    3.8806   -0.4436    3.1060 H   0  0  0  0  0  0  0  0  0  0  0  0
  1  2  1  0
  2  3  1  0
  3  4  2  0
  4  5  1  0
  5  6  1  6
  5  7  1  0
  7  8  1  1
  7  9  1  0
  9 10  1  0
  7 11  1  0
 11 12  1  0
 12 13  1  1
 12 14  1  0
 14 15  1  0
 14 16  1  0
 14 17  1  0
 17 18  1  0
 12 19  1  0
 19 20  1  1
 19 21  1  0
 21 22  1  0
 22 23  2  0
 22 24  2  0
 22 25  1  0
 19 26  1  0
 26 27  1  1
 26 28  1  0
 28 29  1  0
  3 30  1  0
 30 31  1  0
 30 32  1  0
 30 33  1  0
 26  5  1  0
M  CHG  1  25  -1
M  END
>  <UniqueID>  (186) 
185

>  <SMILES>  (186) 
C/C(O)=N/[C@H]1[C@H](O)O[C@H](CO)[C@H](OS(=O)(=O)[O-])[C@@H]1O

>  <Energy>  (186) 
32.97566668084877

>  <Genealogy>  (186) 
CC(=O)N[C@H]1[C@H](O)O[C@H](CO)[C@H](OS(=O)(=O)[O-])[C@@H]1O (protonated)
CC(O)=N[C@H]1[C@H](O)O[C@H](CO)[C@H](OS(=O)(=O)[O-])[C@@H]1O (tautomer)
C/C(O)=N/[C@H]1[C@H](O)O[C@H](CO)[C@H](OS(=O)(=O)[O-])[C@@H]1O (cis-trans isomerization)
C/C(O)=N/[C@H]1[C@H](O)O[C@H](CO)[C@H](OS(=O)(=O)[O-])[C@@H]1O (3D coordinates assigned)
C/C(O)=N/[C@H]1[C@H](O)O[C@H](CO)[C@H](OS(=O)(=O)[O-])[C@@H]1O (nonaromatic ring conformer: 32.97566668084877 kcal/mol)

$$$$
446101
     RDKit          3D

 33 33  0  0  0  0  0  0  0  0999 V2000
    3.4788   -3.2375    1.6336 H   0  0  0  0  0  0  0  0  0  0  0  0
    2.8954   -2.4803    1.2985 O   0  0  0  0  0  0  0  0  0  0  0  0
    2.1997   -1.6584    2.1849 C   0  0  0  0  0  0  0  0  0  0  0  0
    1.4717   -0.6759    1.7451 N   0  0  0  0  0  0  0  0  0  0  0  0
    1.2788   -0.3548    0.3280 C   0  0  1  0  0  0  0  0  0  0  0  0
    2.2601   -0.4248   -0.1939 H   0  0  0  0  0  0  0  0  0  0  0  0
    0.2779   -1.3426   -0.3130 C   0  0  2  0  0  0  0  0  0  0  0  0
    0.6225   -2.3756   -0.0809 H   0  0  0  0  0  0  0  0  0  0  0  0
    0.2448   -1.2091   -1.7113 O   0  0  0  0  0  0  0  0  0  0  0  0
    1.1112   -1.5506   -2.0555 H   0  0  0  0  0  0  0  0  0  0  0  0
   -1.0261   -1.2241    0.2379 O   0  0  0  0  0  0  0  0  0  0  0  0
   -1.5907    0.0785    0.1253 C   0  0  2  0  0  0  0  0  0  0  0  0
   -2.4901    0.0561    0.7779 H   0  0  0  0  0  0  0  0  0  0  0  0
   -2.1344    0.3574   -1.2935 C   0  0  0  0  0  0  0  0  0  0  0  0
   -1.3285    0.6925   -1.9776 H   0  0  0  0  0  0  0  0  0  0  0  0
   -2.5712   -0.5814   -1.7019 H   0  0  0  0  0  0  0  0  0  0  0  0
   -3.1343    1.3386   -1.2420 O   0  0  0  0  0  0  0  0  0  0  0  0
   -3.4470    1.4647   -2.1755 H   0  0  0  0  0  0  0  0  0  0  0  0
   -0.6780    1.1908    0.7161 C   0  0  2  0  0  0  0  0  0  0  0  0
   -0.6184    1.0093    1.8165 H   0  0  0  0  0  0  0  0  0  0  0  0
   -1.1862    2.4754    0.4036 O   0  0  0  0  0  0  0  0  0  0  0  0
   -1.9743    3.1431    1.7492 S   0  0  0  0  0  6  0  0  0  0  0  0
   -2.6577    4.4134    1.3303 O   0  0  0  0  0  0  0  0  0  0  0  0
   -0.9709    3.4573    2.8234 O   0  0  0  0  0  0  0  0  0  0  0  0
   -3.1282    2.0777    2.3475 O   0  0  0  0  0  1  0  0  0  0  0  0
    0.7666    1.0878    0.2009 C   0  0  2  0  0  0  0  0  0  0  0  0
    1.4012    1.7535    0.8335 H   0  0  0  0  0  0  0  0  0  0  0  0
    0.8449    1.5240   -1.1328 O   0  0  0  0  0  0  0  0  0  0  0  0
    1.8025    1.7058   -1.3216 H   0  0  0  0  0  0  0  0  0  0  0  0
    2.3216   -1.8814    3.6577 C   0  0  0  0  0  0  0  0  0  0  0  0
    1.4706   -1.4129    4.1971 H   0  0  0  0  0  0  0  0  0  0  0  0
    3.2715   -1.4368    4.0203 H   0  0  0  0  0  0  0  0  0  0  0  0
    2.3220   -2.9699    3.8748 H   0  0  0  0  0  0  0  0  0  0  0  0
  1  2  1  0
  2  3  1  0
  3  4  2  0
  4  5  1  0
  5  6  1  6
  5  7  1  0
  7  8  1  6
  7  9  1  0
  9 10  1  0
  7 11  1  0
 11 12  1  0
 12 13  1  1
 12 14  1  0
 14 15  1  0
 14 16  1  0
 14 17  1  0
 17 18  1  0
 12 19  1  0
 19 20  1  1
 19 21  1  0
 21 22  1  0
 22 23  2  0
 22 24  2  0
 22 25  1  0
 19 26  1  0
 26 27  1  1
 26 28  1  0
 28 29  1  0
  3 30  1  0
 30 31  1  0
 30 32  1  0
 30 33  1  0
 26  5  1  0
M  CHG  1  25  -1
M  END
>  <UniqueID>  (187) 
186

>  <SMILES>  (187) 
C/C(O)=N/[C@H]1[C@H](O)O[C@H](CO)[C@H](OS(=O)(=O)[O-])[C@@H]1O

>  <Energy>  (187) 
37.57815049623207

>  <Genealogy>  (187) 
CC(=O)N[C@H]1[C@H](O)O[C@H](CO)[C@H](OS(=O)(=O)[O-])[C@@H]1O (protonated)
CC(O)=N[C@H]1[C@H](O)O[C@H](CO)[C@H](OS(=O)(=O)[O-])[C@@H]1O (tautomer)
C/C(O)=N/[C@H]1[C@H](O)O[C@H](CO)[C@H](OS(=O)(=O)[O-])[C@@H]1O (cis-trans isomerization)
C/C(O)=N/[C@H]1[C@H](O)O[C@H](CO)[C@H](OS(=O)(=O)[O-])[C@@H]1O (3D coordinates assigned)
C/C(O)=N/[C@H]1[C@H](O)O[C@H](CO)[C@H](OS(=O)(=O)[O-])[C@@H]1O (nonaromatic ring conformer: 37.57815049623207 kcal/mol)

$$$$
445621
     RDKit          3D

 25 25  0  0  0  0  0  0  0  0999 V2000
    1.5924   -1.6096   -1.1791 N   0  0  0  0  0  0  0  0  0  0  0  0
    0.6468   -0.4990   -1.3262 C   0  0  1  0  0  0  0  0  0  0  0  0
   -0.7300   -0.8245   -0.6986 C   0  0  1  0  0  0  0  0  0  0  0  0
   -0.6152   -1.1795    0.6600 O   0  0  0  0  0  0  0  0  0  0  0  0
   -1.6224    0.2675   -0.8527 O   0  0  0  0  0  0  0  0  0  0  0  0
   -1.1581    1.4312   -0.1823 C   0  0  2  0  0  0  0  0  0  0  0  0
   -2.2501    2.5080   -0.3054 C   0  0  0  0  0  0  0  0  0  0  0  0
   -1.9832    3.6035    0.5289 O   0  0  0  0  0  0  0  0  0  0  0  0
    0.1837    1.9141   -0.7898 C   0  0  1  0  0  0  0  0  0  0  0  0
    0.6688    3.0249   -0.0770 O   0  0  0  0  0  0  0  0  0  0  0  0
    1.2252    0.7853   -0.7138 C   0  0  2  0  0  0  0  0  0  0  0  0
    2.3834    1.1528   -1.4190 O   0  0  0  0  0  0  0  0  0  0  0  0
    1.7619   -1.8008   -0.1650 H   0  0  0  0  0  0  0  0  0  0  0  0
    1.1701   -2.4702   -1.5976 H   0  0  0  0  0  0  0  0  0  0  0  0
    0.4897   -0.3235   -2.4149 H   0  0  0  0  0  0  0  0  0  0  0  0
   -1.1685   -1.6769   -1.2688 H   0  0  0  0  0  0  0  0  0  0  0  0
   -0.4704   -2.1609    0.6970 H   0  0  0  0  0  0  0  0  0  0  0  0
   -1.0227    1.2225    0.9042 H   0  0  0  0  0  0  0  0  0  0  0  0
   -2.3156    2.8625   -1.3563 H   0  0  0  0  0  0  0  0  0  0  0  0
   -3.2404    2.0697   -0.0429 H   0  0  0  0  0  0  0  0  0  0  0  0
   -2.1978    3.3159    1.4546 H   0  0  0  0  0  0  0  0  0  0  0  0
    0.0249    2.1703   -1.8664 H   0  0  0  0  0  0  0  0  0  0  0  0
    0.4532    3.8344   -0.6098 H   0  0  0  0  0  0  0  0  0  0  0  0
    1.4777    0.5905    0.3566 H   0  0  0  0  0  0  0  0  0  0  0  0
    2.9038    1.7550   -0.8256 H   0  0  0  0  0  0  0  0  0  0  0  0
  1  2  1  0
  2  3  1  0
  3  4  1  0
  3  5  1  0
  5  6  1  0
  6  7  1  0
  7  8  1  0
  6  9  1  0
  9 10  1  0
  9 11  1  0
 11 12  1  0
 11  2  1  0
  1 13  1  0
  1 14  1  0
  2 15  1  6
  3 16  1  6
  4 17  1  0
  6 18  1  1
  7 19  1  0
  7 20  1  0
  8 21  1  0
  9 22  1  6
 10 23  1  0
 11 24  1  1
 12 25  1  0
M  END
>  <UniqueID>  (188) 
187

>  <SMILES>  (188) 
N[C@H]1[C@@H](O)O[C@H](CO)[C@@H](O)[C@@H]1O

>  <Energy>  (188) 
24.473288378852406

>  <Genealogy>  (188) 
N[C@H]1[C@@H](O)O[C@H](CO)[C@@H](O)[C@@H]1O (3D coordinates assigned)
N[C@H]1[C@@H](O)O[C@H](CO)[C@@H](O)[C@@H]1O (nonaromatic ring conformer: 24.473288378852406 kcal/mol)

$$$$
445621
     RDKit          3D

 26 26  0  0  0  0  0  0  0  0999 V2000
    2.0338    1.3191    0.8361 N   0  0  0  0  0  4  0  0  0  0  0  0
    1.1631    0.1354    0.8603 C   0  0  1  0  0  0  0  0  0  0  0  0
   -0.3264    0.5304    0.7201 C   0  0  1  0  0  0  0  0  0  0  0  0
   -0.5595    1.2830   -0.4478 O   0  0  0  0  0  0  0  0  0  0  0  0
   -1.1576   -0.6185    0.7459 O   0  0  0  0  0  0  0  0  0  0  0  0
   -0.8924   -1.4892   -0.3445 C   0  0  2  0  0  0  0  0  0  0  0  0
   -1.9232   -2.6303   -0.2914 C   0  0  0  0  0  0  0  0  0  0  0  0
   -1.8601   -3.4304   -1.4417 O   0  0  0  0  0  0  0  0  0  0  0  0
    0.5547   -2.0348   -0.2701 C   0  0  1  0  0  0  0  0  0  0  0  0
    0.8149   -2.8457   -1.3880 O   0  0  0  0  0  0  0  0  0  0  0  0
    1.5548   -0.8644   -0.2439 C   0  0  2  0  0  0  0  0  0  0  0  0
    2.8494   -1.3498    0.0071 O   0  0  0  0  0  0  0  0  0  0  0  0
    2.0207    1.7739   -0.1056 H   0  0  0  0  0  0  0  0  0  0  0  0
    3.0158    1.0405    1.0634 H   0  0  0  0  0  0  0  0  0  0  0  0
    1.7180    2.0085    1.5566 H   0  0  0  0  0  0  0  0  0  0  0  0
    1.2841   -0.3694    1.8469 H   0  0  0  0  0  0  0  0  0  0  0  0
   -0.6005    1.1407    1.6124 H   0  0  0  0  0  0  0  0  0  0  0  0
   -0.3849    2.2344   -0.2244 H   0  0  0  0  0  0  0  0  0  0  0  0
   -1.0420   -0.9554   -1.3114 H   0  0  0  0  0  0  0  0  0  0  0  0
   -2.9477   -2.2053   -0.1853 H   0  0  0  0  0  0  0  0  0  0  0  0
   -1.7371   -3.2667    0.6001 H   0  0  0  0  0  0  0  0  0  0  0  0
   -2.2852   -2.9112   -2.1734 H   0  0  0  0  0  0  0  0  0  0  0  0
    0.6614   -2.6265    0.6713 H   0  0  0  0  0  0  0  0  0  0  0  0
    1.5222   -3.4893   -1.1214 H   0  0  0  0  0  0  0  0  0  0  0  0
    1.5266   -0.3384   -1.2290 H   0  0  0  0  0  0  0  0  0  0  0  0
    3.2257   -1.6376   -0.8653 H   0  0  0  0  0  0  0  0  0  0  0  0
  1  2  1  0
  2  3  1  0
  3  4  1  0
  3  5  1  0
  5  6  1  0
  6  7  1  0
  7  8  1  0
  6  9  1  0
  9 10  1  0
  9 11  1  0
 11 12  1  0
 11  2  1  0
  1 13  1  0
  1 14  1  0
  1 15  1  0
  2 16  1  1
  3 17  1  1
  4 18  1  0
  6 19  1  6
  7 20  1  0
  7 21  1  0
  8 22  1  0
  9 23  1  1
 10 24  1  0
 11 25  1  6
 12 26  1  0
M  CHG  1   1   1
M  END
>  <UniqueID>  (189) 
188

>  <SMILES>  (189) 
[NH3+][C@H]1[C@@H](O)O[C@H](CO)[C@@H](O)[C@@H]1O

>  <Energy>  (189) 
25.097850262152768

>  <Genealogy>  (189) 
[NH3+][C@H]1[C@@H](O)O[C@H](CO)[C@@H](O)[C@@H]1O (protonated)
[NH3+][C@H]1[C@@H](O)O[C@H](CO)[C@@H](O)[C@@H]1O (3D coordinates assigned)
[NH3+][C@H]1[C@@H](O)O[C@H](CO)[C@@H](O)[C@@H]1O (nonaromatic ring conformer: 25.097850262152768 kcal/mol)

$$$$
445621
     RDKit          3D

 25 25  0  0  0  0  0  0  0  0999 V2000
    1.4695   -1.5330   -0.4982 N   0  0  0  0  0  0  0  0  0  0  0  0
    0.7040   -0.4675   -1.1549 C   0  0  1  0  0  0  0  0  0  0  0  0
   -0.8095   -0.5314   -0.8080 C   0  0  1  0  0  0  0  0  0  0  0  0
   -1.2256   -1.8628   -0.6612 O   0  0  0  0  0  0  0  0  0  0  0  0
   -1.0666    0.1765    0.3917 O   0  0  0  0  0  0  0  0  0  0  0  0
   -0.9118    1.5848    0.2277 C   0  0  2  0  0  0  0  0  0  0  0  0
   -2.2630    2.2250   -0.1372 C   0  0  0  0  0  0  0  0  0  0  0  0
   -2.1733    3.6246   -0.1239 O   0  0  0  0  0  0  0  0  0  0  0  0
    0.2196    1.9922   -0.7645 C   0  0  1  0  0  0  0  0  0  0  0  0
    0.7662    3.2252   -0.3681 O   0  0  0  0  0  0  0  0  0  0  0  0
    1.3088    0.9052   -0.7717 C   0  0  2  0  0  0  0  0  0  0  0  0
    2.3231    1.2360   -1.6867 O   0  0  0  0  0  0  0  0  0  0  0  0
    1.2201   -2.4515   -0.9319 H   0  0  0  0  0  0  0  0  0  0  0  0
    1.2093   -1.5758    0.5146 H   0  0  0  0  0  0  0  0  0  0  0  0
    0.7953   -0.6024   -2.2572 H   0  0  0  0  0  0  0  0  0  0  0  0
   -1.3871   -0.0873   -1.6543 H   0  0  0  0  0  0  0  0  0  0  0  0
   -2.2096   -1.8371   -0.5321 H   0  0  0  0  0  0  0  0  0  0  0  0
   -0.6284    1.9755    1.2302 H   0  0  0  0  0  0  0  0  0  0  0  0
   -3.0455    1.8862    0.5795 H   0  0  0  0  0  0  0  0  0  0  0  0
   -2.5791    1.9004   -1.1505 H   0  0  0  0  0  0  0  0  0  0  0  0
   -2.1606    3.8997    0.8300 H   0  0  0  0  0  0  0  0  0  0  0  0
   -0.2030    2.0770   -1.7953 H   0  0  0  0  0  0  0  0  0  0  0  0
    1.1534    3.6462   -1.1796 H   0  0  0  0  0  0  0  0  0  0  0  0
    1.7345    0.8400    0.2597 H   0  0  0  0  0  0  0  0  0  0  0  0
    2.9481    1.8502   -1.2198 H   0  0  0  0  0  0  0  0  0  0  0  0
  1  2  1  0
  2  3  1  0
  3  4  1  0
  3  5  1  0
  5  6  1  0
  6  7  1  0
  7  8  1  0
  6  9  1  0
  9 10  1  0
  9 11  1  0
 11 12  1  0
 11  2  1  0
  1 13  1  0
  1 14  1  0
  2 15  1  6
  3 16  1  6
  4 17  1  0
  6 18  1  1
  7 19  1  0
  7 20  1  0
  8 21  1  0
  9 22  1  6
 10 23  1  0
 11 24  1  1
 12 25  1  0
M  END
>  <UniqueID>  (190) 
189

>  <SMILES>  (190) 
N[C@H]1[C@@H](O)O[C@H](CO)[C@@H](O)[C@@H]1O

>  <Energy>  (190) 
31.20417912110832

>  <Genealogy>  (190) 
N[C@H]1[C@@H](O)O[C@H](CO)[C@@H](O)[C@@H]1O (3D coordinates assigned)
N[C@H]1[C@@H](O)O[C@H](CO)[C@@H](O)[C@@H]1O (nonaromatic ring conformer: 31.20417912110832 kcal/mol)

$$$$
441477
     RDKit          3D

 25 25  0  0  0  0  0  0  0  0999 V2000
    1.5525   -2.4538    0.6813 N   0  0  0  0  0  0  0  0  0  0  0  0
    0.5458   -1.5114    0.1840 C   0  0  1  0  0  0  0  0  0  0  0  0
   -0.3714   -1.0518    1.3431 C   0  0  2  0  0  0  0  0  0  0  0  0
   -1.0466   -2.1516    1.8955 O   0  0  0  0  0  0  0  0  0  0  0  0
   -1.3247   -0.1058    0.8872 O   0  0  0  0  0  0  0  0  0  0  0  0
   -0.6836    1.0823    0.4567 C   0  0  2  0  0  0  0  0  0  0  0  0
   -1.7583    2.1401    0.1557 C   0  0  0  0  0  0  0  0  0  0  0  0
   -2.6062    1.7235   -0.8819 O   0  0  0  0  0  0  0  0  0  0  0  0
    0.1980    0.8019   -0.7817 C   0  0  1  0  0  0  0  0  0  0  0  0
    0.8562    1.9823   -1.1673 O   0  0  0  0  0  0  0  0  0  0  0  0
    1.2368   -0.2845   -0.4436 C   0  0  2  0  0  0  0  0  0  0  0  0
    1.9102   -0.6773   -1.6128 O   0  0  0  0  0  0  0  0  0  0  0  0
    2.1358   -2.7751   -0.1252 H   0  0  0  0  0  0  0  0  0  0  0  0
    1.0637   -3.3102    1.0296 H   0  0  0  0  0  0  0  0  0  0  0  0
   -0.0774   -2.0115   -0.5936 H   0  0  0  0  0  0  0  0  0  0  0  0
    0.2513   -0.6108    2.1557 H   0  0  0  0  0  0  0  0  0  0  0  0
   -1.6856   -2.4781    1.2089 H   0  0  0  0  0  0  0  0  0  0  0  0
   -0.0488    1.4979    1.2749 H   0  0  0  0  0  0  0  0  0  0  0  0
   -1.2747    3.0950   -0.1406 H   0  0  0  0  0  0  0  0  0  0  0  0
   -2.3486    2.3468    1.0778 H   0  0  0  0  0  0  0  0  0  0  0  0
   -3.2564    1.0884   -0.4830 H   0  0  0  0  0  0  0  0  0  0  0  0
   -0.4542    0.4328   -1.6095 H   0  0  0  0  0  0  0  0  0  0  0  0
    1.0567    1.8990   -2.1360 H   0  0  0  0  0  0  0  0  0  0  0  0
    1.9643    0.1259    0.2986 H   0  0  0  0  0  0  0  0  0  0  0  0
    2.6453   -0.0258   -1.7570 H   0  0  0  0  0  0  0  0  0  0  0  0
  1  2  1  0
  2  3  1  0
  3  4  1  0
  3  5  1  0
  5  6  1  0
  6  7  1  0
  7  8  1  0
  6  9  1  0
  9 10  1  0
  9 11  1  0
 11 12  1  0
 11  2  1  0
  1 13  1  0
  1 14  1  0
  2 15  1  6
  3 16  1  1
  4 17  1  0
  6 18  1  1
  7 19  1  0
  7 20  1  0
  8 21  1  0
  9 22  1  6
 10 23  1  0
 11 24  1  1
 12 25  1  0
M  END
>  <UniqueID>  (191) 
190

>  <SMILES>  (191) 
N[C@H]1[C@H](O)O[C@H](CO)[C@@H](O)[C@@H]1O

>  <Energy>  (191) 
21.735096729997046

>  <Genealogy>  (191) 
N[C@H]1[C@H](O)O[C@H](CO)[C@@H](O)[C@@H]1O (3D coordinates assigned)
N[C@H]1[C@H](O)O[C@H](CO)[C@@H](O)[C@@H]1O (nonaromatic ring conformer: 21.735096729997046 kcal/mol)

$$$$
441477
     RDKit          3D

 25 25  0  0  0  0  0  0  0  0999 V2000
    2.1415   -1.0762    1.1711 N   0  0  0  0  0  0  0  0  0  0  0  0
    0.9409   -1.4042    0.3965 C   0  0  1  0  0  0  0  0  0  0  0  0
   -0.3226   -1.1827    1.2524 C   0  0  2  0  0  0  0  0  0  0  0  0
   -1.4407   -1.7815    0.6509 O   0  0  0  0  0  0  0  0  0  0  0  0
   -0.5565    0.1895    1.5445 O   0  0  0  0  0  0  0  0  0  0  0  0
   -0.6984    1.0164    0.3935 C   0  0  2  0  0  0  0  0  0  0  0  0
   -2.0876    0.8731   -0.2671 C   0  0  0  0  0  0  0  0  0  0  0  0
   -2.4073    2.0290   -0.9967 O   0  0  0  0  0  0  0  0  0  0  0  0
    0.4930    0.8974   -0.6005 C   0  0  1  0  0  0  0  0  0  0  0  0
    1.6120    1.6188   -0.1407 O   0  0  0  0  0  0  0  0  0  0  0  0
    0.8809   -0.5638   -0.8958 C   0  0  2  0  0  0  0  0  0  0  0  0
   -0.0465   -1.1220   -1.7919 O   0  0  0  0  0  0  0  0  0  0  0  0
    2.1939   -1.7206    1.9935 H   0  0  0  0  0  0  0  0  0  0  0  0
    2.9821   -1.2948    0.5882 H   0  0  0  0  0  0  0  0  0  0  0  0
    0.9921   -2.4825    0.1188 H   0  0  0  0  0  0  0  0  0  0  0  0
   -0.1523   -1.6998    2.2242 H   0  0  0  0  0  0  0  0  0  0  0  0
   -2.1776   -1.7325    1.3144 H   0  0  0  0  0  0  0  0  0  0  0  0
   -0.6726    2.0609    0.7766 H   0  0  0  0  0  0  0  0  0  0  0  0
   -2.1485   -0.0244   -0.9197 H   0  0  0  0  0  0  0  0  0  0  0  0
   -2.8514    0.7535    0.5303 H   0  0  0  0  0  0  0  0  0  0  0  0
   -2.0847    1.8865   -1.9244 H   0  0  0  0  0  0  0  0  0  0  0  0
    0.2010    1.3688   -1.5634 H   0  0  0  0  0  0  0  0  0  0  0  0
    1.7431    1.4152    0.8210 H   0  0  0  0  0  0  0  0  0  0  0  0
    1.8841   -0.5621   -1.3847 H   0  0  0  0  0  0  0  0  0  0  0  0
    0.3774   -1.9310   -2.1817 H   0  0  0  0  0  0  0  0  0  0  0  0
  1  2  1  0
  2  3  1  0
  3  4  1  0
  3  5  1  0
  5  6  1  0
  6  7  1  0
  7  8  1  0
  6  9  1  0
  9 10  1  0
  9 11  1  0
 11 12  1  0
 11  2  1  0
  1 13  1  0
  1 14  1  0
  2 15  1  6
  3 16  1  1
  4 17  1  0
  6 18  1  1
  7 19  1  0
  7 20  1  0
  8 21  1  0
  9 22  1  6
 10 23  1  0
 11 24  1  6
 12 25  1  0
M  END
>  <UniqueID>  (192) 
191

>  <SMILES>  (192) 
N[C@H]1[C@H](O)O[C@H](CO)[C@@H](O)[C@@H]1O

>  <Energy>  (192) 
31.752094057878146

>  <Genealogy>  (192) 
N[C@H]1[C@H](O)O[C@H](CO)[C@@H](O)[C@@H]1O (3D coordinates assigned)
N[C@H]1[C@H](O)O[C@H](CO)[C@@H](O)[C@@H]1O (nonaromatic ring conformer: 31.752094057878146 kcal/mol)

$$$$
441477
     RDKit          3D

 25 25  0  0  0  0  0  0  0  0999 V2000
    2.0519   -1.6389    1.0977 N   0  0  0  0  0  0  0  0  0  0  0  0
    0.8120   -1.4391    0.3416 C   0  0  1  0  0  0  0  0  0  0  0  0
   -0.2797   -0.8624    1.2732 C   0  0  2  0  0  0  0  0  0  0  0  0
   -0.8805   -1.8934    2.0128 O   0  0  0  0  0  0  0  0  0  0  0  0
   -1.2623   -0.1885    0.5092 O   0  0  0  0  0  0  0  0  0  0  0  0
   -0.7640    1.0595    0.0480 C   0  0  2  0  0  0  0  0  0  0  0  0
   -1.7916    1.6716   -0.9155 C   0  0  0  0  0  0  0  0  0  0  0  0
   -3.0209    1.8615   -0.2671 O   0  0  0  0  0  0  0  0  0  0  0  0
    0.6404    0.9427   -0.6378 C   0  0  1  0  0  0  0  0  0  0  0  0
    1.6173    1.5346    0.1807 O   0  0  0  0  0  0  0  0  0  0  0  0
    1.0379   -0.5274   -0.9025 C   0  0  2  0  0  0  0  0  0  0  0  0
    0.3484   -1.0265   -2.0241 O   0  0  0  0  0  0  0  0  0  0  0  0
    2.4780   -0.7107    1.3230 H   0  0  0  0  0  0  0  0  0  0  0  0
    2.7322   -2.1570    0.4952 H   0  0  0  0  0  0  0  0  0  0  0  0
    0.4765   -2.4376   -0.0212 H   0  0  0  0  0  0  0  0  0  0  0  0
    0.1807   -0.1641    2.0120 H   0  0  0  0  0  0  0  0  0  0  0  0
   -1.4474   -2.4146    1.3857 H   0  0  0  0  0  0  0  0  0  0  0  0
   -0.6961    1.7573    0.9152 H   0  0  0  0  0  0  0  0  0  0  0  0
   -1.9190    1.0244   -1.8136 H   0  0  0  0  0  0  0  0  0  0  0  0
   -1.4278    2.6629   -1.2615 H   0  0  0  0  0  0  0  0  0  0  0  0
   -3.4964    0.9904   -0.2929 H   0  0  0  0  0  0  0  0  0  0  0  0
    0.6468    1.4675   -1.6232 H   0  0  0  0  0  0  0  0  0  0  0  0
    1.5031    2.5177    0.0990 H   0  0  0  0  0  0  0  0  0  0  0  0
    2.1169   -0.5417   -1.1730 H   0  0  0  0  0  0  0  0  0  0  0  0
   -0.6120   -1.1015   -1.7881 H   0  0  0  0  0  0  0  0  0  0  0  0
  1  2  1  0
  2  3  1  0
  3  4  1  0
  3  5  1  0
  5  6  1  0
  6  7  1  0
  7  8  1  0
  6  9  1  0
  9 10  1  0
  9 11  1  0
 11 12  1  0
 11  2  1  0
  1 13  1  0
  1 14  1  0
  2 15  1  6
  3 16  1  1
  4 17  1  0
  6 18  1  1
  7 19  1  0
  7 20  1  0
  8 21  1  0
  9 22  1  6
 10 23  1  0
 11 24  1  6
 12 25  1  0
M  END
>  <UniqueID>  (193) 
192

>  <SMILES>  (193) 
N[C@H]1[C@H](O)O[C@H](CO)[C@@H](O)[C@@H]1O

>  <Energy>  (193) 
32.20654792536327

>  <Genealogy>  (193) 
N[C@H]1[C@H](O)O[C@H](CO)[C@@H](O)[C@@H]1O (3D coordinates assigned)
N[C@H]1[C@H](O)O[C@H](CO)[C@@H](O)[C@@H]1O (nonaromatic ring conformer: 32.20654792536327 kcal/mol)

$$$$
441038
     RDKit          3D

 33 33  0  0  0  0  0  0  0  0999 V2000
   -2.0709    0.1271    2.8059 C   0  0  0  0  0  0  0  0  0  0  0  0
   -1.1595    0.9170    1.8684 C   0  0  1  0  0  0  0  0  0  0  0  0
   -1.4592    0.5549    0.5299 O   0  0  0  0  0  0  0  0  0  0  0  0
   -0.3382    0.7111   -0.3305 C   0  0  1  0  0  0  0  0  0  0  0  0
    0.3096   -0.6667   -0.5847 C   0  0  2  0  0  0  0  0  0  0  0  0
    0.9064   -1.1356    0.5977 O   0  0  0  0  0  0  0  0  0  0  0  0
    1.3790   -0.5478   -1.6960 C   0  0  1  0  0  0  0  0  0  0  0  0
    2.0002   -1.9155   -2.0283 C   0  0  0  0  0  0  0  0  0  0  0  0
    2.7696   -2.3999   -0.9602 O   0  0  0  0  0  0  0  0  0  0  0  0
    0.7914   -0.0403   -2.8811 O   0  0  0  0  0  0  0  0  0  0  0  0
    0.3418    1.2884   -2.6929 C   0  0  1  0  0  0  0  0  0  0  0  0
   -0.1139    1.7657   -3.9329 O   0  0  0  0  0  0  0  0  0  0  0  0
   -0.8159    1.3180   -1.6677 C   0  0  2  0  0  0  0  0  0  0  0  0
   -1.2755    2.6945   -1.4585 N   0  0  0  0  0  0  0  0  0  0  0  0
   -1.3711    2.3918    2.0655 C   0  0  0  0  0  0  0  0  0  0  0  0
   -2.5044    2.9065    1.8718 O   0  0  0  0  0  0  0  0  0  0  0  0
   -0.3093    3.1989    2.4539 O   0  0  0  0  0  1  0  0  0  0  0  0
   -1.8686    0.4019    3.8635 H   0  0  0  0  0  0  0  0  0  0  0  0
   -3.1394    0.3275    2.5753 H   0  0  0  0  0  0  0  0  0  0  0  0
   -1.8814   -0.9604    2.6828 H   0  0  0  0  0  0  0  0  0  0  0  0
   -0.1133    0.6579    2.1543 H   0  0  0  0  0  0  0  0  0  0  0  0
    0.4374    1.4029    0.0836 H   0  0  0  0  0  0  0  0  0  0  0  0
   -0.4790   -1.3785   -0.9310 H   0  0  0  0  0  0  0  0  0  0  0  0
    0.2121   -1.6450    1.0914 H   0  0  0  0  0  0  0  0  0  0  0  0
    2.2051    0.1211   -1.3564 H   0  0  0  0  0  0  0  0  0  0  0  0
    1.1982   -2.6499   -2.2562 H   0  0  0  0  0  0  0  0  0  0  0  0
    2.6357   -1.8271   -2.9392 H   0  0  0  0  0  0  0  0  0  0  0  0
    3.6124   -1.8751   -0.9555 H   0  0  0  0  0  0  0  0  0  0  0  0
    1.1851    1.9306   -2.3319 H   0  0  0  0  0  0  0  0  0  0  0  0
    0.1012    2.7342   -3.9766 H   0  0  0  0  0  0  0  0  0  0  0  0
   -1.6589    0.7050   -2.0640 H   0  0  0  0  0  0  0  0  0  0  0  0
   -2.0913    2.6743   -0.8056 H   0  0  0  0  0  0  0  0  0  0  0  0
   -1.6626    3.0589   -2.3586 H   0  0  0  0  0  0  0  0  0  0  0  0
  1  2  1  0
  2  3  1  0
  3  4  1  0
  4  5  1  0
  5  6  1  0
  5  7  1  0
  7  8  1  0
  8  9  1  0
  7 10  1  0
 10 11  1  0
 11 12  1  0
 11 13  1  0
 13 14  1  0
  2 15  1  0
 15 16  2  0
 15 17  1  0
 13  4  1  0
  1 18  1  0
  1 19  1  0
  1 20  1  0
  2 21  1  1
  4 22  1  1
  5 23  1  6
  6 24  1  0
  7 25  1  1
  8 26  1  0
  8 27  1  0
  9 28  1  0
 11 29  1  1
 12 30  1  0
 13 31  1  6
 14 32  1  0
 14 33  1  0
M  CHG  1  17  -1
M  END
>  <UniqueID>  (194) 
193

>  <SMILES>  (194) 
C[C@@H](O[C@H]1[C@H](O)[C@@H](CO)O[C@@H](O)[C@@H]1N)C(=O)[O-]

>  <Energy>  (194) 
30.68130442653291

>  <Genealogy>  (194) 
C[C@@H](O[C@H]1[C@H](O)[C@@H](CO)OC(O)[C@@H]1N)C(=O)[O-] (protonated)
C[C@@H](O[C@H]1[C@H](O)[C@@H](CO)O[C@@H](O)[C@@H]1N)C(=O)[O-] (chirality)
C[C@@H](O[C@H]1[C@H](O)[C@@H](CO)O[C@@H](O)[C@@H]1N)C(=O)[O-] (3D coordinates assigned)
C[C@@H](O[C@H]1[C@H](O)[C@@H](CO)O[C@@H](O)[C@@H]1N)C(=O)[O-] (nonaromatic ring conformer: 30.68130442653291 kcal/mol)

$$$$
441038
     RDKit          3D

 34 34  0  0  0  0  0  0  0  0999 V2000
   -2.4348   -1.8508    0.7186 C   0  0  0  0  0  0  0  0  0  0  0  0
   -0.9743   -2.0869    0.3237 C   0  0  1  0  0  0  0  0  0  0  0  0
   -0.1531   -1.0410    0.8176 O   0  0  0  0  0  0  0  0  0  0  0  0
   -0.0999    0.0721   -0.0648 C   0  0  1  0  0  0  0  0  0  0  0  0
   -0.3779    1.3481    0.7475 C   0  0  2  0  0  0  0  0  0  0  0  0
   -1.7149    1.3319    1.1810 O   0  0  0  0  0  0  0  0  0  0  0  0
   -0.1166    2.5944   -0.1320 C   0  0  1  0  0  0  0  0  0  0  0  0
   -0.3570    3.8972    0.6424 C   0  0  0  0  0  0  0  0  0  0  0  0
    0.5099    3.9817    1.7405 O   0  0  0  0  0  0  0  0  0  0  0  0
    1.2208    2.5921   -0.5998 O   0  0  0  0  0  0  0  0  0  0  0  0
    1.4445    1.4980   -1.4725 C   0  0  1  0  0  0  0  0  0  0  0  0
    2.7429    1.6008   -1.9914 O   0  0  0  0  0  0  0  0  0  0  0  0
    1.3061    0.1605   -0.7067 C   0  0  2  0  0  0  0  0  0  0  0  0
    1.5461   -0.9800   -1.6025 N   0  0  0  0  0  4  0  0  0  0  0  0
   -0.5026   -3.3786    0.9208 C   0  0  0  0  0  0  0  0  0  0  0  0
   -0.4158   -4.4129    0.2076 O   0  0  0  0  0  0  0  0  0  0  0  0
   -0.1955   -3.4515    2.2743 O   0  0  0  0  0  1  0  0  0  0  0  0
   -3.0612   -2.7172    0.4152 H   0  0  0  0  0  0  0  0  0  0  0  0
   -2.8299   -0.9488    0.2074 H   0  0  0  0  0  0  0  0  0  0  0  0
   -2.5219   -1.7064    1.8170 H   0  0  0  0  0  0  0  0  0  0  0  0
   -0.9096   -2.1874   -0.7856 H   0  0  0  0  0  0  0  0  0  0  0  0
   -0.8620    0.0318   -0.8821 H   0  0  0  0  0  0  0  0  0  0  0  0
    0.3185    1.3607    1.6215 H   0  0  0  0  0  0  0  0  0  0  0  0
   -1.7366    1.7474    2.0823 H   0  0  0  0  0  0  0  0  0  0  0  0
   -0.8290    2.5973   -0.9909 H   0  0  0  0  0  0  0  0  0  0  0  0
   -0.1768    4.7586   -0.0392 H   0  0  0  0  0  0  0  0  0  0  0  0
   -1.4141    3.9483    0.9862 H   0  0  0  0  0  0  0  0  0  0  0  0
    0.2971    4.8385    2.1937 H   0  0  0  0  0  0  0  0  0  0  0  0
    0.7204    1.5169   -2.3236 H   0  0  0  0  0  0  0  0  0  0  0  0
    2.7522    2.4096   -2.5670 H   0  0  0  0  0  0  0  0  0  0  0  0
    2.0693    0.1434    0.1055 H   0  0  0  0  0  0  0  0  0  0  0  0
    2.4943   -0.9060   -2.0364 H   0  0  0  0  0  0  0  0  0  0  0  0
    0.8250   -1.0121   -2.3598 H   0  0  0  0  0  0  0  0  0  0  0  0
    1.5207   -1.8725   -1.0591 H   0  0  0  0  0  0  0  0  0  0  0  0
  1  2  1  0
  2  3  1  0
  3  4  1  0
  4  5  1  0
  5  6  1  0
  5  7  1  0
  7  8  1  0
  8  9  1  0
  7 10  1  0
 10 11  1  0
 11 12  1  0
 11 13  1  0
 13 14  1  0
  2 15  1  0
 15 16  2  0
 15 17  1  0
 13  4  1  0
  1 18  1  0
  1 19  1  0
  1 20  1  0
  2 21  1  6
  4 22  1  6
  5 23  1  1
  6 24  1  0
  7 25  1  6
  8 26  1  0
  8 27  1  0
  9 28  1  0
 11 29  1  6
 12 30  1  0
 13 31  1  1
 14 32  1  0
 14 33  1  0
 14 34  1  0
M  CHG  2  14   1  17  -1
M  END
>  <UniqueID>  (195) 
194

>  <SMILES>  (195) 
C[C@@H](O[C@H]1[C@H](O)[C@@H](CO)O[C@@H](O)[C@@H]1[NH3+])C(=O)[O-]

>  <Energy>  (195) 
30.82994267703536

>  <Genealogy>  (195) 
C[C@@H](O[C@H]1[C@H](O)[C@@H](CO)OC(O)[C@@H]1[NH3+])C(=O)[O-] (protonated)
C[C@@H](O[C@H]1[C@H](O)[C@@H](CO)O[C@@H](O)[C@@H]1[NH3+])C(=O)[O-] (chirality)
C[C@@H](O[C@H]1[C@H](O)[C@@H](CO)O[C@@H](O)[C@@H]1[NH3+])C(=O)[O-] (3D coordinates assigned)
C[C@@H](O[C@H]1[C@H](O)[C@@H](CO)O[C@@H](O)[C@@H]1[NH3+])C(=O)[O-] (nonaromatic ring conformer: 30.82994267703536 kcal/mol)

$$$$
441038
     RDKit          3D

 33 33  0  0  0  0  0  0  0  0999 V2000
   -1.8181   -0.4923    2.1787 C   0  0  0  0  0  0  0  0  0  0  0  0
   -1.0871    0.7493    1.6761 C   0  0  1  0  0  0  0  0  0  0  0  0
   -0.9166    0.6374    0.2734 O   0  0  0  0  0  0  0  0  0  0  0  0
    0.2233    1.3510   -0.1830 C   0  0  1  0  0  0  0  0  0  0  0  0
    1.4538    0.4245   -0.2269 C   0  0  2  0  0  0  0  0  0  0  0  0
    2.6111    1.2091   -0.3758 O   0  0  0  0  0  0  0  0  0  0  0  0
    1.3711   -0.6067   -1.3837 C   0  0  1  0  0  0  0  0  0  0  0  0
    0.5282   -1.8535   -1.0390 C   0  0  0  0  0  0  0  0  0  0  0  0
    0.5611   -2.7749   -2.0954 O   0  0  0  0  0  0  0  0  0  0  0  0
    1.0317   -0.0306   -2.6418 O   0  0  0  0  0  0  0  0  0  0  0  0
   -0.1429    0.7687   -2.6245 C   0  0  1  0  0  0  0  0  0  0  0  0
   -1.2867   -0.0257   -2.4401 O   0  0  0  0  0  0  0  0  0  0  0  0
   -0.0706    1.9116   -1.5861 C   0  0  2  0  0  0  0  0  0  0  0  0
    0.9555    2.8826   -1.9801 N   0  0  0  0  0  0  0  0  0  0  0  0
   -1.8899    1.9765    2.0020 C   0  0  0  0  0  0  0  0  0  0  0  0
   -2.8886    2.2897    1.3012 O   0  0  0  0  0  0  0  0  0  0  0  0
   -1.5552    2.7516    3.1051 O   0  0  0  0  0  1  0  0  0  0  0  0
   -1.2134   -1.3972    1.9556 H   0  0  0  0  0  0  0  0  0  0  0  0
   -1.9706   -0.4329    3.2779 H   0  0  0  0  0  0  0  0  0  0  0  0
   -2.8055   -0.5934    1.6786 H   0  0  0  0  0  0  0  0  0  0  0  0
   -0.1129    0.7921    2.2182 H   0  0  0  0  0  0  0  0  0  0  0  0
    0.4501    2.2221    0.4799 H   0  0  0  0  0  0  0  0  0  0  0  0
    1.5176   -0.1200    0.7443 H   0  0  0  0  0  0  0  0  0  0  0  0
    3.3775    0.6612   -0.0615 H   0  0  0  0  0  0  0  0  0  0  0  0
    2.4031   -1.0039   -1.5068 H   0  0  0  0  0  0  0  0  0  0  0  0
   -0.5190   -1.6042   -0.7710 H   0  0  0  0  0  0  0  0  0  0  0  0
    0.9673   -2.3445   -0.1443 H   0  0  0  0  0  0  0  0  0  0  0  0
   -0.1195   -2.4794   -2.7543 H   0  0  0  0  0  0  0  0  0  0  0  0
   -0.2182    1.2352   -3.6336 H   0  0  0  0  0  0  0  0  0  0  0  0
   -2.0698    0.5274   -2.6984 H   0  0  0  0  0  0  0  0  0  0  0  0
   -1.0548    2.4341   -1.5577 H   0  0  0  0  0  0  0  0  0  0  0  0
    0.9359    3.6796   -1.3028 H   0  0  0  0  0  0  0  0  0  0  0  0
    0.6871    3.2933   -2.9041 H   0  0  0  0  0  0  0  0  0  0  0  0
  1  2  1  0
  2  3  1  0
  3  4  1  0
  4  5  1  0
  5  6  1  0
  5  7  1  0
  7  8  1  0
  8  9  1  0
  7 10  1  0
 10 11  1  0
 11 12  1  0
 11 13  1  0
 13 14  1  0
  2 15  1  0
 15 16  2  0
 15 17  1  0
 13  4  1  0
  1 18  1  0
  1 19  1  0
  1 20  1  0
  2 21  1  1
  4 22  1  1
  5 23  1  1
  6 24  1  0
  7 25  1  6
  8 26  1  0
  8 27  1  0
  9 28  1  0
 11 29  1  6
 12 30  1  0
 13 31  1  1
 14 32  1  0
 14 33  1  0
M  CHG  1  17  -1
M  END
>  <UniqueID>  (196) 
195

>  <SMILES>  (196) 
C[C@@H](O[C@H]1[C@H](O)[C@@H](CO)O[C@@H](O)[C@@H]1N)C(=O)[O-]

>  <Energy>  (196) 
37.59573955444921

>  <Genealogy>  (196) 
C[C@@H](O[C@H]1[C@H](O)[C@@H](CO)OC(O)[C@@H]1N)C(=O)[O-] (protonated)
C[C@@H](O[C@H]1[C@H](O)[C@@H](CO)O[C@@H](O)[C@@H]1N)C(=O)[O-] (chirality)
C[C@@H](O[C@H]1[C@H](O)[C@@H](CO)O[C@@H](O)[C@@H]1N)C(=O)[O-] (3D coordinates assigned)
C[C@@H](O[C@H]1[C@H](O)[C@@H](CO)O[C@@H](O)[C@@H]1N)C(=O)[O-] (nonaromatic ring conformer: 37.59573955444921 kcal/mol)

$$$$
440552
     RDKit          3D

 30 30  0  0  0  0  0  0  0  0999 V2000
   -3.7545    0.2982   -0.0670 C   0  0  0  0  0  0  0  0  0  0  0  0
   -2.4672   -0.4486    0.0624 C   0  0  0  0  0  0  0  0  0  0  0  0
   -2.3015   -1.2387    1.0308 O   0  0  0  0  0  0  0  0  0  0  0  0
   -1.4196   -0.2364   -0.8943 N   0  0  0  0  0  0  0  0  0  0  0  0
   -0.1012   -0.8691   -0.7838 C   0  0  1  0  0  0  0  0  0  0  0  0
    0.3931   -1.3179   -2.1786 C   0  0  2  0  0  0  0  0  0  0  0  0
   -0.4709   -2.3006   -2.6863 O   0  0  0  0  0  0  0  0  0  0  0  0
    1.6911   -1.8802   -2.0860 O   0  0  0  0  0  0  0  0  0  0  0  0
    2.6298   -0.9021   -1.6693 C   0  0  2  0  0  0  0  0  0  0  0  0
    4.0431   -1.4825   -1.7886 C   0  0  0  0  0  0  0  0  0  0  0  0
    4.3247   -1.7611   -3.1322 O   0  0  0  0  0  0  0  0  0  0  0  0
    2.3270   -0.4510   -0.2220 C   0  0  2  0  0  0  0  0  0  0  0  0
    2.4310   -1.5389    0.6646 O   0  0  0  0  0  0  0  0  0  0  0  0
    0.8999    0.1225   -0.1635 C   0  0  2  0  0  0  0  0  0  0  0  0
    0.5365    0.3886    1.1668 O   0  0  0  0  0  0  0  0  0  0  0  0
   -4.1228    0.2317   -1.1121 H   0  0  0  0  0  0  0  0  0  0  0  0
   -3.5910    1.3639    0.1960 H   0  0  0  0  0  0  0  0  0  0  0  0
   -4.5236   -0.1295    0.6108 H   0  0  0  0  0  0  0  0  0  0  0  0
   -1.5612    0.4955   -1.6277 H   0  0  0  0  0  0  0  0  0  0  0  0
   -0.1628   -1.7745   -0.1387 H   0  0  0  0  0  0  0  0  0  0  0  0
    0.4061   -0.4475   -2.8814 H   0  0  0  0  0  0  0  0  0  0  0  0
   -1.2581   -1.8301   -3.0669 H   0  0  0  0  0  0  0  0  0  0  0  0
    2.5931   -0.0110   -2.3406 H   0  0  0  0  0  0  0  0  0  0  0  0
    4.1205   -2.4193   -1.1924 H   0  0  0  0  0  0  0  0  0  0  0  0
    4.7825   -0.7458   -1.4010 H   0  0  0  0  0  0  0  0  0  0  0  0
    5.2460   -2.1299   -3.1498 H   0  0  0  0  0  0  0  0  0  0  0  0
    3.0370    0.3604    0.0686 H   0  0  0  0  0  0  0  0  0  0  0  0
    3.3594   -1.5419    1.0161 H   0  0  0  0  0  0  0  0  0  0  0  0
    0.8696    1.0698   -0.7538 H   0  0  0  0  0  0  0  0  0  0  0  0
    1.0341    1.2027    1.4416 H   0  0  0  0  0  0  0  0  0  0  0  0
  1  2  1  0
  2  3  2  0
  2  4  1  0
  4  5  1  0
  5  6  1  0
  6  7  1  0
  6  8  1  0
  8  9  1  0
  9 10  1  0
 10 11  1  0
  9 12  1  0
 12 13  1  0
 12 14  1  0
 14 15  1  0
 14  5  1  0
  1 16  1  0
  1 17  1  0
  1 18  1  0
  4 19  1  0
  5 20  1  1
  6 21  1  6
  7 22  1  0
  9 23  1  6
 10 24  1  0
 10 25  1  0
 11 26  1  0
 12 27  1  1
 13 28  1  0
 14 29  1  6
 15 30  1  0
M  END
>  <UniqueID>  (197) 
196

>  <SMILES>  (197) 
CC(=O)N[C@H]1[C@H](O)O[C@H](CO)[C@H](O)[C@@H]1O

>  <Energy>  (197) 
23.527024054217605

>  <Genealogy>  (197) 
CC(=O)N[C@H]1[C@H](O)O[C@H](CO)[C@H](O)[C@@H]1O (3D coordinates assigned)
CC(=O)N[C@H]1[C@H](O)O[C@H](CO)[C@H](O)[C@@H]1O (nonaromatic ring conformer: 23.527024054217605 kcal/mol)

$$$$
440552
     RDKit          3D

 30 30  0  0  0  0  0  0  0  0999 V2000
   -3.8320    0.1435   -0.2870 C   0  0  0  0  0  0  0  0  0  0  0  0
   -2.5446   -0.6009   -0.1450 C   0  0  0  0  0  0  0  0  0  0  0  0
   -2.5486   -1.7600    0.3510 O   0  0  0  0  0  0  0  0  0  0  0  0
   -1.3221   -0.0065   -0.6040 N   0  0  0  0  0  0  0  0  0  0  0  0
   -0.0328   -0.7057   -0.5714 C   0  0  1  0  0  0  0  0  0  0  0  0
    0.3168   -1.2266   -1.9798 C   0  0  2  0  0  0  0  0  0  0  0  0
   -0.6559   -2.1556   -2.3742 O   0  0  0  0  0  0  0  0  0  0  0  0
    1.5832   -1.8663   -1.9731 O   0  0  0  0  0  0  0  0  0  0  0  0
    2.6108   -0.9289   -1.6971 C   0  0  2  0  0  0  0  0  0  0  0  0
    3.9726   -1.6023   -1.8981 C   0  0  0  0  0  0  0  0  0  0  0  0
    4.1109   -1.9934   -3.2360 O   0  0  0  0  0  0  0  0  0  0  0  0
    2.4683   -0.3713   -0.2581 C   0  0  2  0  0  0  0  0  0  0  0  0
    2.7245   -1.3543    0.7183 O   0  0  0  0  0  0  0  0  0  0  0  0
    1.0674    0.2506   -0.0720 C   0  0  2  0  0  0  0  0  0  0  0  0
    0.8431    0.5600    1.2794 O   0  0  0  0  0  0  0  0  0  0  0  0
   -3.7077    1.1815    0.0861 H   0  0  0  0  0  0  0  0  0  0  0  0
   -4.1258    0.1721   -1.3568 H   0  0  0  0  0  0  0  0  0  0  0  0
   -4.6361   -0.3523    0.2974 H   0  0  0  0  0  0  0  0  0  0  0  0
   -1.3757    0.9179   -1.0898 H   0  0  0  0  0  0  0  0  0  0  0  0
   -0.0873   -1.5724    0.1239 H   0  0  0  0  0  0  0  0  0  0  0  0
    0.3063   -0.3756   -2.7044 H   0  0  0  0  0  0  0  0  0  0  0  0
   -0.4596   -2.3828   -3.3204 H   0  0  0  0  0  0  0  0  0  0  0  0
    2.5650   -0.0776   -2.4176 H   0  0  0  0  0  0  0  0  0  0  0  0
    4.7840   -0.8862   -1.6364 H   0  0  0  0  0  0  0  0  0  0  0  0
    4.0552   -2.4962   -1.2398 H   0  0  0  0  0  0  0  0  0  0  0  0
    5.0045   -2.4192   -3.3076 H   0  0  0  0  0  0  0  0  0  0  0  0
    3.2196    0.4377   -0.1229 H   0  0  0  0  0  0  0  0  0  0  0  0
    2.1347   -2.1310    0.5388 H   0  0  0  0  0  0  0  0  0  0  0  0
    1.0196    1.1862   -0.6794 H   0  0  0  0  0  0  0  0  0  0  0  0
    1.4034    1.3528    1.4877 H   0  0  0  0  0  0  0  0  0  0  0  0
  1  2  1  0
  2  3  2  0
  2  4  1  0
  4  5  1  0
  5  6  1  0
  6  7  1  0
  6  8  1  0
  8  9  1  0
  9 10  1  0
 10 11  1  0
  9 12  1  0
 12 13  1  0
 12 14  1  0
 14 15  1  0
 14  5  1  0
  1 16  1  0
  1 17  1  0
  1 18  1  0
  4 19  1  0
  5 20  1  1
  6 21  1  6
  7 22  1  0
  9 23  1  6
 10 24  1  0
 10 25  1  0
 11 26  1  0
 12 27  1  6
 13 28  1  0
 14 29  1  6
 15 30  1  0
M  END
>  <UniqueID>  (198) 
197

>  <SMILES>  (198) 
CC(=O)N[C@H]1[C@H](O)O[C@H](CO)[C@H](O)[C@@H]1O

>  <Energy>  (198) 
24.36579243149664

>  <Genealogy>  (198) 
CC(=O)N[C@H]1[C@H](O)O[C@H](CO)[C@H](O)[C@@H]1O (3D coordinates assigned)
CC(=O)N[C@H]1[C@H](O)O[C@H](CO)[C@H](O)[C@@H]1O (nonaromatic ring conformer: 24.36579243149664 kcal/mol)

$$$$
440552
     RDKit          3D

 30 30  0  0  0  0  0  0  0  0999 V2000
   -0.1547   -0.9510   -3.9299 H   0  0  0  0  0  0  0  0  0  0  0  0
    0.0133   -0.7001   -2.9630 O   0  0  0  0  0  0  0  0  0  0  0  0
   -0.4851   -1.4779   -1.9181 C   0  0  0  0  0  0  0  0  0  0  0  0
   -0.2463   -1.1594   -0.6809 N   0  0  0  0  0  0  0  0  0  0  0  0
    0.5101    0.0206   -0.2535 C   0  0  1  0  0  0  0  0  0  0  0  0
    1.3177    0.2451   -0.9877 H   0  0  0  0  0  0  0  0  0  0  0  0
   -0.4239    1.2492   -0.1261 C   0  0  2  0  0  0  0  0  0  0  0  0
   -1.2685    1.0118    0.5693 H   0  0  0  0  0  0  0  0  0  0  0  0
   -0.9428    1.5827   -1.3869 O   0  0  0  0  0  0  0  0  0  0  0  0
   -1.7836    1.0680   -1.5059 H   0  0  0  0  0  0  0  0  0  0  0  0
    0.2965    2.3702    0.3580 O   0  0  0  0  0  0  0  0  0  0  0  0
    0.7601    2.1361    1.6775 C   0  0  2  0  0  0  0  0  0  0  0  0
   -0.0863    1.8507    2.3468 H   0  0  0  0  0  0  0  0  0  0  0  0
    1.3520    3.4366    2.2396 C   0  0  0  0  0  0  0  0  0  0  0  0
    2.1799    3.7878    1.5876 H   0  0  0  0  0  0  0  0  0  0  0  0
    1.7705    3.2630    3.2577 H   0  0  0  0  0  0  0  0  0  0  0  0
    0.3725    4.4389    2.2863 O   0  0  0  0  0  0  0  0  0  0  0  0
   -0.2054    4.2361    3.0677 H   0  0  0  0  0  0  0  0  0  0  0  0
    1.8078    1.0029    1.6819 C   0  0  2  0  0  0  0  0  0  0  0  0
    2.1198    0.8096    2.7359 H   0  0  0  0  0  0  0  0  0  0  0  0
    2.9201    1.3779    0.9066 O   0  0  0  0  0  0  0  0  0  0  0  0
    3.6910    0.8416    1.2286 H   0  0  0  0  0  0  0  0  0  0  0  0
    1.1640   -0.2745    1.1074 C   0  0  2  0  0  0  0  0  0  0  0  0
    0.3703   -0.6220    1.8119 H   0  0  0  0  0  0  0  0  0  0  0  0
    2.1271   -1.2857    0.9570 O   0  0  0  0  0  0  0  0  0  0  0  0
    2.3433   -1.6121    1.8695 H   0  0  0  0  0  0  0  0  0  0  0  0
   -1.2689   -2.7139   -2.2209 C   0  0  0  0  0  0  0  0  0  0  0  0
   -1.9496   -2.5273   -3.0777 H   0  0  0  0  0  0  0  0  0  0  0  0
   -0.5722   -3.5374   -2.4813 H   0  0  0  0  0  0  0  0  0  0  0  0
   -1.8792   -3.0165   -1.3432 H   0  0  0  0  0  0  0  0  0  0  0  0
  1  2  1  0
  2  3  1  0
  3  4  2  0
  4  5  1  0
  5  6  1  6
  5  7  1  0
  7  8  1  1
  7  9  1  0
  9 10  1  0
  7 11  1  0
 11 12  1  0
 12 13  1  1
 12 14  1  0
 14 15  1  0
 14 16  1  0
 14 17  1  0
 17 18  1  0
 12 19  1  0
 19 20  1  1
 19 21  1  0
 21 22  1  0
 19 23  1  0
 23 24  1  1
 23 25  1  0
 25 26  1  0
  3 27  1  0
 27 28  1  0
 27 29  1  0
 27 30  1  0
 23  5  1  0
M  END
>  <UniqueID>  (199) 
198

>  <SMILES>  (199) 
C/C(O)=N/[C@H]1[C@H](O)O[C@H](CO)[C@H](O)[C@@H]1O

>  <Energy>  (199) 
24.65598774772963

>  <Genealogy>  (199) 
CC(O)=N[C@H]1[C@H](O)O[C@H](CO)[C@H](O)[C@@H]1O (tautomer)
C/C(O)=N/[C@H]1[C@H](O)O[C@H](CO)[C@H](O)[C@@H]1O (cis-trans isomerization)
C/C(O)=N/[C@H]1[C@H](O)O[C@H](CO)[C@H](O)[C@@H]1O (3D coordinates assigned)
C/C(O)=N/[C@H]1[C@H](O)O[C@H](CO)[C@H](O)[C@@H]1O (nonaromatic ring conformer: 24.65598774772963 kcal/mol)

$$$$
440271
     RDKit          3D

 33 33  0  0  0  0  0  0  0  0999 V2000
   -4.2707   -2.6366   -2.0555 C   0  0  0  0  0  0  0  0  0  0  0  0
   -2.8399   -2.2093   -2.0147 C   0  0  0  0  0  0  0  0  0  0  0  0
   -2.0048   -2.7600   -2.7822 O   0  0  0  0  0  0  0  0  0  0  0  0
   -2.4345   -1.1557   -1.1295 N   0  0  0  0  0  0  0  0  0  0  0  0
   -1.0674   -0.6261   -1.0953 C   0  0  1  0  0  0  0  0  0  0  0  0
   -0.9965    0.7030   -1.8813 C   0  0  2  0  0  0  0  0  0  0  0  0
   -1.3403    0.4865   -3.2247 O   0  0  0  0  0  0  0  0  0  0  0  0
    0.3071    1.2618   -1.8160 O   0  0  0  0  0  0  0  0  0  0  0  0
    0.6320    1.6100   -0.4798 C   0  0  2  0  0  0  0  0  0  0  0  0
    1.9542    2.3852   -0.4726 C   0  0  0  0  0  0  0  0  0  0  0  0
    1.7944    3.5770   -1.2051 O   0  0  0  0  0  0  0  0  0  0  0  0
    3.2661    4.4175   -1.1963 S   0  0  0  0  0  6  0  0  0  0  0  0
    4.3420    3.5947   -1.8491 O   0  0  0  0  0  0  0  0  0  0  0  0
    3.6692    4.7527    0.2129 O   0  0  0  0  0  0  0  0  0  0  0  0
    3.0759    5.8451   -2.0600 O   0  0  0  0  0  1  0  0  0  0  0  0
    0.7241    0.3427    0.3998 C   0  0  2  0  0  0  0  0  0  0  0  0
    1.7480   -0.4958   -0.0771 O   0  0  0  0  0  0  0  0  0  0  0  0
   -0.6300   -0.3943    0.3622 C   0  0  2  0  0  0  0  0  0  0  0  0
   -0.5392   -1.6277    1.0275 O   0  0  0  0  0  0  0  0  0  0  0  0
   -4.6448   -2.7926   -1.0221 H   0  0  0  0  0  0  0  0  0  0  0  0
   -4.3786   -3.5861   -2.6217 H   0  0  0  0  0  0  0  0  0  0  0  0
   -4.8771   -1.8489   -2.5489 H   0  0  0  0  0  0  0  0  0  0  0  0
   -3.1735   -0.6645   -0.5762 H   0  0  0  0  0  0  0  0  0  0  0  0
   -0.3611   -1.3530   -1.5560 H   0  0  0  0  0  0  0  0  0  0  0  0
   -1.7423    1.4199   -1.4663 H   0  0  0  0  0  0  0  0  0  0  0  0
   -0.6126   -0.0546   -3.6296 H   0  0  0  0  0  0  0  0  0  0  0  0
   -0.1422    2.2923   -0.0540 H   0  0  0  0  0  0  0  0  0  0  0  0
    2.7473    1.7517   -0.9299 H   0  0  0  0  0  0  0  0  0  0  0  0
    2.2251    2.6152    0.5827 H   0  0  0  0  0  0  0  0  0  0  0  0
    0.9380    0.6526    1.4504 H   0  0  0  0  0  0  0  0  0  0  0  0
    2.0326   -1.0662    0.6839 H   0  0  0  0  0  0  0  0  0  0  0  0
   -1.3950    0.2433    0.8668 H   0  0  0  0  0  0  0  0  0  0  0  0
   -0.4945   -1.4255    1.9986 H   0  0  0  0  0  0  0  0  0  0  0  0
  1  2  1  0
  2  3  2  0
  2  4  1  0
  4  5  1  0
  5  6  1  0
  6  7  1  0
  6  8  1  0
  8  9  1  0
  9 10  1  0
 10 11  1  0
 11 12  1  0
 12 13  2  0
 12 14  2  0
 12 15  1  0
  9 16  1  0
 16 17  1  0
 16 18  1  0
 18 19  1  0
 18  5  1  0
  1 20  1  0
  1 21  1  0
  1 22  1  0
  4 23  1  0
  5 24  1  6
  6 25  1  1
  7 26  1  0
  9 27  1  1
 10 28  1  0
 10 29  1  0
 16 30  1  1
 17 31  1  0
 18 32  1  1
 19 33  1  0
M  CHG  1  15  -1
M  END
>  <UniqueID>  (200) 
199

>  <SMILES>  (200) 
CC(=O)N[C@H]1[C@H](O)O[C@H](COS(=O)(=O)[O-])[C@H](O)[C@@H]1O

>  <Energy>  (200) 
27.517248526670166

>  <Genealogy>  (200) 
CC(=O)N[C@H]1[C@H](O)O[C@H](COS(=O)(=O)[O-])[C@H](O)[C@@H]1O (protonated)
CC(=O)N[C@H]1[C@H](O)O[C@H](COS(=O)(=O)[O-])[C@H](O)[C@@H]1O (3D coordinates assigned)
CC(=O)N[C@H]1[C@H](O)O[C@H](COS(=O)(=O)[O-])[C@H](O)[C@@H]1O (nonaromatic ring conformer: 27.517248526670166 kcal/mol)

$$$$
440271
     RDKit          3D

 33 33  0  0  0  0  0  0  0  0999 V2000
   -4.8837   -1.0994   -0.6797 C   0  0  0  0  0  0  0  0  0  0  0  0
   -3.6703   -0.2622   -0.4337 C   0  0  0  0  0  0  0  0  0  0  0  0
   -3.8141    1.0469    0.0252 O   0  0  0  0  0  0  0  0  0  0  0  0
   -2.4909   -0.7707   -0.6330 N   0  0  0  0  0  0  0  0  0  0  0  0
   -1.2267   -0.0657   -0.4039 C   0  0  1  0  0  0  0  0  0  0  0  0
   -0.7929   -0.2144    1.0721 C   0  0  2  0  0  0  0  0  0  0  0  0
   -1.7388    0.4084    1.8976 O   0  0  0  0  0  0  0  0  0  0  0  0
    0.4679    0.3996    1.2858 O   0  0  0  0  0  0  0  0  0  0  0  0
    1.4827   -0.2856    0.5723 C   0  0  2  0  0  0  0  0  0  0  0  0
    2.8471    0.2702    0.9988 C   0  0  0  0  0  0  0  0  0  0  0  0
    3.8745   -0.4441    0.3534 O   0  0  0  0  0  0  0  0  0  0  0  0
    5.3576    0.2570    0.7739 S   0  0  0  0  0  6  0  0  0  0  0  0
    5.4591    1.6378    0.1883 O   0  0  0  0  0  0  0  0  0  0  0  0
    6.4681   -0.5906    0.2219 O   0  0  0  0  0  0  0  0  0  0  0  0
    5.5174    0.3383    2.4455 O   0  0  0  0  0  1  0  0  0  0  0  0
    1.2568   -0.1461   -0.9553 C   0  0  2  0  0  0  0  0  0  0  0  0
    1.4480    1.1777   -1.3986 O   0  0  0  0  0  0  0  0  0  0  0  0
   -0.1462   -0.6635   -1.3285 C   0  0  2  0  0  0  0  0  0  0  0  0
   -0.4205   -0.3463   -2.6695 O   0  0  0  0  0  0  0  0  0  0  0  0
   -5.2866   -1.4575    0.2903 H   0  0  0  0  0  0  0  0  0  0  0  0
   -4.6355   -1.9756   -1.3163 H   0  0  0  0  0  0  0  0  0  0  0  0
   -5.6585   -0.4946   -1.1954 H   0  0  0  0  0  0  0  0  0  0  0  0
   -4.7299    1.4450    0.1952 H   0  0  0  0  0  0  0  0  0  0  0  0
   -1.3454    1.0137   -0.6499 H   0  0  0  0  0  0  0  0  0  0  0  0
   -0.7554   -1.2996    1.3375 H   0  0  0  0  0  0  0  0  0  0  0  0
   -1.4844    0.1893    2.8318 H   0  0  0  0  0  0  0  0  0  0  0  0
    1.4809   -1.3684    0.8429 H   0  0  0  0  0  0  0  0  0  0  0  0
    2.9363    0.1500    2.1017 H   0  0  0  0  0  0  0  0  0  0  0  0
    2.8937    1.3550    0.7516 H   0  0  0  0  0  0  0  0  0  0  0  0
    2.0002   -0.7847   -1.4810 H   0  0  0  0  0  0  0  0  0  0  0  0
    0.8586    1.7713   -0.8659 H   0  0  0  0  0  0  0  0  0  0  0  0
   -0.1379   -1.7732   -1.2006 H   0  0  0  0  0  0  0  0  0  0  0  0
   -1.1314   -0.9685   -2.9749 H   0  0  0  0  0  0  0  0  0  0  0  0
  1  2  1  0
  2  3  1  0
  2  4  2  3
  4  5  1  0
  5  6  1  0
  6  7  1  0
  6  8  1  0
  8  9  1  0
  9 10  1  0
 10 11  1  0
 11 12  1  0
 12 13  2  0
 12 14  2  0
 12 15  1  0
  9 16  1  0
 16 17  1  0
 16 18  1  0
 18 19  1  0
 18  5  1  0
  1 20  1  0
  1 21  1  0
  1 22  1  0
  3 23  1  0
  5 24  1  6
  6 25  1  1
  7 26  1  0
  9 27  1  1
 10 28  1  0
 10 29  1  0
 16 30  1  6
 17 31  1  0
 18 32  1  6
 19 33  1  0
M  CHG  1  15  -1
M  END
>  <UniqueID>  (201) 
200

>  <SMILES>  (201) 
CC(O)=N[C@H]1[C@H](O)O[C@H](COS(=O)(=O)[O-])[C@H](O)[C@@H]1O

>  <Energy>  (201) 
29.092655180657623

>  <Genealogy>  (201) 
CC(=O)N[C@H]1[C@H](O)O[C@H](COS(=O)(=O)[O-])[C@H](O)[C@@H]1O (protonated)
CC(O)=N[C@H]1[C@H](O)O[C@H](COS(=O)(=O)[O-])[C@H](O)[C@@H]1O (tautomer)
CC(O)=N[C@H]1[C@H](O)O[C@H](COS(=O)(=O)[O-])[C@H](O)[C@@H]1O (3D coordinates assigned)
CC(O)=N[C@H]1[C@H](O)O[C@H](COS(=O)(=O)[O-])[C@H](O)[C@@H]1O (nonaromatic ring conformer: 29.092655180657623 kcal/mol)

$$$$
440271
     RDKit          3D

 33 33  0  0  0  0  0  0  0  0999 V2000
   -4.1566   -1.8176   -1.1369 C   0  0  0  0  0  0  0  0  0  0  0  0
   -3.2930   -0.6238   -0.8866 C   0  0  0  0  0  0  0  0  0  0  0  0
   -3.5471    0.5700   -1.5614 O   0  0  0  0  0  0  0  0  0  0  0  0
   -2.2961   -0.7173   -0.0581 N   0  0  0  0  0  0  0  0  0  0  0  0
   -1.3658    0.3737    0.2459 C   0  0  1  0  0  0  0  0  0  0  0  0
   -0.6328    0.0525    1.5641 C   0  0  2  0  0  0  0  0  0  0  0  0
    0.0840    1.1623    2.0428 O   0  0  0  0  0  0  0  0  0  0  0  0
    0.2102   -1.0864    1.4543 O   0  0  0  0  0  0  0  0  0  0  0  0
    1.2017   -0.9821    0.4371 C   0  0  2  0  0  0  0  0  0  0  0  0
    2.3974   -0.1078    0.8761 C   0  0  0  0  0  0  0  0  0  0  0  0
    3.5425   -0.4645    0.1367 O   0  0  0  0  0  0  0  0  0  0  0  0
    4.8255    0.5394    0.6045 S   0  0  0  0  0  6  0  0  0  0  0  0
    4.5144    1.9720    0.2706 O   0  0  0  0  0  0  0  0  0  0  0  0
    5.0846    0.4074    2.0798 O   0  0  0  0  0  0  0  0  0  0  0  0
    6.2054    0.0745   -0.2319 O   0  0  0  0  0  1  0  0  0  0  0  0
    0.6052   -0.6354   -0.9563 C   0  0  2  0  0  0  0  0  0  0  0  0
    1.6166   -0.3871   -1.8992 O   0  0  0  0  0  0  0  0  0  0  0  0
   -0.3577    0.5591   -0.9037 C   0  0  2  0  0  0  0  0  0  0  0  0
    0.3566    1.7584   -0.7450 O   0  0  0  0  0  0  0  0  0  0  0  0
   -4.0529   -2.5573   -0.3143 H   0  0  0  0  0  0  0  0  0  0  0  0
   -5.2199   -1.5055   -1.2010 H   0  0  0  0  0  0  0  0  0  0  0  0
   -3.8578   -2.2936   -2.0937 H   0  0  0  0  0  0  0  0  0  0  0  0
   -4.3123    0.6468   -2.2206 H   0  0  0  0  0  0  0  0  0  0  0  0
   -1.9472    1.3130    0.3883 H   0  0  0  0  0  0  0  0  0  0  0  0
   -1.4106   -0.2033    2.3204 H   0  0  0  0  0  0  0  0  0  0  0  0
   -0.5842    1.8281    2.3526 H   0  0  0  0  0  0  0  0  0  0  0  0
    1.6164   -2.0093    0.3313 H   0  0  0  0  0  0  0  0  0  0  0  0
    2.5786   -0.2930    1.9586 H   0  0  0  0  0  0  0  0  0  0  0  0
    2.1638    0.9660    0.7301 H   0  0  0  0  0  0  0  0  0  0  0  0
    0.0090   -1.5165   -1.2947 H   0  0  0  0  0  0  0  0  0  0  0  0
    2.0297   -1.2642   -2.1141 H   0  0  0  0  0  0  0  0  0  0  0  0
   -0.9033    0.5965   -1.8754 H   0  0  0  0  0  0  0  0  0  0  0  0
   -0.2657    2.4969   -0.9759 H   0  0  0  0  0  0  0  0  0  0  0  0
  1  2  1  0
  2  3  1  0
  2  4  2  3
  4  5  1  0
  5  6  1  0
  6  7  1  0
  6  8  1  0
  8  9  1  0
  9 10  1  0
 10 11  1  0
 11 12  1  0
 12 13  2  0
 12 14  2  0
 12 15  1  0
  9 16  1  0
 16 17  1  0
 16 18  1  0
 18 19  1  0
 18  5  1  0
  1 20  1  0
  1 21  1  0
  1 22  1  0
  3 23  1  0
  5 24  1  1
  6 25  1  1
  7 26  1  0
  9 27  1  6
 10 28  1  0
 10 29  1  0
 16 30  1  6
 17 31  1  0
 18 32  1  6
 19 33  1  0
M  CHG  1  15  -1
M  END
>  <UniqueID>  (202) 
201

>  <SMILES>  (202) 
CC(O)=N[C@H]1[C@H](O)O[C@H](COS(=O)(=O)[O-])[C@H](O)[C@@H]1O

>  <Energy>  (202) 
36.02117286945129

>  <Genealogy>  (202) 
CC(=O)N[C@H]1[C@H](O)O[C@H](COS(=O)(=O)[O-])[C@H](O)[C@@H]1O (protonated)
CC(O)=N[C@H]1[C@H](O)O[C@H](COS(=O)(=O)[O-])[C@H](O)[C@@H]1O (tautomer)
CC(O)=N[C@H]1[C@H](O)O[C@H](COS(=O)(=O)[O-])[C@H](O)[C@@H]1O (3D coordinates assigned)
CC(O)=N[C@H]1[C@H](O)O[C@H](COS(=O)(=O)[O-])[C@H](O)[C@@H]1O (nonaromatic ring conformer: 36.02117286945129 kcal/mol)

$$$$
440235
     RDKit          3D

 33 33  0  0  0  0  0  0  0  0999 V2000
   -1.7770    1.2694    4.1031 H   0  0  0  0  0  0  0  0  0  0  0  0
   -1.3829    0.7033    3.3613 O   0  0  0  0  0  0  0  0  0  0  0  0
   -2.0152   -0.4625    2.9299 C   0  0  0  0  0  0  0  0  0  0  0  0
   -1.5111   -1.1741    1.9663 N   0  0  0  0  0  0  0  0  0  0  0  0
   -0.2793   -0.8467    1.2439 C   0  0  1  0  0  0  0  0  0  0  0  0
    0.4635   -0.3903    1.9381 H   0  0  0  0  0  0  0  0  0  0  0  0
    0.3291   -2.1434    0.6722 C   0  0  2  0  0  0  0  0  0  0  0  0
   -0.4191   -2.6509    0.0195 H   0  0  0  0  0  0  0  0  0  0  0  0
    0.6327   -3.0328    1.7151 O   0  0  0  0  0  0  0  0  0  0  0  0
    1.3880   -2.6394    2.2260 H   0  0  0  0  0  0  0  0  0  0  0  0
    1.5096   -1.8613   -0.0606 O   0  0  0  0  0  0  0  0  0  0  0  0
    1.2086   -1.0905   -1.2121 C   0  0  2  0  0  0  0  0  0  0  0  0
    0.4538   -1.6132   -1.8467 H   0  0  0  0  0  0  0  0  0  0  0  0
    2.4863   -0.9516   -2.0486 C   0  0  0  0  0  0  0  0  0  0  0  0
    2.2581   -0.3540   -2.9597 H   0  0  0  0  0  0  0  0  0  0  0  0
    3.2545   -0.4224   -1.4406 H   0  0  0  0  0  0  0  0  0  0  0  0
    2.9433   -2.2328   -2.4108 O   0  0  0  0  0  0  0  0  0  0  0  0
    4.3441   -2.0558   -3.3465 S   0  0  0  0  0  6  0  0  0  0  0  0
    4.0188   -1.3601   -4.6389 O   0  0  0  0  0  0  0  0  0  0  0  0
    4.8979   -3.4184   -3.6517 O   0  0  0  0  0  0  0  0  0  0  0  0
    5.5038   -1.1754   -2.5062 O   0  0  0  0  0  1  0  0  0  0  0  0
    0.6659    0.2983   -0.8025 C   0  0  1  0  0  0  0  0  0  0  0  0
    1.4596    0.8321   -0.2254 H   0  0  0  0  0  0  0  0  0  0  0  0
    0.3249    1.0287   -1.9538 O   0  0  0  0  0  0  0  0  0  0  0  0
    0.3875    1.9905   -1.7158 H   0  0  0  0  0  0  0  0  0  0  0  0
   -0.5785    0.1310    0.0914 C   0  0  2  0  0  0  0  0  0  0  0  0
   -1.4114   -0.2936   -0.5206 H   0  0  0  0  0  0  0  0  0  0  0  0
   -0.9549    1.3775    0.6183 O   0  0  0  0  0  0  0  0  0  0  0  0
   -1.5194    1.8236   -0.0657 H   0  0  0  0  0  0  0  0  0  0  0  0
   -3.2976   -0.8900    3.5676 C   0  0  0  0  0  0  0  0  0  0  0  0
   -4.1266   -0.2587    3.1861 H   0  0  0  0  0  0  0  0  0  0  0  0
   -3.2262   -0.7717    4.6690 H   0  0  0  0  0  0  0  0  0  0  0  0
   -3.5162   -1.9550    3.3383 H   0  0  0  0  0  0  0  0  0  0  0  0
  1  2  1  0
  2  3  1  0
  3  4  2  0
  4  5  1  0
  5  6  1  1
  5  7  1  0
  7  8  1  6
  7  9  1  0
  9 10  1  0
  7 11  1  0
 11 12  1  0
 12 13  1  6
 12 14  1  0
 14 15  1  0
 14 16  1  0
 14 17  1  0
 17 18  1  0
 18 19  2  0
 18 20  2  0
 18 21  1  0
 12 22  1  0
 22 23  1  1
 22 24  1  0
 24 25  1  0
 22 26  1  0
 26 27  1  6
 26 28  1  0
 28 29  1  0
  3 30  1  0
 30 31  1  0
 30 32  1  0
 30 33  1  0
 26  5  1  0
M  CHG  1  21  -1
M  END
>  <UniqueID>  (203) 
202

>  <SMILES>  (203) 
C/C(O)=N\[C@H]1[C@H](O)O[C@H](COS(=O)(=O)[O-])[C@@H](O)[C@@H]1O

>  <Energy>  (203) 
27.401679440570252

>  <Genealogy>  (203) 
CC(=O)N[C@H]1[C@H](O)O[C@H](COS(=O)(=O)[O-])[C@@H](O)[C@@H]1O (protonated)
CC(O)=N[C@H]1[C@H](O)O[C@H](COS(=O)(=O)[O-])[C@@H](O)[C@@H]1O (tautomer)
C/C(O)=N\[C@H]1[C@H](O)O[C@H](COS(=O)(=O)[O-])[C@@H](O)[C@@H]1O (cis-trans isomerization)
C/C(O)=N\[C@H]1[C@H](O)O[C@H](COS(=O)(=O)[O-])[C@@H](O)[C@@H]1O (3D coordinates assigned)
C/C(O)=N\[C@H]1[C@H](O)O[C@H](COS(=O)(=O)[O-])[C@@H](O)[C@@H]1O (nonaromatic ring conformer: 27.401679440570252 kcal/mol)

$$$$
440235
     RDKit          3D

 33 33  0  0  0  0  0  0  0  0999 V2000
    1.1748   -5.0460   -1.0188 H   0  0  0  0  0  0  0  0  0  0  0  0
    1.0931   -4.0616   -0.7944 O   0  0  0  0  0  0  0  0  0  0  0  0
    2.0799   -3.4038   -0.0606 C   0  0  0  0  0  0  0  0  0  0  0  0
    1.9775   -2.1352    0.2023 N   0  0  0  0  0  0  0  0  0  0  0  0
    0.8457   -1.2897   -0.1863 C   0  0  1  0  0  0  0  0  0  0  0  0
    0.4427   -1.6144   -1.1732 H   0  0  0  0  0  0  0  0  0  0  0  0
   -0.2713   -1.3641    0.8811 C   0  0  2  0  0  0  0  0  0  0  0  0
    0.1489   -1.0901    1.8766 H   0  0  0  0  0  0  0  0  0  0  0  0
   -0.7577   -2.6759    0.9897 O   0  0  0  0  0  0  0  0  0  0  0  0
   -1.2590   -2.8719    0.1551 H   0  0  0  0  0  0  0  0  0  0  0  0
   -1.3435   -0.4978    0.5466 O   0  0  0  0  0  0  0  0  0  0  0  0
   -0.9229    0.8559    0.5764 C   0  0  2  0  0  0  0  0  0  0  0  0
   -0.4919    1.1099    1.5740 H   0  0  0  0  0  0  0  0  0  0  0  0
   -2.1537    1.7478    0.3743 C   0  0  0  0  0  0  0  0  0  0  0  0
   -2.5810    1.5427   -0.6338 H   0  0  0  0  0  0  0  0  0  0  0  0
   -1.8409    2.8137    0.4364 H   0  0  0  0  0  0  0  0  0  0  0  0
   -3.0978    1.4681    1.3803 O   0  0  0  0  0  0  0  0  0  0  0  0
   -4.4780    2.4073    1.0938 S   0  0  0  0  0  6  0  0  0  0  0  0
   -5.4374    2.2188    2.2342 O   0  0  0  0  0  0  0  0  0  0  0  0
   -5.1435    1.9714   -0.1818 O   0  0  0  0  0  0  0  0  0  0  0  0
   -4.0707    4.0352    0.9918 O   0  0  0  0  0  1  0  0  0  0  0  0
    0.1345    1.1094   -0.5245 C   0  0  1  0  0  0  0  0  0  0  0  0
   -0.3170    0.8914   -1.5235 H   0  0  0  0  0  0  0  0  0  0  0  0
    0.5921    2.4376   -0.4653 O   0  0  0  0  0  0  0  0  0  0  0  0
    0.0571    2.9616   -1.1170 H   0  0  0  0  0  0  0  0  0  0  0  0
    1.3288    0.1658   -0.3202 C   0  0  2  0  0  0  0  0  0  0  0  0
    1.8550    0.4662    0.6186 H   0  0  0  0  0  0  0  0  0  0  0  0
    2.2006    0.2850   -1.4155 O   0  0  0  0  0  0  0  0  0  0  0  0
    3.0907   -0.0343   -1.1131 H   0  0  0  0  0  0  0  0  0  0  0  0
    3.2916   -4.1525    0.3923 C   0  0  0  0  0  0  0  0  0  0  0  0
    3.0020   -5.1702    0.7277 H   0  0  0  0  0  0  0  0  0  0  0  0
    4.0090   -4.2365   -0.4502 H   0  0  0  0  0  0  0  0  0  0  0  0
    3.7834   -3.6273    1.2389 H   0  0  0  0  0  0  0  0  0  0  0  0
  1  2  1  0
  2  3  1  0
  3  4  2  0
  4  5  1  0
  5  6  1  6
  5  7  1  0
  7  8  1  1
  7  9  1  0
  9 10  1  0
  7 11  1  0
 11 12  1  0
 12 13  1  1
 12 14  1  0
 14 15  1  0
 14 16  1  0
 14 17  1  0
 17 18  1  0
 18 19  2  0
 18 20  2  0
 18 21  1  0
 12 22  1  0
 22 23  1  6
 22 24  1  0
 24 25  1  0
 22 26  1  0
 26 27  1  1
 26 28  1  0
 28 29  1  0
  3 30  1  0
 30 31  1  0
 30 32  1  0
 30 33  1  0
 26  5  1  0
M  CHG  1  21  -1
M  END
>  <UniqueID>  (204) 
203

>  <SMILES>  (204) 
C/C(O)=N/[C@H]1[C@H](O)O[C@H](COS(=O)(=O)[O-])[C@@H](O)[C@@H]1O

>  <Energy>  (204) 
27.67741044596507

>  <Genealogy>  (204) 
CC(=O)N[C@H]1[C@H](O)O[C@H](COS(=O)(=O)[O-])[C@@H](O)[C@@H]1O (protonated)
CC(O)=N[C@H]1[C@H](O)O[C@H](COS(=O)(=O)[O-])[C@@H](O)[C@@H]1O (tautomer)
C/C(O)=N/[C@H]1[C@H](O)O[C@H](COS(=O)(=O)[O-])[C@@H](O)[C@@H]1O (cis-trans isomerization)
C/C(O)=N/[C@H]1[C@H](O)O[C@H](COS(=O)(=O)[O-])[C@@H](O)[C@@H]1O (3D coordinates assigned)
C/C(O)=N/[C@H]1[C@H](O)O[C@H](COS(=O)(=O)[O-])[C@@H](O)[C@@H]1O (nonaromatic ring conformer: 27.67741044596507 kcal/mol)

$$$$
440235
     RDKit          3D

 33 33  0  0  0  0  0  0  0  0999 V2000
   -2.0182    0.7248    4.0931 H   0  0  0  0  0  0  0  0  0  0  0  0
   -1.4626    0.2745    3.3759 O   0  0  0  0  0  0  0  0  0  0  0  0
   -2.0544   -0.5329    2.4047 C   0  0  0  0  0  0  0  0  0  0  0  0
   -1.3293   -1.1231    1.5021 N   0  0  0  0  0  0  0  0  0  0  0  0
    0.1252   -0.9838    1.3846 C   0  0  1  0  0  0  0  0  0  0  0  0
    0.5776   -1.0583    2.3999 H   0  0  0  0  0  0  0  0  0  0  0  0
    0.6719   -2.1430    0.5338 C   0  0  2  0  0  0  0  0  0  0  0  0
    0.2474   -3.0796    0.9629 H   0  0  0  0  0  0  0  0  0  0  0  0
    2.0690   -2.2266    0.6398 O   0  0  0  0  0  0  0  0  0  0  0  0
    2.3357   -3.0687    0.1866 H   0  0  0  0  0  0  0  0  0  0  0  0
    0.2528   -2.0772   -0.8238 O   0  0  0  0  0  0  0  0  0  0  0  0
    0.5945   -0.8624   -1.4848 C   0  0  2  0  0  0  0  0  0  0  0  0
    0.0277   -0.8744   -2.4426 H   0  0  0  0  0  0  0  0  0  0  0  0
    2.0723   -0.8081   -1.9192 C   0  0  0  0  0  0  0  0  0  0  0  0
    2.7284   -0.6050   -1.0489 H   0  0  0  0  0  0  0  0  0  0  0  0
    2.1903    0.0326   -2.6392 H   0  0  0  0  0  0  0  0  0  0  0  0
    2.4182   -2.0214   -2.5438 O   0  0  0  0  0  0  0  0  0  0  0  0
    4.0727   -1.9865   -2.9040 S   0  0  0  0  0  6  0  0  0  0  0  0
    4.8760   -2.0244   -1.6339 O   0  0  0  0  0  0  0  0  0  0  0  0
    4.4136   -3.1910   -3.7341 O   0  0  0  0  0  0  0  0  0  0  0  0
    4.4572   -0.6010   -3.7753 O   0  0  0  0  0  1  0  0  0  0  0  0
    0.1178    0.4062   -0.7349 C   0  0  1  0  0  0  0  0  0  0  0  0
    0.5894    1.2986   -1.2108 H   0  0  0  0  0  0  0  0  0  0  0  0
   -1.2775    0.5125   -0.8712 O   0  0  0  0  0  0  0  0  0  0  0  0
   -1.5200    1.4505   -0.6531 H   0  0  0  0  0  0  0  0  0  0  0  0
    0.4935    0.3739    0.7614 C   0  0  2  0  0  0  0  0  0  0  0  0
   -0.0703    1.1752    1.2935 H   0  0  0  0  0  0  0  0  0  0  0  0
    1.8666    0.6135    0.9355 O   0  0  0  0  0  0  0  0  0  0  0  0
    2.0166    1.5790    0.7585 H   0  0  0  0  0  0  0  0  0  0  0  0
   -3.5321   -0.7556    2.4216 C   0  0  0  0  0  0  0  0  0  0  0  0
   -4.0521    0.1879    2.6891 H   0  0  0  0  0  0  0  0  0  0  0  0
   -3.8898   -1.0860    1.4230 H   0  0  0  0  0  0  0  0  0  0  0  0
   -3.7790   -1.5339    3.1731 H   0  0  0  0  0  0  0  0  0  0  0  0
  1  2  1  0
  2  3  1  0
  3  4  2  0
  4  5  1  0
  5  6  1  1
  5  7  1  0
  7  8  1  1
  7  9  1  0
  9 10  1  0
  7 11  1  0
 11 12  1  0
 12 13  1  6
 12 14  1  0
 14 15  1  0
 14 16  1  0
 14 17  1  0
 17 18  1  0
 18 19  2  0
 18 20  2  0
 18 21  1  0
 12 22  1  0
 22 23  1  6
 22 24  1  0
 24 25  1  0
 22 26  1  0
 26 27  1  1
 26 28  1  0
 28 29  1  0
  3 30  1  0
 30 31  1  0
 30 32  1  0
 30 33  1  0
 26  5  1  0
M  CHG  1  21  -1
M  END
>  <UniqueID>  (205) 
204

>  <SMILES>  (205) 
C/C(O)=N\[C@H]1[C@H](O)O[C@H](COS(=O)(=O)[O-])[C@@H](O)[C@@H]1O

>  <Energy>  (205) 
34.631009957372854

>  <Genealogy>  (205) 
CC(=O)N[C@H]1[C@H](O)O[C@H](COS(=O)(=O)[O-])[C@@H](O)[C@@H]1O (protonated)
CC(O)=N[C@H]1[C@H](O)O[C@H](COS(=O)(=O)[O-])[C@@H](O)[C@@H]1O (tautomer)
C/C(O)=N\[C@H]1[C@H](O)O[C@H](COS(=O)(=O)[O-])[C@@H](O)[C@@H]1O (cis-trans isomerization)
C/C(O)=N\[C@H]1[C@H](O)O[C@H](COS(=O)(=O)[O-])[C@@H](O)[C@@H]1O (3D coordinates assigned)
C/C(O)=N\[C@H]1[C@H](O)O[C@H](COS(=O)(=O)[O-])[C@@H](O)[C@@H]1O (nonaromatic ring conformer: 34.631009957372854 kcal/mol)

$$$$
440049
     RDKit          3D

 25 25  0  0  0  0  0  0  0  0999 V2000
   -1.9352    0.1734    1.0062 N   0  0  0  0  0  0  0  0  0  0  0  0
   -0.8088    1.0139    0.5811 C   0  0  2  0  0  0  0  0  0  0  0  0
   -1.0954    1.6442   -0.7977 C   0  0  2  0  0  0  0  0  0  0  0  0
   -2.2632    2.4170   -0.7289 O   0  0  0  0  0  0  0  0  0  0  0  0
   -1.2639    0.6283   -1.7725 O   0  0  0  0  0  0  0  0  0  0  0  0
   -0.0433   -0.0646   -1.9847 C   0  0  2  0  0  0  0  0  0  0  0  0
   -0.2401   -1.0509   -3.1453 C   0  0  0  0  0  0  0  0  0  0  0  0
   -0.6412   -0.3703   -4.3038 O   0  0  0  0  0  0  0  0  0  0  0  0
    0.3911   -0.8129   -0.7009 C   0  0  1  0  0  0  0  0  0  0  0  0
    1.6413   -1.4192   -0.9102 O   0  0  0  0  0  0  0  0  0  0  0  0
    0.4874    0.1795    0.4736 C   0  0  2  0  0  0  0  0  0  0  0  0
    0.7343   -0.5197    1.6666 O   0  0  0  0  0  0  0  0  0  0  0  0
   -2.7837    0.7759    1.1071 H   0  0  0  0  0  0  0  0  0  0  0  0
   -1.7392   -0.1861    1.9683 H   0  0  0  0  0  0  0  0  0  0  0  0
   -0.6540    1.8281    1.3256 H   0  0  0  0  0  0  0  0  0  0  0  0
   -0.2504    2.3226   -1.0719 H   0  0  0  0  0  0  0  0  0  0  0  0
   -2.3538    2.8673   -1.6090 H   0  0  0  0  0  0  0  0  0  0  0  0
    0.7609    0.6473   -2.2876 H   0  0  0  0  0  0  0  0  0  0  0  0
    0.6990   -1.6163   -3.3435 H   0  0  0  0  0  0  0  0  0  0  0  0
   -1.0292   -1.7866   -2.8792 H   0  0  0  0  0  0  0  0  0  0  0  0
    0.1675    0.0798   -4.6634 H   0  0  0  0  0  0  0  0  0  0  0  0
   -0.3758   -1.5891   -0.4641 H   0  0  0  0  0  0  0  0  0  0  0  0
    1.7275   -2.1427   -0.2358 H   0  0  0  0  0  0  0  0  0  0  0  0
    1.3405    0.8712    0.2732 H   0  0  0  0  0  0  0  0  0  0  0  0
    1.0203    0.1537    2.3379 H   0  0  0  0  0  0  0  0  0  0  0  0
  1  2  1  0
  2  3  1  0
  3  4  1  0
  3  5  1  0
  5  6  1  0
  6  7  1  0
  7  8  1  0
  6  9  1  0
  9 10  1  0
  9 11  1  0
 11 12  1  0
 11  2  1  0
  1 13  1  0
  1 14  1  0
  2 15  1  1
  3 16  1  6
  4 17  1  0
  6 18  1  6
  7 19  1  0
  7 20  1  0
  8 21  1  0
  9 22  1  1
 10 23  1  0
 11 24  1  6
 12 25  1  0
M  END
>  <UniqueID>  (206) 
205

>  <SMILES>  (206) 
N[C@@H]1[C@H](O)O[C@H](CO)[C@@H](O)[C@@H]1O

>  <Energy>  (206) 
21.467233145871784

>  <Genealogy>  (206) 
N[C@@H]1[C@H](O)O[C@H](CO)[C@@H](O)[C@@H]1O (chirality)
N[C@@H]1[C@H](O)O[C@H](CO)[C@@H](O)[C@@H]1O (3D coordinates assigned)
N[C@@H]1[C@H](O)O[C@H](CO)[C@@H](O)[C@@H]1O (nonaromatic ring conformer: 21.467233145871784 kcal/mol)

$$$$
440049
     RDKit          3D

 26 26  0  0  0  0  0  0  0  0999 V2000
   -0.9383    1.1876    0.9558 N   0  0  0  0  0  4  0  0  0  0  0  0
   -0.7777    0.3693   -0.2585 C   0  0  2  0  0  0  0  0  0  0  0  0
   -0.2606   -1.0492    0.0854 C   0  0  2  0  0  0  0  0  0  0  0  0
   -1.0963   -1.6552    1.0357 O   0  0  0  0  0  0  0  0  0  0  0  0
    1.0495   -0.9786    0.6190 O   0  0  0  0  0  0  0  0  0  0  0  0
    1.9682   -0.5289   -0.3650 C   0  0  2  0  0  0  0  0  0  0  0  0
    3.3872   -0.6535    0.2050 C   0  0  0  0  0  0  0  0  0  0  0  0
    3.5244    0.1369    1.3543 O   0  0  0  0  0  0  0  0  0  0  0  0
    1.6497    0.9276   -0.7919 C   0  0  1  0  0  0  0  0  0  0  0  0
    2.4987    1.3202   -1.8416 O   0  0  0  0  0  0  0  0  0  0  0  0
    0.1927    1.0208   -1.2751 C   0  0  2  0  0  0  0  0  0  0  0  0
   -0.1427    2.3649   -1.5062 O   0  0  0  0  0  0  0  0  0  0  0  0
   -1.6657    0.7625    1.5748 H   0  0  0  0  0  0  0  0  0  0  0  0
   -0.0428    1.2560    1.4900 H   0  0  0  0  0  0  0  0  0  0  0  0
   -1.2653    2.1484    0.7064 H   0  0  0  0  0  0  0  0  0  0  0  0
   -1.7723    0.2689   -0.7498 H   0  0  0  0  0  0  0  0  0  0  0  0
   -0.2655   -1.6825   -0.8362 H   0  0  0  0  0  0  0  0  0  0  0  0
   -1.9436   -1.8830    0.5706 H   0  0  0  0  0  0  0  0  0  0  0  0
    1.9276   -1.1907   -1.2626 H   0  0  0  0  0  0  0  0  0  0  0  0
    4.1354   -0.3478   -0.5598 H   0  0  0  0  0  0  0  0  0  0  0  0
    3.5781   -1.7193    0.4635 H   0  0  0  0  0  0  0  0  0  0  0  0
    4.4590    0.0124    1.6639 H   0  0  0  0  0  0  0  0  0  0  0  0
    1.7745    1.6104    0.0820 H   0  0  0  0  0  0  0  0  0  0  0  0
    3.2812    1.7741   -1.4326 H   0  0  0  0  0  0  0  0  0  0  0  0
    0.1167    0.4579   -2.2365 H   0  0  0  0  0  0  0  0  0  0  0  0
   -0.9843    2.3625   -2.0331 H   0  0  0  0  0  0  0  0  0  0  0  0
  1  2  1  0
  2  3  1  0
  3  4  1  0
  3  5  1  0
  5  6  1  0
  6  7  1  0
  7  8  1  0
  6  9  1  0
  9 10  1  0
  9 11  1  0
 11 12  1  0
 11  2  1  0
  1 13  1  0
  1 14  1  0
  1 15  1  0
  2 16  1  6
  3 17  1  6
  4 18  1  0
  6 19  1  6
  7 20  1  0
  7 21  1  0
  8 22  1  0
  9 23  1  1
 10 24  1  0
 11 25  1  6
 12 26  1  0
M  CHG  1   1   1
M  END
>  <UniqueID>  (207) 
206

>  <SMILES>  (207) 
[NH3+][C@@H]1[C@H](O)O[C@H](CO)[C@@H](O)[C@@H]1O

>  <Energy>  (207) 
23.84533324025274

>  <Genealogy>  (207) 
[NH3+][C@@H]1C(O)O[C@H](CO)[C@@H](O)[C@@H]1O (protonated)
[NH3+][C@@H]1[C@H](O)O[C@H](CO)[C@@H](O)[C@@H]1O (chirality)
[NH3+][C@@H]1[C@H](O)O[C@H](CO)[C@@H](O)[C@@H]1O (3D coordinates assigned)
[NH3+][C@@H]1[C@H](O)O[C@H](CO)[C@@H](O)[C@@H]1O (nonaromatic ring conformer: 23.84533324025274 kcal/mol)

$$$$
440049
     RDKit          3D

 25 25  0  0  0  0  0  0  0  0999 V2000
   -1.3372    1.2693    1.6395 N   0  0  0  0  0  0  0  0  0  0  0  0
   -0.4224    1.0801    0.5106 C   0  0  2  0  0  0  0  0  0  0  0  0
   -1.1170    1.4410   -0.8213 C   0  0  2  0  0  0  0  0  0  0  0  0
   -2.3304    0.7498   -0.9836 O   0  0  0  0  0  0  0  0  0  0  0  0
   -0.2702    1.2459   -1.9460 O   0  0  0  0  0  0  0  0  0  0  0  0
    0.2482   -0.0757   -2.0744 C   0  0  2  0  0  0  0  0  0  0  0  0
   -0.7713   -1.0690   -2.6711 C   0  0  0  0  0  0  0  0  0  0  0  0
   -1.3189   -0.5578   -3.8566 O   0  0  0  0  0  0  0  0  0  0  0  0
    0.9419   -0.6027   -0.7872 C   0  0  1  0  0  0  0  0  0  0  0  0
    2.2206   -0.0323   -0.6375 O   0  0  0  0  0  0  0  0  0  0  0  0
    0.0987   -0.3643    0.4798 C   0  0  2  0  0  0  0  0  0  0  0  0
   -0.9789   -1.2655    0.5313 O   0  0  0  0  0  0  0  0  0  0  0  0
   -1.6132    2.2778    1.6743 H   0  0  0  0  0  0  0  0  0  0  0  0
   -0.8108    1.0846    2.5245 H   0  0  0  0  0  0  0  0  0  0  0  0
    0.4435    1.7681    0.6437 H   0  0  0  0  0  0  0  0  0  0  0  0
   -1.3351    2.5340   -0.7883 H   0  0  0  0  0  0  0  0  0  0  0  0
   -3.0131    1.2188   -0.4364 H   0  0  0  0  0  0  0  0  0  0  0  0
    1.0515   -0.0112   -2.8418 H   0  0  0  0  0  0  0  0  0  0  0  0
   -1.5727   -1.3403   -1.9525 H   0  0  0  0  0  0  0  0  0  0  0  0
   -0.2444   -2.0151   -2.9193 H   0  0  0  0  0  0  0  0  0  0  0  0
   -2.0583    0.0489   -3.5925 H   0  0  0  0  0  0  0  0  0  0  0  0
    1.1013   -1.6982   -0.8945 H   0  0  0  0  0  0  0  0  0  0  0  0
    2.1314    0.9530   -0.7120 H   0  0  0  0  0  0  0  0  0  0  0  0
    0.7453   -0.5191    1.3760 H   0  0  0  0  0  0  0  0  0  0  0  0
   -0.6059   -2.1463    0.7973 H   0  0  0  0  0  0  0  0  0  0  0  0
  1  2  1  0
  2  3  1  0
  3  4  1  0
  3  5  1  0
  5  6  1  0
  6  7  1  0
  7  8  1  0
  6  9  1  0
  9 10  1  0
  9 11  1  0
 11 12  1  0
 11  2  1  0
  1 13  1  0
  1 14  1  0
  2 15  1  1
  3 16  1  1
  4 17  1  0
  6 18  1  6
  7 19  1  0
  7 20  1  0
  8 21  1  0
  9 22  1  6
 10 23  1  0
 11 24  1  1
 12 25  1  0
M  END
>  <UniqueID>  (208) 
207

>  <SMILES>  (208) 
N[C@@H]1[C@H](O)O[C@H](CO)[C@@H](O)[C@@H]1O

>  <Energy>  (208) 
30.793157993471056

>  <Genealogy>  (208) 
N[C@@H]1[C@H](O)O[C@H](CO)[C@@H](O)[C@@H]1O (chirality)
N[C@@H]1[C@H](O)O[C@H](CO)[C@@H](O)[C@@H]1O (3D coordinates assigned)
N[C@@H]1[C@H](O)O[C@H](CO)[C@@H](O)[C@@H]1O (nonaromatic ring conformer: 30.793157993471056 kcal/mol)

$$$$
439281
     RDKit          3D

 30 30  0  0  0  0  0  0  0  0999 V2000
    2.0540   -0.1522   -3.9378 C   0  0  0  0  0  0  0  0  0  0  0  0
    1.8329   -0.5255   -2.5077 C   0  0  0  0  0  0  0  0  0  0  0  0
    2.6059   -1.5297   -1.9255 O   0  0  0  0  0  0  0  0  0  0  0  0
    0.8945    0.0663   -1.8312 N   0  0  0  0  0  0  0  0  0  0  0  0
    0.5756   -0.2073   -0.4255 C   0  0  2  0  0  0  0  0  0  0  0  0
   -0.9046    0.1315   -0.1574 C   0  0  2  0  0  0  0  0  0  0  0  0
   -1.7378   -0.6436   -0.9807 O   0  0  0  0  0  0  0  0  0  0  0  0
   -1.1539    1.5108   -0.3822 O   0  0  0  0  0  0  0  0  0  0  0  0
   -0.4491    2.3053    0.5591 C   0  0  2  0  0  0  0  0  0  0  0  0
   -0.8736    3.7721    0.3806 C   0  0  0  0  0  0  0  0  0  0  0  0
   -0.5421    4.2457   -0.8981 O   0  0  0  0  0  0  0  0  0  0  0  0
    1.0816    2.1356    0.3907 C   0  0  1  0  0  0  0  0  0  0  0  0
    1.7484    2.8733    1.3835 O   0  0  0  0  0  0  0  0  0  0  0  0
    1.4556    0.6465    0.5132 C   0  0  2  0  0  0  0  0  0  0  0  0
    2.8171    0.4754    0.2155 O   0  0  0  0  0  0  0  0  0  0  0  0
    1.6539    0.8637   -4.1438 H   0  0  0  0  0  0  0  0  0  0  0  0
    3.1405   -0.1572   -4.1648 H   0  0  0  0  0  0  0  0  0  0  0  0
    1.5409   -0.8857   -4.5937 H   0  0  0  0  0  0  0  0  0  0  0  0
    3.3274   -2.0078   -2.4517 H   0  0  0  0  0  0  0  0  0  0  0  0
    0.7289   -1.2869   -0.2004 H   0  0  0  0  0  0  0  0  0  0  0  0
   -1.1560   -0.1393    0.8943 H   0  0  0  0  0  0  0  0  0  0  0  0
   -1.7057   -0.2520   -1.8925 H   0  0  0  0  0  0  0  0  0  0  0  0
   -0.7377    2.0155    1.5972 H   0  0  0  0  0  0  0  0  0  0  0  0
   -1.9696    3.8688    0.5562 H   0  0  0  0  0  0  0  0  0  0  0  0
   -0.3661    4.4061    1.1383 H   0  0  0  0  0  0  0  0  0  0  0  0
   -1.2363    3.9030   -1.5194 H   0  0  0  0  0  0  0  0  0  0  0  0
    1.3759    2.5029   -0.6213 H   0  0  0  0  0  0  0  0  0  0  0  0
    2.6738    3.0248    1.0577 H   0  0  0  0  0  0  0  0  0  0  0  0
    1.2656    0.3277    1.5664 H   0  0  0  0  0  0  0  0  0  0  0  0
    3.0813   -0.4075    0.5850 H   0  0  0  0  0  0  0  0  0  0  0  0
  1  2  1  0
  2  3  1  0
  2  4  2  3
  4  5  1  0
  5  6  1  0
  6  7  1  0
  6  8  1  0
  8  9  1  0
  9 10  1  0
 10 11  1  0
  9 12  1  0
 12 13  1  0
 12 14  1  0
 14 15  1  0
 14  5  1  0
  1 16  1  0
  1 17  1  0
  1 18  1  0
  3 19  1  0
  5 20  1  1
  6 21  1  1
  7 22  1  0
  9 23  1  1
 10 24  1  0
 10 25  1  0
 11 26  1  0
 12 27  1  6
 13 28  1  0
 14 29  1  1
 15 30  1  0
M  END
>  <UniqueID>  (209) 
208

>  <SMILES>  (209) 
CC(O)=N[C@@H]1[C@H](O)O[C@H](CO)[C@@H](O)[C@@H]1O

>  <Energy>  (209) 
25.338228116742506

>  <Genealogy>  (209) 
CC(O)=N[C@@H]1C(O)O[C@H](CO)[C@@H](O)[C@@H]1O (tautomer)
CC(O)=N[C@@H]1[C@H](O)O[C@H](CO)[C@@H](O)[C@@H]1O (chirality)
CC(O)=N[C@@H]1[C@H](O)O[C@H](CO)[C@@H](O)[C@@H]1O (3D coordinates assigned)
CC(O)=N[C@@H]1[C@H](O)O[C@H](CO)[C@@H](O)[C@@H]1O (nonaromatic ring conformer: 25.338228116742506 kcal/mol)

$$$$
439281
     RDKit          3D

 30 30  0  0  0  0  0  0  0  0999 V2000
    3.0424   -0.7374    0.3063 C   0  0  0  0  0  0  0  0  0  0  0  0
    1.6417   -0.6965   -0.2135 C   0  0  0  0  0  0  0  0  0  0  0  0
    1.4047   -0.8424   -1.5801 O   0  0  0  0  0  0  0  0  0  0  0  0
    0.6578   -0.5029    0.6129 N   0  0  0  0  0  0  0  0  0  0  0  0
   -0.7519   -0.4179    0.2189 C   0  0  2  0  0  0  0  0  0  0  0  0
   -1.0539    0.9667   -0.3918 C   0  0  1  0  0  0  0  0  0  0  0  0
   -2.3413    0.9860   -0.9564 O   0  0  0  0  0  0  0  0  0  0  0  0
   -0.8939    2.0020    0.5684 O   0  0  0  0  0  0  0  0  0  0  0  0
   -1.8053    1.8687    1.6498 C   0  0  2  0  0  0  0  0  0  0  0  0
   -1.6198    3.0864    2.5709 C   0  0  0  0  0  0  0  0  0  0  0  0
   -2.6095    3.1318    3.5635 O   0  0  0  0  0  0  0  0  0  0  0  0
   -1.5561    0.5409    2.4142 C   0  0  1  0  0  0  0  0  0  0  0  0
   -2.4631    0.3781    3.4771 O   0  0  0  0  0  0  0  0  0  0  0  0
   -1.6492   -0.6533    1.4474 C   0  0  2  0  0  0  0  0  0  0  0  0
   -1.2700   -1.8291    2.1158 O   0  0  0  0  0  0  0  0  0  0  0  0
    3.6061   -1.5502   -0.1973 H   0  0  0  0  0  0  0  0  0  0  0  0
    3.0506   -0.9253    1.4013 H   0  0  0  0  0  0  0  0  0  0  0  0
    3.5398    0.2330    0.1004 H   0  0  0  0  0  0  0  0  0  0  0  0
    2.1673   -0.9791   -2.2325 H   0  0  0  0  0  0  0  0  0  0  0  0
   -0.9750   -1.2102   -0.5313 H   0  0  0  0  0  0  0  0  0  0  0  0
   -0.3193    1.1476   -1.2078 H   0  0  0  0  0  0  0  0  0  0  0  0
   -2.4324    1.8613   -1.4158 H   0  0  0  0  0  0  0  0  0  0  0  0
   -2.8534    1.8969    1.2722 H   0  0  0  0  0  0  0  0  0  0  0  0
   -0.6225    3.0423    3.0588 H   0  0  0  0  0  0  0  0  0  0  0  0
   -1.6507    4.0218    1.9663 H   0  0  0  0  0  0  0  0  0  0  0  0
   -3.4450    3.4321    3.1190 H   0  0  0  0  0  0  0  0  0  0  0  0
   -0.5297    0.5675    2.8432 H   0  0  0  0  0  0  0  0  0  0  0  0
   -3.3798    0.3842    3.0951 H   0  0  0  0  0  0  0  0  0  0  0  0
   -2.7066   -0.7498    1.1032 H   0  0  0  0  0  0  0  0  0  0  0  0
   -1.5681   -2.5885    1.5498 H   0  0  0  0  0  0  0  0  0  0  0  0
  1  2  1  0
  2  3  1  0
  2  4  2  3
  4  5  1  0
  5  6  1  0
  6  7  1  0
  6  8  1  0
  8  9  1  0
  9 10  1  0
 10 11  1  0
  9 12  1  0
 12 13  1  0
 12 14  1  0
 14 15  1  0
 14  5  1  0
  1 16  1  0
  1 17  1  0
  1 18  1  0
  3 19  1  0
  5 20  1  6
  6 21  1  6
  7 22  1  0
  9 23  1  6
 10 24  1  0
 10 25  1  0
 11 26  1  0
 12 27  1  1
 13 28  1  0
 14 29  1  6
 15 30  1  0
M  END
>  <UniqueID>  (210) 
209

>  <SMILES>  (210) 
CC(O)=N[C@@H]1[C@@H](O)O[C@H](CO)[C@@H](O)[C@@H]1O

>  <Energy>  (210) 
26.304081730357655

>  <Genealogy>  (210) 
CC(O)=N[C@@H]1C(O)O[C@H](CO)[C@@H](O)[C@@H]1O (tautomer)
CC(O)=N[C@@H]1[C@@H](O)O[C@H](CO)[C@@H](O)[C@@H]1O (chirality)
CC(O)=N[C@@H]1[C@@H](O)O[C@H](CO)[C@@H](O)[C@@H]1O (3D coordinates assigned)
CC(O)=N[C@@H]1[C@@H](O)O[C@H](CO)[C@@H](O)[C@@H]1O (nonaromatic ring conformer: 26.304081730357655 kcal/mol)

$$$$
439281
     RDKit          3D

 30 30  0  0  0  0  0  0  0  0999 V2000
    2.8177   -1.3744   -0.7023 C   0  0  0  0  0  0  0  0  0  0  0  0
    1.3600   -1.0707   -0.5730 C   0  0  0  0  0  0  0  0  0  0  0  0
    0.4850   -1.4225   -1.6006 O   0  0  0  0  0  0  0  0  0  0  0  0
    0.9173   -0.5141    0.5149 N   0  0  0  0  0  0  0  0  0  0  0  0
   -0.4844   -0.1671    0.7672 C   0  0  2  0  0  0  0  0  0  0  0  0
   -0.8176    1.2219    0.1874 C   0  0  1  0  0  0  0  0  0  0  0  0
   -0.6015    1.2058   -1.1973 O   0  0  0  0  0  0  0  0  0  0  0  0
   -2.1773    1.5540    0.4243 O   0  0  0  0  0  0  0  0  0  0  0  0
   -2.4900    1.6451    1.8081 C   0  0  2  0  0  0  0  0  0  0  0  0
   -1.9143    2.9221    2.4550 C   0  0  0  0  0  0  0  0  0  0  0  0
   -2.5242    3.1448    3.6969 O   0  0  0  0  0  0  0  0  0  0  0  0
   -2.1715    0.3359    2.5773 C   0  0  1  0  0  0  0  0  0  0  0  0
   -3.1088   -0.6424    2.2014 O   0  0  0  0  0  0  0  0  0  0  0  0
   -0.7488   -0.1766    2.2825 C   0  0  2  0  0  0  0  0  0  0  0  0
    0.1912    0.6194    2.9615 O   0  0  0  0  0  0  0  0  0  0  0  0
    2.9940   -2.4434   -0.4621 H   0  0  0  0  0  0  0  0  0  0  0  0
    3.4131   -0.7421   -0.0095 H   0  0  0  0  0  0  0  0  0  0  0  0
    3.1532   -1.1739   -1.7412 H   0  0  0  0  0  0  0  0  0  0  0  0
    0.8203   -1.8730   -2.4436 H   0  0  0  0  0  0  0  0  0  0  0  0
   -1.1506   -0.9282    0.3000 H   0  0  0  0  0  0  0  0  0  0  0  0
   -0.1359    1.9828    0.6317 H   0  0  0  0  0  0  0  0  0  0  0  0
   -0.7174    2.1403   -1.5118 H   0  0  0  0  0  0  0  0  0  0  0  0
   -3.5945    1.7714    1.8600 H   0  0  0  0  0  0  0  0  0  0  0  0
   -2.1235    3.7860    1.7850 H   0  0  0  0  0  0  0  0  0  0  0  0
   -0.8161    2.8523    2.5929 H   0  0  0  0  0  0  0  0  0  0  0  0
   -2.1304    3.9838    4.0520 H   0  0  0  0  0  0  0  0  0  0  0  0
   -2.2695    0.5271    3.6721 H   0  0  0  0  0  0  0  0  0  0  0  0
   -3.1018   -1.3388    2.9093 H   0  0  0  0  0  0  0  0  0  0  0  0
   -0.6745   -1.2279    2.6513 H   0  0  0  0  0  0  0  0  0  0  0  0
    0.9958    0.0583    3.1146 H   0  0  0  0  0  0  0  0  0  0  0  0
  1  2  1  0
  2  3  1  0
  2  4  2  3
  4  5  1  0
  5  6  1  0
  6  7  1  0
  6  8  1  0
  8  9  1  0
  9 10  1  0
 10 11  1  0
  9 12  1  0
 12 13  1  0
 12 14  1  0
 14 15  1  0
 14  5  1  0
  1 16  1  0
  1 17  1  0
  1 18  1  0
  3 19  1  0
  5 20  1  6
  6 21  1  1
  7 22  1  0
  9 23  1  6
 10 24  1  0
 10 25  1  0
 11 26  1  0
 12 27  1  1
 13 28  1  0
 14 29  1  1
 15 30  1  0
M  END
>  <UniqueID>  (211) 
210

>  <SMILES>  (211) 
CC(O)=N[C@@H]1[C@@H](O)O[C@H](CO)[C@@H](O)[C@@H]1O

>  <Energy>  (211) 
29.410638179091375

>  <Genealogy>  (211) 
CC(O)=N[C@@H]1C(O)O[C@H](CO)[C@@H](O)[C@@H]1O (tautomer)
CC(O)=N[C@@H]1[C@@H](O)O[C@H](CO)[C@@H](O)[C@@H]1O (chirality)
CC(O)=N[C@@H]1[C@@H](O)O[C@H](CO)[C@@H](O)[C@@H]1O (3D coordinates assigned)
CC(O)=N[C@@H]1[C@@H](O)O[C@H](CO)[C@@H](O)[C@@H]1O (nonaromatic ring conformer: 29.410638179091375 kcal/mol)

$$$$
439213
     RDKit          3D

 25 25  0  0  0  0  0  0  0  0999 V2000
    1.6792    2.7198   -1.2604 N   0  0  0  0  0  0  0  0  0  0  0  0
    0.7342    1.8557   -0.5456 C   0  0  1  0  0  0  0  0  0  0  0  0
   -0.7110    2.3795   -0.7248 C   0  0  2  0  0  0  0  0  0  0  0  0
   -0.8230    3.6569   -0.1514 O   0  0  0  0  0  0  0  0  0  0  0  0
   -1.6286    1.5273   -0.0637 O   0  0  0  0  0  0  0  0  0  0  0  0
   -1.6521    0.2464   -0.6694 C   0  0  2  0  0  0  0  0  0  0  0  0
   -2.7959   -0.5662   -0.0477 C   0  0  0  0  0  0  0  0  0  0  0  0
   -2.6157   -0.6861    1.3372 O   0  0  0  0  0  0  0  0  0  0  0  0
   -0.2904   -0.4590   -0.4833 C   0  0  1  0  0  0  0  0  0  0  0  0
   -0.3135   -1.7079   -1.1269 O   0  0  0  0  0  0  0  0  0  0  0  0
    0.8290    0.4103   -1.0812 C   0  0  2  0  0  0  0  0  0  0  0  0
    2.0726   -0.1484   -0.7369 O   0  0  0  0  0  0  0  0  0  0  0  0
    1.6620    3.6684   -0.8211 H   0  0  0  0  0  0  0  0  0  0  0  0
    2.6483    2.3639   -1.0957 H   0  0  0  0  0  0  0  0  0  0  0  0
    0.9827    1.8562    0.5413 H   0  0  0  0  0  0  0  0  0  0  0  0
   -0.9603    2.4365   -1.8150 H   0  0  0  0  0  0  0  0  0  0  0  0
   -0.6645    4.3216   -0.8718 H   0  0  0  0  0  0  0  0  0  0  0  0
   -1.8776    0.3342   -1.7588 H   0  0  0  0  0  0  0  0  0  0  0  0
   -3.7586   -0.0462   -0.2524 H   0  0  0  0  0  0  0  0  0  0  0  0
   -2.8437   -1.5759   -0.5136 H   0  0  0  0  0  0  0  0  0  0  0  0
   -3.3835   -1.2199    1.6694 H   0  0  0  0  0  0  0  0  0  0  0  0
   -0.1019   -0.5926    0.6090 H   0  0  0  0  0  0  0  0  0  0  0  0
    0.4031   -2.2579   -0.7153 H   0  0  0  0  0  0  0  0  0  0  0  0
    0.7004    0.4264   -2.1918 H   0  0  0  0  0  0  0  0  0  0  0  0
    2.6775   -0.0227   -1.5138 H   0  0  0  0  0  0  0  0  0  0  0  0
  1  2  1  0
  2  3  1  0
  3  4  1  0
  3  5  1  0
  5  6  1  0
  6  7  1  0
  7  8  1  0
  6  9  1  0
  9 10  1  0
  9 11  1  0
 11 12  1  0
 11  2  1  0
  1 13  1  0
  1 14  1  0
  2 15  1  1
  3 16  1  6
  4 17  1  0
  6 18  1  6
  7 19  1  0
  7 20  1  0
  8 21  1  0
  9 22  1  1
 10 23  1  0
 11 24  1  6
 12 25  1  0
M  END
>  <UniqueID>  (212) 
211

>  <SMILES>  (212) 
N[C@H]1[C@H](O)O[C@H](CO)[C@@H](O)[C@@H]1O

>  <Energy>  (212) 
21.721951505646086

>  <Genealogy>  (212) 
N[C@H]1[C@H](O)O[C@H](CO)[C@@H](O)[C@@H]1O (chirality)
N[C@H]1[C@H](O)O[C@H](CO)[C@@H](O)[C@@H]1O (3D coordinates assigned)
N[C@H]1[C@H](O)O[C@H](CO)[C@@H](O)[C@@H]1O (nonaromatic ring conformer: 21.721951505646086 kcal/mol)

$$$$
439213
     RDKit          3D

 25 25  0  0  0  0  0  0  0  0999 V2000
    1.4286   -0.4212    3.7450 N   0  0  0  0  0  0  0  0  0  0  0  0
    0.9149    0.1489    2.4961 C   0  0  1  0  0  0  0  0  0  0  0  0
    1.8228    1.2833    1.9669 C   0  0  1  0  0  0  0  0  0  0  0  0
    3.1519    0.8477    1.8196 O   0  0  0  0  0  0  0  0  0  0  0  0
    1.3194    1.8113    0.7477 O   0  0  0  0  0  0  0  0  0  0  0  0
    1.2869    0.8290   -0.2790 C   0  0  2  0  0  0  0  0  0  0  0  0
    0.8736    1.5143   -1.5882 C   0  0  0  0  0  0  0  0  0  0  0  0
   -0.4023    2.0807   -1.4631 O   0  0  0  0  0  0  0  0  0  0  0  0
    0.3225   -0.3264    0.0890 C   0  0  1  0  0  0  0  0  0  0  0  0
    0.3515   -1.3212   -0.9039 O   0  0  0  0  0  0  0  0  0  0  0  0
    0.7571   -0.9486    1.4272 C   0  0  2  0  0  0  0  0  0  0  0  0
   -0.1590   -1.9311    1.8445 O   0  0  0  0  0  0  0  0  0  0  0  0
    2.3911   -0.8007    3.5921 H   0  0  0  0  0  0  0  0  0  0  0  0
    1.5009    0.3412    4.4574 H   0  0  0  0  0  0  0  0  0  0  0  0
   -0.0880    0.5873    2.7018 H   0  0  0  0  0  0  0  0  0  0  0  0
    1.8021    2.1023    2.7211 H   0  0  0  0  0  0  0  0  0  0  0  0
    3.6858    1.6523    1.5897 H   0  0  0  0  0  0  0  0  0  0  0  0
    2.3066    0.4129   -0.4508 H   0  0  0  0  0  0  0  0  0  0  0  0
    1.6120    2.3131   -1.8242 H   0  0  0  0  0  0  0  0  0  0  0  0
    0.8848    0.7807   -2.4249 H   0  0  0  0  0  0  0  0  0  0  0  0
   -0.6050    2.4987   -2.3400 H   0  0  0  0  0  0  0  0  0  0  0  0
   -0.7107    0.0811    0.2089 H   0  0  0  0  0  0  0  0  0  0  0  0
   -0.3912   -1.1282   -1.5336 H   0  0  0  0  0  0  0  0  0  0  0  0
    1.7420   -1.4459    1.2788 H   0  0  0  0  0  0  0  0  0  0  0  0
   -1.0378   -1.4888    1.9794 H   0  0  0  0  0  0  0  0  0  0  0  0
  1  2  1  0
  2  3  1  0
  3  4  1  0
  3  5  1  0
  5  6  1  0
  6  7  1  0
  7  8  1  0
  6  9  1  0
  9 10  1  0
  9 11  1  0
 11 12  1  0
 11  2  1  0
  1 13  1  0
  1 14  1  0
  2 15  1  1
  3 16  1  1
  4 17  1  0
  6 18  1  6
  7 19  1  0
  7 20  1  0
  8 21  1  0
  9 22  1  1
 10 23  1  0
 11 24  1  6
 12 25  1  0
M  END
>  <UniqueID>  (213) 
212

>  <SMILES>  (213) 
N[C@H]1[C@@H](O)O[C@H](CO)[C@@H](O)[C@@H]1O

>  <Energy>  (213) 
23.616323245099956

>  <Genealogy>  (213) 
N[C@H]1[C@@H](O)O[C@H](CO)[C@@H](O)[C@@H]1O (chirality)
N[C@H]1[C@@H](O)O[C@H](CO)[C@@H](O)[C@@H]1O (3D coordinates assigned)
N[C@H]1[C@@H](O)O[C@H](CO)[C@@H](O)[C@@H]1O (nonaromatic ring conformer: 23.616323245099956 kcal/mol)

$$$$
439213
     RDKit          3D

 26 26  0  0  0  0  0  0  0  0999 V2000
    1.9889    1.1711   -1.8295 N   0  0  0  0  0  4  0  0  0  0  0  0
    0.8933    0.8731   -0.8966 C   0  0  1  0  0  0  0  0  0  0  0  0
   -0.3081    0.2393   -1.6366 C   0  0  1  0  0  0  0  0  0  0  0  0
    0.0831   -0.9068   -2.3517 O   0  0  0  0  0  0  0  0  0  0  0  0
   -1.3695   -0.0533   -0.7389 O   0  0  0  0  0  0  0  0  0  0  0  0
   -0.9798   -1.0019    0.2433 C   0  0  2  0  0  0  0  0  0  0  0  0
   -2.2100   -1.3636    1.0912 C   0  0  0  0  0  0  0  0  0  0  0  0
   -2.7058   -0.2417    1.7730 O   0  0  0  0  0  0  0  0  0  0  0  0
    0.1690   -0.4457    1.1230 C   0  0  1  0  0  0  0  0  0  0  0  0
    0.5591   -1.3785    2.1014 O   0  0  0  0  0  0  0  0  0  0  0  0
    1.3695   -0.0511    0.2411 C   0  0  2  0  0  0  0  0  0  0  0  0
    2.3301    0.6188    1.0169 O   0  0  0  0  0  0  0  0  0  0  0  0
    1.6395    1.7794   -2.6054 H   0  0  0  0  0  0  0  0  0  0  0  0
    2.3837    0.2912   -2.2345 H   0  0  0  0  0  0  0  0  0  0  0  0
    2.7495    1.6874   -1.3310 H   0  0  0  0  0  0  0  0  0  0  0  0
    0.5439    1.8310   -0.4461 H   0  0  0  0  0  0  0  0  0  0  0  0
   -0.6846    0.9952   -2.3626 H   0  0  0  0  0  0  0  0  0  0  0  0
   -0.7053   -1.1851   -2.8866 H   0  0  0  0  0  0  0  0  0  0  0  0
   -0.6466   -1.9466   -0.2451 H   0  0  0  0  0  0  0  0  0  0  0  0
   -1.9390   -2.1422    1.8354 H   0  0  0  0  0  0  0  0  0  0  0  0
   -3.0004   -1.7993    0.4377 H   0  0  0  0  0  0  0  0  0  0  0  0
   -3.2365    0.2809    1.1167 H   0  0  0  0  0  0  0  0  0  0  0  0
   -0.1916    0.4682    1.6453 H   0  0  0  0  0  0  0  0  0  0  0  0
    0.8660   -2.1976    1.6311 H   0  0  0  0  0  0  0  0  0  0  0  0
    1.8172   -0.9692   -0.2097 H   0  0  0  0  0  0  0  0  0  0  0  0
    2.8424   -0.0773    1.5053 H   0  0  0  0  0  0  0  0  0  0  0  0
  1  2  1  0
  2  3  1  0
  3  4  1  0
  3  5  1  0
  5  6  1  0
  6  7  1  0
  7  8  1  0
  6  9  1  0
  9 10  1  0
  9 11  1  0
 11 12  1  0
 11  2  1  0
  1 13  1  0
  1 14  1  0
  1 15  1  0
  2 16  1  1
  3 17  1  6
  4 18  1  0
  6 19  1  6
  7 20  1  0
  7 21  1  0
  8 22  1  0
  9 23  1  1
 10 24  1  0
 11 25  1  6
 12 26  1  0
M  CHG  1   1   1
M  END
>  <UniqueID>  (214) 
213

>  <SMILES>  (214) 
[NH3+][C@H]1[C@@H](O)O[C@H](CO)[C@@H](O)[C@@H]1O

>  <Energy>  (214) 
24.70436816649921

>  <Genealogy>  (214) 
[NH3+][C@H]1C(O)O[C@H](CO)[C@@H](O)[C@@H]1O (protonated)
[NH3+][C@H]1[C@@H](O)O[C@H](CO)[C@@H](O)[C@@H]1O (chirality)
[NH3+][C@H]1[C@@H](O)O[C@H](CO)[C@@H](O)[C@@H]1O (3D coordinates assigned)
[NH3+][C@H]1[C@@H](O)O[C@H](CO)[C@@H](O)[C@@H]1O (nonaromatic ring conformer: 24.70436816649921 kcal/mol)

$$$$
439174
     RDKit          3D

 30 30  0  0  0  0  0  0  0  0999 V2000
    1.1997   -2.7625   -2.2213 H   0  0  0  0  0  0  0  0  0  0  0  0
    0.8783   -2.0756   -1.5498 O   0  0  0  0  0  0  0  0  0  0  0  0
   -0.0789   -1.1219   -1.8951 C   0  0  0  0  0  0  0  0  0  0  0  0
   -0.4728   -0.2333   -1.0323 N   0  0  0  0  0  0  0  0  0  0  0  0
    0.0228   -0.1274    0.3426 C   0  0  1  0  0  0  0  0  0  0  0  0
    0.2453   -1.1402    0.7509 H   0  0  0  0  0  0  0  0  0  0  0  0
    1.3008    0.7376    0.3874 C   0  0  2  0  0  0  0  0  0  0  0  0
    1.0867    1.7389   -0.0610 H   0  0  0  0  0  0  0  0  0  0  0  0
    2.3062    0.1203   -0.3689 O   0  0  0  0  0  0  0  0  0  0  0  0
    3.0637    0.7608   -0.4056 H   0  0  0  0  0  0  0  0  0  0  0  0
    1.7570    0.8708    1.7232 O   0  0  0  0  0  0  0  0  0  0  0  0
    0.8312    1.6124    2.4996 C   0  0  2  0  0  0  0  0  0  0  0  0
    0.6490    2.6090    2.0318 H   0  0  0  0  0  0  0  0  0  0  0  0
    1.4617    1.8612    3.8766 C   0  0  0  0  0  0  0  0  0  0  0  0
    1.5484    0.9016    4.4348 H   0  0  0  0  0  0  0  0  0  0  0  0
    2.4848    2.2766    3.7347 H   0  0  0  0  0  0  0  0  0  0  0  0
    0.6947    2.7767    4.6092 O   0  0  0  0  0  0  0  0  0  0  0  0
    1.1493    2.8780    5.4855 H   0  0  0  0  0  0  0  0  0  0  0  0
   -0.5028    0.8294    2.6199 C   0  0  1  0  0  0  0  0  0  0  0  0
   -0.2990   -0.1357    3.1354 H   0  0  0  0  0  0  0  0  0  0  0  0
   -1.4518    1.5356    3.3812 O   0  0  0  0  0  0  0  0  0  0  0  0
   -1.6089    2.4077    2.9329 H   0  0  0  0  0  0  0  0  0  0  0  0
   -1.0642    0.5191    1.2201 C   0  0  2  0  0  0  0  0  0  0  0  0
   -1.3901    1.4778    0.7484 H   0  0  0  0  0  0  0  0  0  0  0  0
   -2.1614   -0.3492    1.3471 O   0  0  0  0  0  0  0  0  0  0  0  0
   -2.7035   -0.2533    0.5209 H   0  0  0  0  0  0  0  0  0  0  0  0
   -0.6438   -1.1050   -3.2788 C   0  0  0  0  0  0  0  0  0  0  0  0
   -0.8602   -2.1426   -3.6084 H   0  0  0  0  0  0  0  0  0  0  0  0
   -1.5866   -0.5181   -3.3122 H   0  0  0  0  0  0  0  0  0  0  0  0
    0.0932   -0.6486   -3.9716 H   0  0  0  0  0  0  0  0  0  0  0  0
  1  2  1  0
  2  3  1  0
  3  4  2  0
  4  5  1  0
  5  6  1  1
  5  7  1  0
  7  8  1  6
  7  9  1  0
  9 10  1  0
  7 11  1  0
 11 12  1  0
 12 13  1  6
 12 14  1  0
 14 15  1  0
 14 16  1  0
 14 17  1  0
 17 18  1  0
 12 19  1  0
 19 20  1  1
 19 21  1  0
 21 22  1  0
 19 23  1  0
 23 24  1  6
 23 25  1  0
 25 26  1  0
  3 27  1  0
 27 28  1  0
 27 29  1  0
 27 30  1  0
 23  5  1  0
M  END
>  <UniqueID>  (215) 
214

>  <SMILES>  (215) 
C/C(O)=N\[C@H]1[C@H](O)O[C@H](CO)[C@@H](O)[C@@H]1O

>  <Energy>  (215) 
24.53707748341128

>  <Genealogy>  (215) 
CC(O)=N[C@H]1C(O)O[C@H](CO)[C@@H](O)[C@@H]1O (tautomer)
CC(O)=N[C@H]1[C@H](O)O[C@H](CO)[C@@H](O)[C@@H]1O (chirality)
C/C(O)=N\[C@H]1[C@H](O)O[C@H](CO)[C@@H](O)[C@@H]1O (cis-trans isomerization)
C/C(O)=N\[C@H]1[C@H](O)O[C@H](CO)[C@@H](O)[C@@H]1O (3D coordinates assigned)
C/C(O)=N\[C@H]1[C@H](O)O[C@H](CO)[C@@H](O)[C@@H]1O (nonaromatic ring conformer: 24.53707748341128 kcal/mol)

$$$$
439174
     RDKit          3D

 30 30  0  0  0  0  0  0  0  0999 V2000
   -3.2648    2.5639   -0.0238 H   0  0  0  0  0  0  0  0  0  0  0  0
   -2.3708    2.1362    0.1855 O   0  0  0  0  0  0  0  0  0  0  0  0
   -1.7234    2.3715    1.3969 C   0  0  0  0  0  0  0  0  0  0  0  0
   -0.5842    1.8056    1.6744 N   0  0  0  0  0  0  0  0  0  0  0  0
    0.1889    0.8931    0.8205 C   0  0  1  0  0  0  0  0  0  0  0  0
    1.0969    0.6013    1.3946 H   0  0  0  0  0  0  0  0  0  0  0  0
   -0.5835   -0.4023    0.5013 C   0  0  2  0  0  0  0  0  0  0  0  0
   -1.5166   -0.1741   -0.0646 H   0  0  0  0  0  0  0  0  0  0  0  0
   -0.9358   -1.0289    1.7048 O   0  0  0  0  0  0  0  0  0  0  0  0
   -1.5084   -1.8025    1.4616 H   0  0  0  0  0  0  0  0  0  0  0  0
    0.2416   -1.2786   -0.2471 O   0  0  0  0  0  0  0  0  0  0  0  0
    0.5364   -0.7259   -1.5206 C   0  0  2  0  0  0  0  0  0  0  0  0
   -0.4081   -0.4809   -2.0622 H   0  0  0  0  0  0  0  0  0  0  0  0
    1.2715   -1.8003   -2.3401 C   0  0  0  0  0  0  0  0  0  0  0  0
    2.2736   -1.9913   -1.9000 H   0  0  0  0  0  0  0  0  0  0  0  0
    0.7037   -2.7580   -2.2972 H   0  0  0  0  0  0  0  0  0  0  0  0
    1.4302   -1.4037   -3.6760 O   0  0  0  0  0  0  0  0  0  0  0  0
    0.5420   -1.5000   -4.1091 H   0  0  0  0  0  0  0  0  0  0  0  0
    1.3970    0.5546   -1.3655 C   0  0  1  0  0  0  0  0  0  0  0  0
    2.3612    0.2741   -0.8763 H   0  0  0  0  0  0  0  0  0  0  0  0
    1.6383    1.1221   -2.6281 O   0  0  0  0  0  0  0  0  0  0  0  0
    2.4794    1.6443   -2.5552 H   0  0  0  0  0  0  0  0  0  0  0  0
    0.6600    1.5762   -0.4762 C   0  0  2  0  0  0  0  0  0  0  0  0
   -0.2244    1.9568   -1.0370 H   0  0  0  0  0  0  0  0  0  0  0  0
    1.5184    2.6399   -0.1507 O   0  0  0  0  0  0  0  0  0  0  0  0
    1.4917    3.2775   -0.9112 H   0  0  0  0  0  0  0  0  0  0  0  0
   -2.3622    3.2640    2.4116 C   0  0  0  0  0  0  0  0  0  0  0  0
   -1.6144    3.6127    3.1558 H   0  0  0  0  0  0  0  0  0  0  0  0
   -3.1660    2.7079    2.9370 H   0  0  0  0  0  0  0  0  0  0  0  0
   -2.8010    4.1510    1.9087 H   0  0  0  0  0  0  0  0  0  0  0  0
  1  2  1  0
  2  3  1  0
  3  4  2  0
  4  5  1  0
  5  6  1  1
  5  7  1  0
  7  8  1  6
  7  9  1  0
  9 10  1  0
  7 11  1  0
 11 12  1  0
 12 13  1  6
 12 14  1  0
 14 15  1  0
 14 16  1  0
 14 17  1  0
 17 18  1  0
 12 19  1  0
 19 20  1  1
 19 21  1  0
 21 22  1  0
 19 23  1  0
 23 24  1  6
 23 25  1  0
 25 26  1  0
  3 27  1  0
 27 28  1  0
 27 29  1  0
 27 30  1  0
 23  5  1  0
M  END
>  <UniqueID>  (216) 
215

>  <SMILES>  (216) 
C/C(O)=N/[C@H]1[C@H](O)O[C@H](CO)[C@@H](O)[C@@H]1O

>  <Energy>  (216) 
26.12495674624173

>  <Genealogy>  (216) 
CC(O)=N[C@H]1C(O)O[C@H](CO)[C@@H](O)[C@@H]1O (tautomer)
CC(O)=N[C@H]1[C@H](O)O[C@H](CO)[C@@H](O)[C@@H]1O (chirality)
C/C(O)=N/[C@H]1[C@H](O)O[C@H](CO)[C@@H](O)[C@@H]1O (cis-trans isomerization)
C/C(O)=N/[C@H]1[C@H](O)O[C@H](CO)[C@@H](O)[C@@H]1O (3D coordinates assigned)
C/C(O)=N/[C@H]1[C@H](O)O[C@H](CO)[C@@H](O)[C@@H]1O (nonaromatic ring conformer: 26.12495674624173 kcal/mol)

$$$$
439174
     RDKit          3D

 30 30  0  0  0  0  0  0  0  0999 V2000
    4.0481   -1.7242    1.5575 H   0  0  0  0  0  0  0  0  0  0  0  0
    3.6579   -2.2510    0.7848 O   0  0  0  0  0  0  0  0  0  0  0  0
    2.3951   -1.9567    0.2784 C   0  0  0  0  0  0  0  0  0  0  0  0
    1.7044   -0.9934    0.8212 N   0  0  0  0  0  0  0  0  0  0  0  0
    0.3718   -0.5276    0.4206 C   0  0  1  0  0  0  0  0  0  0  0  0
   -0.1723   -1.3159   -0.1448 H   0  0  0  0  0  0  0  0  0  0  0  0
   -0.4580   -0.2207    1.6810 C   0  0  1  0  0  0  0  0  0  0  0  0
   -0.6082   -1.1852    2.2174 H   0  0  0  0  0  0  0  0  0  0  0  0
    0.2278    0.6607    2.5363 O   0  0  0  0  0  0  0  0  0  0  0  0
   -0.3127    0.7210    3.3666 H   0  0  0  0  0  0  0  0  0  0  0  0
   -1.7403    0.2855    1.3404 O   0  0  0  0  0  0  0  0  0  0  0  0
   -1.6497    1.5155    0.6358 C   0  0  2  0  0  0  0  0  0  0  0  0
   -1.1142    2.2791    1.2465 H   0  0  0  0  0  0  0  0  0  0  0  0
   -3.0725    2.0460    0.4034 C   0  0  0  0  0  0  0  0  0  0  0  0
   -3.6528    1.3377   -0.2324 H   0  0  0  0  0  0  0  0  0  0  0  0
   -3.0290    3.0200   -0.1278 H   0  0  0  0  0  0  0  0  0  0  0  0
   -3.7227    2.2527    1.6290 O   0  0  0  0  0  0  0  0  0  0  0  0
   -4.0845    1.3733    1.9144 H   0  0  0  0  0  0  0  0  0  0  0  0
   -0.9089    1.3208   -0.7089 C   0  0  1  0  0  0  0  0  0  0  0  0
   -1.4810    0.5972   -1.3405 H   0  0  0  0  0  0  0  0  0  0  0  0
   -0.7673    2.5539   -1.3697 O   0  0  0  0  0  0  0  0  0  0  0  0
   -1.5127    2.6255   -2.0214 H   0  0  0  0  0  0  0  0  0  0  0  0
    0.4867    0.7365   -0.4517 C   0  0  2  0  0  0  0  0  0  0  0  0
    1.0951    1.5032    0.0872 H   0  0  0  0  0  0  0  0  0  0  0  0
    1.0873    0.4282   -1.6830 O   0  0  0  0  0  0  0  0  0  0  0  0
    2.0694    0.4475   -1.5390 H   0  0  0  0  0  0  0  0  0  0  0  0
    1.8740   -2.7847   -0.8596 C   0  0  0  0  0  0  0  0  0  0  0  0
    0.9990   -3.3794   -0.5237 H   0  0  0  0  0  0  0  0  0  0  0  0
    1.5846   -2.1394   -1.7132 H   0  0  0  0  0  0  0  0  0  0  0  0
    2.6605   -3.4867   -1.2078 H   0  0  0  0  0  0  0  0  0  0  0  0
  1  2  1  0
  2  3  1  0
  3  4  2  0
  4  5  1  0
  5  6  1  6
  5  7  1  0
  7  8  1  1
  7  9  1  0
  9 10  1  0
  7 11  1  0
 11 12  1  0
 12 13  1  1
 12 14  1  0
 14 15  1  0
 14 16  1  0
 14 17  1  0
 17 18  1  0
 12 19  1  0
 19 20  1  6
 19 21  1  0
 21 22  1  0
 19 23  1  0
 23 24  1  1
 23 25  1  0
 25 26  1  0
  3 27  1  0
 27 28  1  0
 27 29  1  0
 27 30  1  0
 23  5  1  0
M  END
>  <UniqueID>  (217) 
216

>  <SMILES>  (217) 
C/C(O)=N/[C@H]1[C@@H](O)O[C@H](CO)[C@@H](O)[C@@H]1O

>  <Energy>  (217) 
28.073777286441757

>  <Genealogy>  (217) 
CC(O)=N[C@H]1C(O)O[C@H](CO)[C@@H](O)[C@@H]1O (tautomer)
CC(O)=N[C@H]1[C@@H](O)O[C@H](CO)[C@@H](O)[C@@H]1O (chirality)
C/C(O)=N/[C@H]1[C@@H](O)O[C@H](CO)[C@@H](O)[C@@H]1O (cis-trans isomerization)
C/C(O)=N/[C@H]1[C@@H](O)O[C@H](CO)[C@@H](O)[C@@H]1O (3D coordinates assigned)
C/C(O)=N/[C@H]1[C@@H](O)O[C@H](CO)[C@@H](O)[C@@H]1O (nonaromatic ring conformer: 28.073777286441757 kcal/mol)

$$$$
433580
     RDKit          3D

 33 33  0  0  0  0  0  0  0  0999 V2000
   -0.3191   -4.2393    1.7914 C   0  0  0  0  0  0  0  0  0  0  0  0
   -0.2208   -3.2492    0.6341 C   0  0  2  0  0  0  0  0  0  0  0  0
   -0.3439   -1.9344    1.1493 O   0  0  0  0  0  0  0  0  0  0  0  0
    0.3123   -0.9826    0.3243 C   0  0  2  0  0  0  0  0  0  0  0  0
    1.7723   -0.7745    0.7884 C   0  0  2  0  0  0  0  0  0  0  0  0
    1.8255   -0.4965    2.2282 N   0  0  0  0  0  0  0  0  0  0  0  0
    2.4013    0.3946    0.0025 C   0  0  1  0  0  0  0  0  0  0  0  0
    2.5523    0.0545   -1.3534 O   0  0  0  0  0  0  0  0  0  0  0  0
    1.6426    1.5854    0.1566 O   0  0  0  0  0  0  0  0  0  0  0  0
    0.3298    1.4480   -0.3678 C   0  0  2  0  0  0  0  0  0  0  0  0
   -0.3656    2.8120   -0.2508 C   0  0  0  0  0  0  0  0  0  0  0  0
   -1.5735    2.8107   -0.9609 O   0  0  0  0  0  0  0  0  0  0  0  0
   -0.4547    0.3499    0.3930 C   0  0  1  0  0  0  0  0  0  0  0  0
   -1.7249    0.1856   -0.1850 O   0  0  0  0  0  0  0  0  0  0  0  0
   -1.3155   -3.5208   -0.3588 C   0  0  0  0  0  0  0  0  0  0  0  0
   -2.5012   -3.1754   -0.1108 O   0  0  0  0  0  0  0  0  0  0  0  0
   -1.0281   -4.1862   -1.5437 O   0  0  0  0  0  1  0  0  0  0  0  0
    0.5038   -4.0523    2.5138 H   0  0  0  0  0  0  0  0  0  0  0  0
   -1.2893   -4.1258    2.3217 H   0  0  0  0  0  0  0  0  0  0  0  0
   -0.2285   -5.2818    1.4170 H   0  0  0  0  0  0  0  0  0  0  0  0
    0.7685   -3.4200    0.1476 H   0  0  0  0  0  0  0  0  0  0  0  0
    0.3184   -1.2961   -0.7492 H   0  0  0  0  0  0  0  0  0  0  0  0
    2.3596   -1.6966    0.5771 H   0  0  0  0  0  0  0  0  0  0  0  0
    1.5090   -1.3492    2.7441 H   0  0  0  0  0  0  0  0  0  0  0  0
    2.8253   -0.3621    2.5047 H   0  0  0  0  0  0  0  0  0  0  0  0
    3.4153    0.5809    0.4234 H   0  0  0  0  0  0  0  0  0  0  0  0
    3.0480    0.8034   -1.7763 H   0  0  0  0  0  0  0  0  0  0  0  0
    0.3721    1.1950   -1.4526 H   0  0  0  0  0  0  0  0  0  0  0  0
   -0.5514    3.0540    0.8201 H   0  0  0  0  0  0  0  0  0  0  0  0
    0.3030    3.5948   -0.6746 H   0  0  0  0  0  0  0  0  0  0  0  0
   -1.9715    3.7103   -0.8292 H   0  0  0  0  0  0  0  0  0  0  0  0
   -0.5578    0.6613    1.4603 H   0  0  0  0  0  0  0  0  0  0  0  0
   -2.3057   -0.2283    0.5057 H   0  0  0  0  0  0  0  0  0  0  0  0
  1  2  1  0
  2  3  1  0
  3  4  1  0
  4  5  1  0
  5  6  1  0
  5  7  1  0
  7  8  1  0
  7  9  1  0
  9 10  1  0
 10 11  1  0
 11 12  1  0
 10 13  1  0
 13 14  1  0
  2 15  1  0
 15 16  2  0
 15 17  1  0
 13  4  1  0
  1 18  1  0
  1 19  1  0
  1 20  1  0
  2 21  1  6
  4 22  1  6
  5 23  1  1
  6 24  1  0
  6 25  1  0
  7 26  1  1
  8 27  1  0
 10 28  1  6
 11 29  1  0
 11 30  1  0
 12 31  1  0
 13 32  1  1
 14 33  1  0
M  CHG  1  17  -1
M  END
>  <UniqueID>  (218) 
217

>  <SMILES>  (218) 
C[C@H](O[C@@H]1[C@H](N)[C@@H](O)O[C@H](CO)[C@H]1O)C(=O)[O-]

>  <Energy>  (218) 
30.79101052907704

>  <Genealogy>  (218) 
CC(OC1C(N)C(O)OC(CO)C1O)C(=O)[O-] (protonated)
C[C@H](O[C@@H]1[C@H](N)[C@@H](O)O[C@H](CO)[C@H]1O)C(=O)[O-] (chirality)
C[C@H](O[C@@H]1[C@H](N)[C@@H](O)O[C@H](CO)[C@H]1O)C(=O)[O-] (3D coordinates assigned)
C[C@H](O[C@@H]1[C@H](N)[C@@H](O)O[C@H](CO)[C@H]1O)C(=O)[O-] (nonaromatic ring conformer: 30.79101052907704 kcal/mol)

$$$$
433580
     RDKit          3D

 34 34  0  0  0  0  0  0  0  0999 V2000
   -0.8841    2.5269   -1.9489 C   0  0  0  0  0  0  0  0  0  0  0  0
    0.5692    2.1605   -1.6355 C   0  0  1  0  0  0  0  0  0  0  0  0
    0.6863    0.7683   -1.3896 O   0  0  0  0  0  0  0  0  0  0  0  0
    0.4219    0.4308   -0.0344 C   0  0  2  0  0  0  0  0  0  0  0  0
    1.7359   -0.0031    0.6594 C   0  0  1  0  0  0  0  0  0  0  0  0
    2.6633    1.1306    0.7826 N   0  0  0  0  0  4  0  0  0  0  0  0
    1.4151   -0.6028    2.0490 C   0  0  2  0  0  0  0  0  0  0  0  0
    2.6018   -1.0577    2.6411 O   0  0  0  0  0  0  0  0  0  0  0  0
    0.5281   -1.7002    1.9183 O   0  0  0  0  0  0  0  0  0  0  0  0
   -0.7309   -1.2710    1.4299 C   0  0  2  0  0  0  0  0  0  0  0  0
   -1.6994   -2.4625    1.4756 C   0  0  0  0  0  0  0  0  0  0  0  0
   -1.7800   -2.9786    2.7769 O   0  0  0  0  0  0  0  0  0  0  0  0
   -0.5841   -0.7326   -0.0122 C   0  0  1  0  0  0  0  0  0  0  0  0
   -1.8248   -0.2722   -0.4864 O   0  0  0  0  0  0  0  0  0  0  0  0
    1.4316    2.5055   -2.8121 C   0  0  0  0  0  0  0  0  0  0  0  0
    2.1398    3.5468   -2.7960 O   0  0  0  0  0  0  0  0  0  0  0  0
    1.4247    1.6987   -3.9438 O   0  0  0  0  0  1  0  0  0  0  0  0
   -1.5217    2.3682   -1.0547 H   0  0  0  0  0  0  0  0  0  0  0  0
   -0.9586    3.5981   -2.2356 H   0  0  0  0  0  0  0  0  0  0  0  0
   -1.2722    1.9004   -2.7806 H   0  0  0  0  0  0  0  0  0  0  0  0
    0.9202    2.7735   -0.7717 H   0  0  0  0  0  0  0  0  0  0  0  0
   -0.0316    1.2664    0.5544 H   0  0  0  0  0  0  0  0  0  0  0  0
    2.2195   -0.7947    0.0414 H   0  0  0  0  0  0  0  0  0  0  0  0
    2.2261    1.9068    1.3310 H   0  0  0  0  0  0  0  0  0  0  0  0
    2.9277    1.4804   -0.1663 H   0  0  0  0  0  0  0  0  0  0  0  0
    3.5430    0.8283    1.2598 H   0  0  0  0  0  0  0  0  0  0  0  0
    0.9729    0.1877    2.7036 H   0  0  0  0  0  0  0  0  0  0  0  0
    2.3684   -1.3260    3.5679 H   0  0  0  0  0  0  0  0  0  0  0  0
   -1.1555   -0.4734    2.0849 H   0  0  0  0  0  0  0  0  0  0  0  0
   -1.3339   -3.2662    0.8009 H   0  0  0  0  0  0  0  0  0  0  0  0
   -2.7126   -2.1587    1.1272 H   0  0  0  0  0  0  0  0  0  0  0  0
   -2.3339   -2.3429    3.3011 H   0  0  0  0  0  0  0  0  0  0  0  0
   -0.1896   -1.5482   -0.6672 H   0  0  0  0  0  0  0  0  0  0  0  0
   -2.2282   -1.0075   -1.0175 H   0  0  0  0  0  0  0  0  0  0  0  0
  1  2  1  0
  2  3  1  0
  3  4  1  0
  4  5  1  0
  5  6  1  0
  5  7  1  0
  7  8  1  0
  7  9  1  0
  9 10  1  0
 10 11  1  0
 11 12  1  0
 10 13  1  0
 13 14  1  0
  2 15  1  0
 15 16  2  0
 15 17  1  0
 13  4  1  0
  1 18  1  0
  1 19  1  0
  1 20  1  0
  2 21  1  1
  4 22  1  1
  5 23  1  6
  6 24  1  0
  6 25  1  0
  6 26  1  0
  7 27  1  1
  8 28  1  0
 10 29  1  1
 11 30  1  0
 11 31  1  0
 12 32  1  0
 13 33  1  6
 14 34  1  0
M  CHG  2   6   1  17  -1
M  END
>  <UniqueID>  (219) 
218

>  <SMILES>  (219) 
C[C@@H](O[C@H]1[C@H](O)[C@@H](CO)O[C@@H](O)[C@@H]1[NH3+])C(=O)[O-]

>  <Energy>  (219) 
30.867644097560653

>  <Genealogy>  (219) 
CC(OC1C([NH3+])C(O)OC(CO)C1O)C(=O)[O-] (protonated)
C[C@@H](O[C@H]1[C@H](O)[C@@H](CO)O[C@@H](O)[C@@H]1[NH3+])C(=O)[O-] (chirality)
C[C@@H](O[C@H]1[C@H](O)[C@@H](CO)O[C@@H](O)[C@@H]1[NH3+])C(=O)[O-] (3D coordinates assigned)
C[C@@H](O[C@H]1[C@H](O)[C@@H](CO)O[C@@H](O)[C@@H]1[NH3+])C(=O)[O-] (nonaromatic ring conformer: 30.867644097560653 kcal/mol)

$$$$
433580
     RDKit          3D

 33 33  0  0  0  0  0  0  0  0999 V2000
    0.6102   -4.0824   -0.2364 C   0  0  0  0  0  0  0  0  0  0  0  0
   -0.5540   -3.0876   -0.2055 C   0  0  2  0  0  0  0  0  0  0  0  0
   -0.2592   -2.0167    0.6750 O   0  0  0  0  0  0  0  0  0  0  0  0
    0.4817   -0.9827    0.0406 C   0  0  2  0  0  0  0  0  0  0  0  0
    1.6908   -0.6172    0.9231 C   0  0  2  0  0  0  0  0  0  0  0  0
    1.2865   -0.4577    2.3253 N   0  0  0  0  0  0  0  0  0  0  0  0
    2.3860    0.6620    0.3936 C   0  0  1  0  0  0  0  0  0  0  0  0
    3.0320    0.4196   -0.8328 O   0  0  0  0  0  0  0  0  0  0  0  0
    1.4689    1.7380    0.2703 O   0  0  0  0  0  0  0  0  0  0  0  0
    0.4322    1.4434   -0.6546 C   0  0  2  0  0  0  0  0  0  0  0  0
   -0.4226    2.7059   -0.8448 C   0  0  0  0  0  0  0  0  0  0  0  0
   -0.9429    3.1508    0.3806 O   0  0  0  0  0  0  0  0  0  0  0  0
   -0.4216    0.2469   -0.1726 C   0  0  1  0  0  0  0  0  0  0  0  0
   -1.4003   -0.0476   -1.1369 O   0  0  0  0  0  0  0  0  0  0  0  0
   -1.7867   -3.7823    0.2897 C   0  0  0  0  0  0  0  0  0  0  0  0
   -2.6684   -4.1660   -0.5236 O   0  0  0  0  0  0  0  0  0  0  0  0
   -1.9440   -4.0446    1.6455 O   0  0  0  0  0  1  0  0  0  0  0  0
    0.8364   -4.4472    0.7887 H   0  0  0  0  0  0  0  0  0  0  0  0
    0.3579   -4.9499   -0.8834 H   0  0  0  0  0  0  0  0  0  0  0  0
    1.5203   -3.5981   -0.6476 H   0  0  0  0  0  0  0  0  0  0  0  0
   -0.7639   -2.7332   -1.2430 H   0  0  0  0  0  0  0  0  0  0  0  0
    0.8954   -1.2818   -0.9542 H   0  0  0  0  0  0  0  0  0  0  0  0
    2.4144   -1.4621    0.8712 H   0  0  0  0  0  0  0  0  0  0  0  0
    0.7760    0.4461    2.4511 H   0  0  0  0  0  0  0  0  0  0  0  0
    2.1486   -0.4056    2.9153 H   0  0  0  0  0  0  0  0  0  0  0  0
    3.1544    0.9726    1.1382 H   0  0  0  0  0  0  0  0  0  0  0  0
    3.8276   -0.1401   -0.6340 H   0  0  0  0  0  0  0  0  0  0  0  0
    0.8607    1.2036   -1.6553 H   0  0  0  0  0  0  0  0  0  0  0  0
   -1.2352    2.5246   -1.5862 H   0  0  0  0  0  0  0  0  0  0  0  0
    0.2200    3.5103   -1.2620 H   0  0  0  0  0  0  0  0  0  0  0  0
   -1.8426    2.7429    0.4779 H   0  0  0  0  0  0  0  0  0  0  0  0
   -0.9090    0.5150    0.7940 H   0  0  0  0  0  0  0  0  0  0  0  0
   -2.1347   -0.5235   -0.6679 H   0  0  0  0  0  0  0  0  0  0  0  0
  1  2  1  0
  2  3  1  0
  3  4  1  0
  4  5  1  0
  5  6  1  0
  5  7  1  0
  7  8  1  0
  7  9  1  0
  9 10  1  0
 10 11  1  0
 11 12  1  0
 10 13  1  0
 13 14  1  0
  2 15  1  0
 15 16  2  0
 15 17  1  0
 13  4  1  0
  1 18  1  0
  1 19  1  0
  1 20  1  0
  2 21  1  6
  4 22  1  6
  5 23  1  1
  6 24  1  0
  6 25  1  0
  7 26  1  1
  8 27  1  0
 10 28  1  6
 11 29  1  0
 11 30  1  0
 12 31  1  0
 13 32  1  1
 14 33  1  0
M  CHG  1  17  -1
M  END
>  <UniqueID>  (220) 
219

>  <SMILES>  (220) 
C[C@H](O[C@@H]1[C@H](N)[C@@H](O)O[C@H](CO)[C@H]1O)C(=O)[O-]

>  <Energy>  (220) 
32.85926202664895

>  <Genealogy>  (220) 
CC(OC1C(N)C(O)OC(CO)C1O)C(=O)[O-] (protonated)
C[C@H](O[C@@H]1[C@H](N)[C@@H](O)O[C@H](CO)[C@H]1O)C(=O)[O-] (chirality)
C[C@H](O[C@@H]1[C@H](N)[C@@H](O)O[C@H](CO)[C@H]1O)C(=O)[O-] (3D coordinates assigned)
C[C@H](O[C@@H]1[C@H](N)[C@@H](O)O[C@H](CO)[C@H]1O)C(=O)[O-] (nonaromatic ring conformer: 32.85926202664895 kcal/mol)

$$$$
408523
     RDKit          3D

 46 46  0  0  0  0  0  0  0  0999 V2000
   -2.3894   -1.5335    4.8080 C   0  0  0  0  0  0  0  0  0  0  0  0
   -2.5682   -0.5163    3.7331 C   0  0  0  0  0  0  0  0  0  0  0  0
   -3.4935    0.3354    3.8259 O   0  0  0  0  0  0  0  0  0  0  0  0
   -1.6810   -0.4925    2.6544 O   0  0  0  0  0  0  0  0  0  0  0  0
   -1.7886    0.4470    1.5882 C   0  0  0  0  0  0  0  0  0  0  0  0
   -0.7008    0.1962    0.5362 C   0  0  1  0  0  0  0  0  0  0  0  0
    0.5694    0.2060    1.1708 O   0  0  0  0  0  0  0  0  0  0  0  0
    1.6253    0.1389    0.2222 C   0  0  2  0  0  0  0  0  0  0  0  0
    1.6276    1.2874   -0.6306 O   0  0  0  0  0  0  0  0  0  0  0  0
    1.8119    2.5896   -0.1573 C   0  0  0  0  0  0  0  0  0  0  0  0
    1.7828    3.7287   -1.1179 C   0  0  0  0  0  0  0  0  0  0  0  0
    2.0400    2.8065    1.0637 O   0  0  0  0  0  0  0  0  0  0  0  0
    1.5554   -1.1682   -0.6033 C   0  0  2  0  0  0  0  0  0  0  0  0
    2.6427   -1.2381   -1.5889 N   0  0  0  0  0  4  0  0  0  0  0  0
    0.1742   -1.3194   -1.2764 C   0  0  2  0  0  0  0  0  0  0  0  0
    0.0315   -0.3522   -2.3204 O   0  0  0  0  0  0  0  0  0  0  0  0
   -0.9413   -0.4309   -3.3221 C   0  0  0  0  0  0  0  0  0  0  0  0
   -1.0630    0.6758   -4.3128 C   0  0  0  0  0  0  0  0  0  0  0  0
   -1.7351   -1.4090   -3.3781 O   0  0  0  0  0  0  0  0  0  0  0  0
   -0.9342   -1.1329   -0.2199 C   0  0  1  0  0  0  0  0  0  0  0  0
   -0.9200   -2.2252    0.7025 O   0  0  0  0  0  0  0  0  0  0  0  0
   -1.4452   -3.4889    0.4136 C   0  0  0  0  0  0  0  0  0  0  0  0
   -1.3384   -4.5753    1.4282 C   0  0  0  0  0  0  0  0  0  0  0  0
   -1.9781   -3.7283   -0.7039 O   0  0  0  0  0  0  0  0  0  0  0  0
   -1.8417   -1.0795    5.6597 H   0  0  0  0  0  0  0  0  0  0  0  0
   -1.8091   -2.3969    4.4204 H   0  0  0  0  0  0  0  0  0  0  0  0
   -3.3792   -1.8952    5.1580 H   0  0  0  0  0  0  0  0  0  0  0  0
   -1.6688    1.4752    1.9945 H   0  0  0  0  0  0  0  0  0  0  0  0
   -2.7937    0.3714    1.1178 H   0  0  0  0  0  0  0  0  0  0  0  0
   -0.7815    1.0392   -0.1883 H   0  0  0  0  0  0  0  0  0  0  0  0
    2.5836    0.1239    0.7862 H   0  0  0  0  0  0  0  0  0  0  0  0
    1.1989    3.4482   -2.0197 H   0  0  0  0  0  0  0  0  0  0  0  0
    2.8196    3.9843   -1.4199 H   0  0  0  0  0  0  0  0  0  0  0  0
    1.3084    4.6143   -0.6449 H   0  0  0  0  0  0  0  0  0  0  0  0
    1.6814   -2.0174    0.1075 H   0  0  0  0  0  0  0  0  0  0  0  0
    2.5839   -0.4503   -2.2739 H   0  0  0  0  0  0  0  0  0  0  0  0
    2.5909   -2.1452   -2.1069 H   0  0  0  0  0  0  0  0  0  0  0  0
    3.5655   -1.1936   -1.0985 H   0  0  0  0  0  0  0  0  0  0  0  0
    0.1102   -2.3395   -1.7161 H   0  0  0  0  0  0  0  0  0  0  0  0
   -0.1248    1.2691   -4.3367 H   0  0  0  0  0  0  0  0  0  0  0  0
   -1.2515    0.2605   -5.3251 H   0  0  0  0  0  0  0  0  0  0  0  0
   -1.9049    1.3388   -4.0244 H   0  0  0  0  0  0  0  0  0  0  0  0
   -1.9277   -1.0861   -0.7188 H   0  0  0  0  0  0  0  0  0  0  0  0
   -1.1978   -4.1379    2.4388 H   0  0  0  0  0  0  0  0  0  0  0  0
   -0.4693   -5.2219    1.1872 H   0  0  0  0  0  0  0  0  0  0  0  0
   -2.2643   -5.1882    1.4285 H   0  0  0  0  0  0  0  0  0  0  0  0
  1  2  1  0
  2  3  2  0
  2  4  1  0
  4  5  1  0
  5  6  1  0
  6  7  1  0
  7  8  1  0
  8  9  1  0
  9 10  1  0
 10 11  1  0
 10 12  2  0
  8 13  1  0
 13 14  1  0
 13 15  1  0
 15 16  1  0
 16 17  1  0
 17 18  1  0
 17 19  2  0
 15 20  1  0
 20 21  1  0
 21 22  1  0
 22 23  1  0
 22 24  2  0
 20  6  1  0
  1 25  1  0
  1 26  1  0
  1 27  1  0
  5 28  1  0
  5 29  1  0
  6 30  1  6
  8 31  1  1
 11 32  1  0
 11 33  1  0
 11 34  1  0
 13 35  1  1
 14 36  1  0
 14 37  1  0
 14 38  1  0
 15 39  1  6
 18 40  1  0
 18 41  1  0
 18 42  1  0
 20 43  1  6
 23 44  1  0
 23 45  1  0
 23 46  1  0
M  CHG  1  14   1
M  END
>  <UniqueID>  (221) 
220

>  <SMILES>  (221) 
CC(=O)OC[C@H]1O[C@H](OC(C)=O)[C@H]([NH3+])[C@H](OC(C)=O)[C@H]1OC(C)=O

>  <Energy>  (221) 
29.333860935431186

>  <Genealogy>  (221) 
CC(=O)OCC1OC(OC(C)=O)C([NH3+])C(OC(C)=O)C1OC(C)=O (protonated)
CC(=O)OC[C@H]1O[C@H](OC(C)=O)[C@H]([NH3+])[C@H](OC(C)=O)[C@H]1OC(C)=O (chirality)
CC(=O)OC[C@H]1O[C@H](OC(C)=O)[C@H]([NH3+])[C@H](OC(C)=O)[C@H]1OC(C)=O (3D coordinates assigned)
CC(=O)OC[C@H]1O[C@H](OC(C)=O)[C@H]([NH3+])[C@H](OC(C)=O)[C@H]1OC(C)=O (nonaromatic ring conformer: 29.333860935431186 kcal/mol)

$$$$
408523
     RDKit          3D

 45 45  0  0  0  0  0  0  0  0999 V2000
   -2.4207   -3.1007   -3.0388 C   0  0  0  0  0  0  0  0  0  0  0  0
   -2.4194   -3.1026   -1.5482 C   0  0  0  0  0  0  0  0  0  0  0  0
   -2.7901   -4.1338   -0.9240 O   0  0  0  0  0  0  0  0  0  0  0  0
   -2.0496   -1.9449   -0.8591 O   0  0  0  0  0  0  0  0  0  0  0  0
   -2.0333   -1.8686    0.5640 C   0  0  0  0  0  0  0  0  0  0  0  0
   -1.5630   -0.4816    1.0181 C   0  0  2  0  0  0  0  0  0  0  0  0
   -2.4596    0.4897    0.5016 O   0  0  0  0  0  0  0  0  0  0  0  0
   -2.1570    1.7733    1.0188 C   0  0  2  0  0  0  0  0  0  0  0  0
   -3.1793    2.6783    0.6012 O   0  0  0  0  0  0  0  0  0  0  0  0
   -3.3640    3.9488    1.1586 C   0  0  0  0  0  0  0  0  0  0  0  0
   -4.4363    4.8348    0.6230 C   0  0  0  0  0  0  0  0  0  0  0  0
   -2.6686    4.3330    2.1379 O   0  0  0  0  0  0  0  0  0  0  0  0
   -0.7754    2.2405    0.5015 C   0  0  2  0  0  0  0  0  0  0  0  0
   -0.7867    2.3471   -0.9628 N   0  0  0  0  0  0  0  0  0  0  0  0
    0.2899    1.2282    0.9699 C   0  0  2  0  0  0  0  0  0  0  0  0
    1.5641    1.5796    0.4242 O   0  0  0  0  0  0  0  0  0  0  0  0
    2.7816    1.3606    1.0794 C   0  0  0  0  0  0  0  0  0  0  0  0
    4.0567    1.7093    0.3915 C   0  0  0  0  0  0  0  0  0  0  0  0
    2.8129    0.9063    2.2553 O   0  0  0  0  0  0  0  0  0  0  0  0
   -0.1155   -0.1991    0.5472 C   0  0  1  0  0  0  0  0  0  0  0  0
    0.7673   -1.1579    1.1352 O   0  0  0  0  0  0  0  0  0  0  0  0
    1.8943   -1.6785    0.4885 C   0  0  0  0  0  0  0  0  0  0  0  0
    2.7643   -2.6536    1.2045 C   0  0  0  0  0  0  0  0  0  0  0  0
    2.1640   -1.3608   -0.7017 O   0  0  0  0  0  0  0  0  0  0  0  0
   -2.0954   -4.0910   -3.4217 H   0  0  0  0  0  0  0  0  0  0  0  0
   -1.7238   -2.3237   -3.4172 H   0  0  0  0  0  0  0  0  0  0  0  0
   -3.4444   -2.8825   -3.4074 H   0  0  0  0  0  0  0  0  0  0  0  0
   -3.0585   -2.0502    0.9545 H   0  0  0  0  0  0  0  0  0  0  0  0
   -1.3613   -2.6533    0.9754 H   0  0  0  0  0  0  0  0  0  0  0  0
   -1.5940   -0.4828    2.1334 H   0  0  0  0  0  0  0  0  0  0  0  0
   -2.1573    1.7453    2.1347 H   0  0  0  0  0  0  0  0  0  0  0  0
   -4.1140    5.8963    0.6710 H   0  0  0  0  0  0  0  0  0  0  0  0
   -5.3593    4.7037    1.2251 H   0  0  0  0  0  0  0  0  0  0  0  0
   -4.6503    4.5730   -0.4344 H   0  0  0  0  0  0  0  0  0  0  0  0
   -0.5335    3.2348    0.9398 H   0  0  0  0  0  0  0  0  0  0  0  0
    0.1339    2.7299   -1.2777 H   0  0  0  0  0  0  0  0  0  0  0  0
   -1.4918    3.0674   -1.2403 H   0  0  0  0  0  0  0  0  0  0  0  0
    0.3315    1.2802    2.0823 H   0  0  0  0  0  0  0  0  0  0  0  0
    4.8247    0.9355    0.6021 H   0  0  0  0  0  0  0  0  0  0  0  0
    4.4166    2.6940    0.7552 H   0  0  0  0  0  0  0  0  0  0  0  0
    3.8939    1.7627   -0.7053 H   0  0  0  0  0  0  0  0  0  0  0  0
   -0.0855   -0.2728   -0.5635 H   0  0  0  0  0  0  0  0  0  0  0  0
    3.8313   -2.4511    0.9731 H   0  0  0  0  0  0  0  0  0  0  0  0
    2.6126   -2.5639    2.3006 H   0  0  0  0  0  0  0  0  0  0  0  0
    2.5069   -3.6843    0.8838 H   0  0  0  0  0  0  0  0  0  0  0  0
  1  2  1  0
  2  3  2  0
  2  4  1  0
  4  5  1  0
  5  6  1  0
  6  7  1  0
  7  8  1  0
  8  9  1  0
  9 10  1  0
 10 11  1  0
 10 12  2  0
  8 13  1  0
 13 14  1  0
 13 15  1  0
 15 16  1  0
 16 17  1  0
 17 18  1  0
 17 19  2  0
 15 20  1  0
 20 21  1  0
 21 22  1  0
 22 23  1  0
 22 24  2  0
 20  6  1  0
  1 25  1  0
  1 26  1  0
  1 27  1  0
  5 28  1  0
  5 29  1  0
  6 30  1  1
  8 31  1  1
 11 32  1  0
 11 33  1  0
 11 34  1  0
 13 35  1  1
 14 36  1  0
 14 37  1  0
 15 38  1  1
 18 39  1  0
 18 40  1  0
 18 41  1  0
 20 42  1  6
 23 43  1  0
 23 44  1  0
 23 45  1  0
M  END
>  <UniqueID>  (222) 
221

>  <SMILES>  (222) 
CC(=O)OC[C@@H]1O[C@H](OC(C)=O)[C@H](N)[C@H](OC(C)=O)[C@H]1OC(C)=O

>  <Energy>  (222) 
29.706725634073063

>  <Genealogy>  (222) 
CC(=O)OC[C@@H]1O[C@H](OC(C)=O)[C@H](N)[C@H](OC(C)=O)[C@H]1OC(C)=O (chirality)
CC(=O)OC[C@@H]1O[C@H](OC(C)=O)[C@H](N)[C@H](OC(C)=O)[C@H]1OC(C)=O (3D coordinates assigned)
CC(=O)OC[C@@H]1O[C@H](OC(C)=O)[C@H](N)[C@H](OC(C)=O)[C@H]1OC(C)=O (nonaromatic ring conformer: 29.706725634073063 kcal/mol)

$$$$
408523
     RDKit          3D

 46 46  0  0  0  0  0  0  0  0999 V2000
   -1.0425   -5.7191   -1.9076 C   0  0  0  0  0  0  0  0  0  0  0  0
   -0.8993   -4.2471   -2.0943 C   0  0  0  0  0  0  0  0  0  0  0  0
   -1.8051   -3.6020   -2.6893 O   0  0  0  0  0  0  0  0  0  0  0  0
    0.2203   -3.5935   -1.5679 O   0  0  0  0  0  0  0  0  0  0  0  0
    0.3970   -2.1781   -1.6074 C   0  0  0  0  0  0  0  0  0  0  0  0
   -0.4878   -1.4947   -0.5555 C   0  0  1  0  0  0  0  0  0  0  0  0
   -0.1204   -1.9653    0.7288 O   0  0  0  0  0  0  0  0  0  0  0  0
   -1.0569   -1.5310    1.7007 C   0  0  1  0  0  0  0  0  0  0  0  0
   -0.7164   -2.1163    2.9554 O   0  0  0  0  0  0  0  0  0  0  0  0
   -0.7617   -3.4944    3.1884 C   0  0  0  0  0  0  0  0  0  0  0  0
   -0.4044   -4.0232    4.5355 C   0  0  0  0  0  0  0  0  0  0  0  0
   -1.1434   -4.2892    2.2865 O   0  0  0  0  0  0  0  0  0  0  0  0
   -1.0244    0.0100    1.8334 C   0  0  2  0  0  0  0  0  0  0  0  0
   -2.0144    0.4690    2.8179 N   0  0  0  0  0  4  0  0  0  0  0  0
   -1.2856    0.6612    0.4561 C   0  0  1  0  0  0  0  0  0  0  0  0
   -1.0617    2.0700    0.5470 O   0  0  0  0  0  0  0  0  0  0  0  0
   -1.4932    2.9858   -0.4187 C   0  0  0  0  0  0  0  0  0  0  0  0
   -1.1686    4.4311   -0.2544 C   0  0  0  0  0  0  0  0  0  0  0  0
   -2.1919    2.6111   -1.3992 O   0  0  0  0  0  0  0  0  0  0  0  0
   -0.3641    0.0445   -0.6131 C   0  0  1  0  0  0  0  0  0  0  0  0
    0.9836    0.4559   -0.3596 O   0  0  0  0  0  0  0  0  0  0  0  0
    1.9022    0.7908   -1.3613 C   0  0  0  0  0  0  0  0  0  0  0  0
    3.2835    1.2009   -0.9810 C   0  0  0  0  0  0  0  0  0  0  0  0
    1.5699    0.7790   -2.5775 O   0  0  0  0  0  0  0  0  0  0  0  0
   -1.5825   -6.1644   -2.7699 H   0  0  0  0  0  0  0  0  0  0  0  0
   -0.0398   -6.1894   -1.8310 H   0  0  0  0  0  0  0  0  0  0  0  0
   -1.6109   -5.9188   -0.9756 H   0  0  0  0  0  0  0  0  0  0  0  0
    1.4644   -1.9631   -1.3920 H   0  0  0  0  0  0  0  0  0  0  0  0
    0.1661   -1.7941   -2.6254 H   0  0  0  0  0  0  0  0  0  0  0  0
   -1.5419   -1.7740   -0.7890 H   0  0  0  0  0  0  0  0  0  0  0  0
   -2.0884   -1.8618    1.4320 H   0  0  0  0  0  0  0  0  0  0  0  0
   -1.3266   -4.1494    5.1396 H   0  0  0  0  0  0  0  0  0  0  0  0
    0.1069   -5.0041    4.4374 H   0  0  0  0  0  0  0  0  0  0  0  0
    0.2760   -3.3146    5.0524 H   0  0  0  0  0  0  0  0  0  0  0  0
   -0.0088    0.3087    2.1815 H   0  0  0  0  0  0  0  0  0  0  0  0
   -1.8036    0.0592    3.7564 H   0  0  0  0  0  0  0  0  0  0  0  0
   -1.9740    1.5100    2.9070 H   0  0  0  0  0  0  0  0  0  0  0  0
   -2.9795    0.1867    2.5294 H   0  0  0  0  0  0  0  0  0  0  0  0
   -2.3467    0.4742    0.1716 H   0  0  0  0  0  0  0  0  0  0  0  0
   -0.2729    4.5473    0.3912 H   0  0  0  0  0  0  0  0  0  0  0  0
   -2.0278    4.9519    0.2169 H   0  0  0  0  0  0  0  0  0  0  0  0
   -0.9588    4.8891   -1.2440 H   0  0  0  0  0  0  0  0  0  0  0  0
   -0.7034    0.4030   -1.6101 H   0  0  0  0  0  0  0  0  0  0  0  0
    3.3950    2.2967   -1.1153 H   0  0  0  0  0  0  0  0  0  0  0  0
    4.0225    0.6748   -1.6210 H   0  0  0  0  0  0  0  0  0  0  0  0
    3.4797    0.9426    0.0808 H   0  0  0  0  0  0  0  0  0  0  0  0
  1  2  1  0
  2  3  2  0
  2  4  1  0
  4  5  1  0
  5  6  1  0
  6  7  1  0
  7  8  1  0
  8  9  1  0
  9 10  1  0
 10 11  1  0
 10 12  2  0
  8 13  1  0
 13 14  1  0
 13 15  1  0
 15 16  1  0
 16 17  1  0
 17 18  1  0
 17 19  2  0
 15 20  1  0
 20 21  1  0
 21 22  1  0
 22 23  1  0
 22 24  2  0
 20  6  1  0
  1 25  1  0
  1 26  1  0
  1 27  1  0
  5 28  1  0
  5 29  1  0
  6 30  1  6
  8 31  1  6
 11 32  1  0
 11 33  1  0
 11 34  1  0
 13 35  1  1
 14 36  1  0
 14 37  1  0
 14 38  1  0
 15 39  1  6
 18 40  1  0
 18 41  1  0
 18 42  1  0
 20 43  1  6
 23 44  1  0
 23 45  1  0
 23 46  1  0
M  CHG  1  14   1
M  END
>  <UniqueID>  (223) 
222

>  <SMILES>  (223) 
CC(=O)OC[C@H]1O[C@@H](OC(C)=O)[C@H]([NH3+])[C@@H](OC(C)=O)[C@H]1OC(C)=O

>  <Energy>  (223) 
29.725061435668387

>  <Genealogy>  (223) 
CC(=O)OCC1OC(OC(C)=O)C([NH3+])C(OC(C)=O)C1OC(C)=O (protonated)
CC(=O)OC[C@H]1O[C@@H](OC(C)=O)[C@H]([NH3+])[C@@H](OC(C)=O)[C@H]1OC(C)=O (chirality)
CC(=O)OC[C@H]1O[C@@H](OC(C)=O)[C@H]([NH3+])[C@@H](OC(C)=O)[C@H]1OC(C)=O (3D coordinates assigned)
CC(=O)OC[C@H]1O[C@@H](OC(C)=O)[C@H]([NH3+])[C@@H](OC(C)=O)[C@H]1OC(C)=O (nonaromatic ring conformer: 29.725061435668387 kcal/mol)

$$$$
312829
     RDKit          3D

 50 50  0  0  0  0  0  0  0  0999 V2000
    3.8886    2.6305   -2.0537 C   0  0  0  0  0  0  0  0  0  0  0  0
    2.3950    2.6390   -2.0536 C   0  0  0  0  0  0  0  0  0  0  0  0
    1.7793    3.7330   -2.1694 O   0  0  0  0  0  0  0  0  0  0  0  0
    1.6757    1.4057   -1.9141 N   0  0  0  0  0  0  0  0  0  0  0  0
    0.2133    1.3425   -1.7910 C   0  0  1  0  0  0  0  0  0  0  0  0
   -0.3515    0.2352   -2.7058 C   0  0  1  0  0  0  0  0  0  0  0  0
    0.0982    0.4352   -4.0460 O   0  0  0  0  0  0  0  0  0  0  0  0
   -0.3884    1.4443   -4.8849 C   0  0  0  0  0  0  0  0  0  0  0  0
    0.1897    1.6043   -6.2494 C   0  0  0  0  0  0  0  0  0  0  0  0
   -1.3405    2.1863   -4.5200 O   0  0  0  0  0  0  0  0  0  0  0  0
    0.0976   -1.0360   -2.2734 O   0  0  0  0  0  0  0  0  0  0  0  0
   -0.4387   -1.3515   -0.9992 C   0  0  1  0  0  0  0  0  0  0  0  0
   -0.0660   -2.8046   -0.6767 C   0  0  0  0  0  0  0  0  0  0  0  0
   -0.7236   -3.2336    0.5122 O   0  0  0  0  0  0  0  0  0  0  0  0
   -0.5256   -4.4974    1.0728 C   0  0  0  0  0  0  0  0  0  0  0  0
   -1.2322   -4.8571    2.3351 C   0  0  0  0  0  0  0  0  0  0  0  0
    0.2109   -5.3477    0.5026 O   0  0  0  0  0  0  0  0  0  0  0  0
    0.1137   -0.3808    0.0734 C   0  0  2  0  0  0  0  0  0  0  0  0
   -0.4956   -0.6691    1.3342 O   0  0  0  0  0  0  0  0  0  0  0  0
    0.0922   -0.3784    2.5702 C   0  0  0  0  0  0  0  0  0  0  0  0
   -0.6412   -0.7048    3.8258 C   0  0  0  0  0  0  0  0  0  0  0  0
    1.2411    0.1365    2.6374 O   0  0  0  0  0  0  0  0  0  0  0  0
   -0.1983    1.0729   -0.3291 C   0  0  1  0  0  0  0  0  0  0  0  0
    0.4774    1.9693    0.5544 O   0  0  0  0  0  0  0  0  0  0  0  0
    0.1467    3.3219    0.6863 C   0  0  0  0  0  0  0  0  0  0  0  0
    0.9465    4.1832    1.6024 C   0  0  0  0  0  0  0  0  0  0  0  0
   -0.8442    3.8083    0.0769 O   0  0  0  0  0  0  0  0  0  0  0  0
    4.2565    1.9665   -2.8639 H   0  0  0  0  0  0  0  0  0  0  0  0
    4.2865    3.6546   -2.2183 H   0  0  0  0  0  0  0  0  0  0  0  0
    4.2560    2.2533   -1.0763 H   0  0  0  0  0  0  0  0  0  0  0  0
    2.2285    0.5251   -1.8055 H   0  0  0  0  0  0  0  0  0  0  0  0
   -0.2381    2.3077   -2.1049 H   0  0  0  0  0  0  0  0  0  0  0  0
   -1.4671    0.2686   -2.7025 H   0  0  0  0  0  0  0  0  0  0  0  0
    1.2315    1.2207   -6.2660 H   0  0  0  0  0  0  0  0  0  0  0  0
   -0.4212    1.0332   -6.9791 H   0  0  0  0  0  0  0  0  0  0  0  0
    0.1985    2.6769   -6.5371 H   0  0  0  0  0  0  0  0  0  0  0  0
   -1.5529   -1.2939   -1.0215 H   0  0  0  0  0  0  0  0  0  0  0  0
   -0.3808   -3.4577   -1.5199 H   0  0  0  0  0  0  0  0  0  0  0  0
    1.0359   -2.8949   -0.5534 H   0  0  0  0  0  0  0  0  0  0  0  0
   -1.4271   -3.9412    2.9324 H   0  0  0  0  0  0  0  0  0  0  0  0
   -0.6096   -5.5518    2.9379 H   0  0  0  0  0  0  0  0  0  0  0  0
   -2.1981   -5.3465    2.0916 H   0  0  0  0  0  0  0  0  0  0  0  0
    1.2161   -0.5225    0.1429 H   0  0  0  0  0  0  0  0  0  0  0  0
   -0.0677   -1.4576    4.4073 H   0  0  0  0  0  0  0  0  0  0  0  0
   -1.6433   -1.1208    3.5866 H   0  0  0  0  0  0  0  0  0  0  0  0
   -0.7676    0.2153    4.4350 H   0  0  0  0  0  0  0  0  0  0  0  0
   -1.2983    1.2240   -0.2333 H   0  0  0  0  0  0  0  0  0  0  0  0
    0.9784    5.2249    1.2183 H   0  0  0  0  0  0  0  0  0  0  0  0
    1.9847    3.7957    1.6725 H   0  0  0  0  0  0  0  0  0  0  0  0
    0.4853    4.1769    2.6118 H   0  0  0  0  0  0  0  0  0  0  0  0
  1  2  1  0
  2  3  2  0
  2  4  1  0
  4  5  1  0
  5  6  1  0
  6  7  1  0
  7  8  1  0
  8  9  1  0
  8 10  2  0
  6 11  1  0
 11 12  1  0
 12 13  1  0
 13 14  1  0
 14 15  1  0
 15 16  1  0
 15 17  2  0
 12 18  1  0
 18 19  1  0
 19 20  1  0
 20 21  1  0
 20 22  2  0
 18 23  1  0
 23 24  1  0
 24 25  1  0
 25 26  1  0
 25 27  2  0
 23  5  1  0
  1 28  1  0
  1 29  1  0
  1 30  1  0
  4 31  1  0
  5 32  1  6
  6 33  1  6
  9 34  1  0
  9 35  1  0
  9 36  1  0
 12 37  1  6
 13 38  1  0
 13 39  1  0
 16 40  1  0
 16 41  1  0
 16 42  1  0
 18 43  1  1
 21 44  1  0
 21 45  1  0
 21 46  1  0
 23 47  1  6
 26 48  1  0
 26 49  1  0
 26 50  1  0
M  END
>  <UniqueID>  (224) 
223

>  <SMILES>  (224) 
CC(=O)N[C@@H]1[C@H](OC(C)=O)[C@@H](OC(C)=O)[C@H](COC(C)=O)O[C@@H]1OC(C)=O

>  <Energy>  (224) 
29.394909922876018

>  <Genealogy>  (224) 
CC(=O)N[C@@H]1[C@H](OC(C)=O)[C@@H](OC(C)=O)[C@H](COC(C)=O)O[C@@H]1OC(C)=O (chirality)
CC(=O)N[C@@H]1[C@H](OC(C)=O)[C@@H](OC(C)=O)[C@H](COC(C)=O)O[C@@H]1OC(C)=O (3D coordinates assigned)
CC(=O)N[C@@H]1[C@H](OC(C)=O)[C@@H](OC(C)=O)[C@H](COC(C)=O)O[C@@H]1OC(C)=O (nonaromatic ring conformer: 29.394909922876018 kcal/mol)

$$$$
312829
     RDKit          3D

 50 50  0  0  0  0  0  0  0  0999 V2000
    4.9195   -1.6242    0.1057 H   0  0  0  0  0  0  0  0  0  0  0  0
    4.0397   -1.1803    0.3396 O   0  0  0  0  0  0  0  0  0  0  0  0
    3.4384   -1.3789    1.5823 C   0  0  0  0  0  0  0  0  0  0  0  0
    2.3214   -0.7857    1.8802 N   0  0  0  0  0  0  0  0  0  0  0  0
    1.5815    0.0899    0.9687 C   0  0  2  0  0  0  0  0  0  0  0  0
    2.2921    0.8006    0.4878 H   0  0  0  0  0  0  0  0  0  0  0  0
    0.5607    0.9248    1.7687 C   0  0  2  0  0  0  0  0  0  0  0  0
    1.1389    1.5940    2.4431 H   0  0  0  0  0  0  0  0  0  0  0  0
   -0.2645    0.0824    2.5788 O   0  0  0  0  0  0  0  0  0  0  0  0
   -1.1977    0.5787    3.4936 C   0  0  0  0  0  0  0  0  0  0  0  0
   -1.3197    1.8194    3.6826 O   0  0  0  0  0  0  0  0  0  0  0  0
   -2.0350   -0.3733    4.2770 C   0  0  0  0  0  0  0  0  0  0  0  0
   -2.0095   -1.3785    3.8059 H   0  0  0  0  0  0  0  0  0  0  0  0
   -1.6429   -0.4466    5.3127 H   0  0  0  0  0  0  0  0  0  0  0  0
   -3.0861   -0.0174    4.3053 H   0  0  0  0  0  0  0  0  0  0  0  0
   -0.2227    1.7459    0.9132 O   0  0  0  0  0  0  0  0  0  0  0  0
   -0.9768    0.9688   -0.0045 C   0  0  1  0  0  0  0  0  0  0  0  0
   -1.6245    0.2463    0.5414 H   0  0  0  0  0  0  0  0  0  0  0  0
   -1.9175    1.9039   -0.7807 C   0  0  0  0  0  0  0  0  0  0  0  0
   -1.3216    2.6625   -1.3311 H   0  0  0  0  0  0  0  0  0  0  0  0
   -2.5776    2.4513   -0.0726 H   0  0  0  0  0  0  0  0  0  0  0  0
   -2.7107    1.1776   -1.7196 O   0  0  0  0  0  0  0  0  0  0  0  0
   -3.7815    0.3556   -1.3515 C   0  0  0  0  0  0  0  0  0  0  0  0
   -4.1787    0.3078   -0.1557 O   0  0  0  0  0  0  0  0  0  0  0  0
   -4.4957   -0.4291   -2.3982 C   0  0  0  0  0  0  0  0  0  0  0  0
   -3.8064   -0.6511   -3.2396 H   0  0  0  0  0  0  0  0  0  0  0  0
   -5.3577    0.1581   -2.7772 H   0  0  0  0  0  0  0  0  0  0  0  0
   -4.8621   -1.3876   -1.9736 H   0  0  0  0  0  0  0  0  0  0  0  0
   -0.0408    0.1917   -0.9570 C   0  0  1  0  0  0  0  0  0  0  0  0
   -0.6594   -0.4196   -1.6504 H   0  0  0  0  0  0  0  0  0  0  0  0
    0.7465    1.1141   -1.7150 O   0  0  0  0  0  0  0  0  0  0  0  0
    1.4410    0.7633   -2.8776 C   0  0  0  0  0  0  0  0  0  0  0  0
    1.3758   -0.4073   -3.3419 O   0  0  0  0  0  0  0  0  0  0  0  0
    2.2995    1.7774   -3.5526 C   0  0  0  0  0  0  0  0  0  0  0  0
    1.9833    2.7998   -3.2571 H   0  0  0  0  0  0  0  0  0  0  0  0
    3.3572    1.6231   -3.2543 H   0  0  0  0  0  0  0  0  0  0  0  0
    2.2099    1.6786   -4.6549 H   0  0  0  0  0  0  0  0  0  0  0  0
    0.8740   -0.7322   -0.1277 C   0  0  2  0  0  0  0  0  0  0  0  0
    1.6465   -1.1836   -0.7873 H   0  0  0  0  0  0  0  0  0  0  0  0
    0.1093   -1.7802    0.4750 O   0  0  0  0  0  0  0  0  0  0  0  0
   -0.4082   -2.8686   -0.2345 C   0  0  0  0  0  0  0  0  0  0  0  0
   -0.1330   -3.0359   -1.4537 O   0  0  0  0  0  0  0  0  0  0  0  0
   -1.2490   -3.8714    0.4781 C   0  0  0  0  0  0  0  0  0  0  0  0
   -0.6034   -4.6878    0.8635 H   0  0  0  0  0  0  0  0  0  0  0  0
   -1.7725   -3.3871    1.3294 H   0  0  0  0  0  0  0  0  0  0  0  0
   -2.0068   -4.2968   -0.2136 H   0  0  0  0  0  0  0  0  0  0  0  0
    4.1021   -2.2505    2.5989 C   0  0  0  0  0  0  0  0  0  0  0  0
    4.5432   -3.1396    2.1019 H   0  0  0  0  0  0  0  0  0  0  0  0
    4.9071   -1.6788    3.1053 H   0  0  0  0  0  0  0  0  0  0  0  0
    3.3680   -2.5969    3.3576 H   0  0  0  0  0  0  0  0  0  0  0  0
  1  2  1  0
  2  3  1  0
  3  4  2  0
  4  5  1  0
  5  6  1  6
  5  7  1  0
  7  8  1  1
  7  9  1  0
  9 10  1  0
 10 11  2  0
 10 12  1  0
 12 13  1  0
 12 14  1  0
 12 15  1  0
  7 16  1  0
 16 17  1  0
 17 18  1  1
 17 19  1  0
 19 20  1  0
 19 21  1  0
 19 22  1  0
 22 23  1  0
 23 24  2  0
 23 25  1  0
 25 26  1  0
 25 27  1  0
 25 28  1  0
 17 29  1  0
 29 30  1  6
 29 31  1  0
 31 32  1  0
 32 33  2  0
 32 34  1  0
 34 35  1  0
 34 36  1  0
 34 37  1  0
 29 38  1  0
 38 39  1  6
 38 40  1  0
 40 41  1  0
 41 42  2  0
 41 43  1  0
 43 44  1  0
 43 45  1  0
 43 46  1  0
  3 47  1  0
 47 48  1  0
 47 49  1  0
 47 50  1  0
 38  5  1  0
M  END
>  <UniqueID>  (225) 
224

>  <SMILES>  (225) 
CC(=O)OC[C@@H]1O[C@@H](OC(C)=O)[C@@H](/N=C(\C)O)[C@@H](OC(C)=O)[C@@H]1OC(C)=O

>  <Energy>  (225) 
30.29075268101526

>  <Genealogy>  (225) 
CC(=O)OCC1OC(OC(C)=O)C(N=C(C)O)C(OC(C)=O)C1OC(C)=O (tautomer)
CC(=O)OC[C@@H]1O[C@@H](OC(C)=O)[C@@H](N=C(C)O)[C@@H](OC(C)=O)[C@@H]1OC(C)=O (chirality)
CC(=O)OC[C@@H]1O[C@@H](OC(C)=O)[C@@H](/N=C(\C)O)[C@@H](OC(C)=O)[C@@H]1OC(C)=O (cis-trans isomerization)
CC(=O)OC[C@@H]1O[C@@H](OC(C)=O)[C@@H](/N=C(\C)O)[C@@H](OC(C)=O)[C@@H]1OC(C)=O (3D coordinates assigned)
CC(=O)OC[C@@H]1O[C@@H](OC(C)=O)[C@@H](/N=C(\C)O)[C@@H](OC(C)=O)[C@@H]1OC(C)=O (nonaromatic ring conformer: 30.29075268101526 kcal/mol)

$$$$
312829
     RDKit          3D

 50 50  0  0  0  0  0  0  0  0999 V2000
   -4.6328   -1.4685   -2.3460 H   0  0  0  0  0  0  0  0  0  0  0  0
   -3.8804   -1.0118   -1.8446 O   0  0  0  0  0  0  0  0  0  0  0  0
   -3.9059   -0.8938   -0.4552 C   0  0  0  0  0  0  0  0  0  0  0  0
   -2.9463   -0.2864    0.1761 N   0  0  0  0  0  0  0  0  0  0  0  0
   -1.7616    0.2852   -0.4682 C   0  0  2  0  0  0  0  0  0  0  0  0
   -2.0767    0.8546   -1.3723 H   0  0  0  0  0  0  0  0  0  0  0  0
   -0.7804   -0.8289   -0.9033 C   0  0  2  0  0  0  0  0  0  0  0  0
   -1.2719   -1.4190   -1.7062 H   0  0  0  0  0  0  0  0  0  0  0  0
   -0.4945   -1.7132    0.1846 O   0  0  0  0  0  0  0  0  0  0  0  0
    0.3123   -2.8476    0.0528 C   0  0  0  0  0  0  0  0  0  0  0  0
    0.7665   -3.1897   -1.0727 O   0  0  0  0  0  0  0  0  0  0  0  0
    0.6236   -3.6717    1.2545 C   0  0  0  0  0  0  0  0  0  0  0  0
    1.7119   -3.8891    1.2893 H   0  0  0  0  0  0  0  0  0  0  0  0
    0.3377   -3.1238    2.1769 H   0  0  0  0  0  0  0  0  0  0  0  0
    0.0584   -4.6256    1.2074 H   0  0  0  0  0  0  0  0  0  0  0  0
    0.4118   -0.2811   -1.4473 O   0  0  0  0  0  0  0  0  0  0  0  0
    1.1015    0.5066   -0.4897 C   0  0  1  0  0  0  0  0  0  0  0  0
    1.3026   -0.0816    0.4338 H   0  0  0  0  0  0  0  0  0  0  0  0
    2.4729    0.8906   -1.0601 C   0  0  0  0  0  0  0  0  0  0  0  0
    2.3388    1.4474   -2.0108 H   0  0  0  0  0  0  0  0  0  0  0  0
    3.0257    1.5436   -0.3496 H   0  0  0  0  0  0  0  0  0  0  0  0
    3.2385   -0.2806   -1.3418 O   0  0  0  0  0  0  0  0  0  0  0  0
    3.8270   -1.0748   -0.3510 C   0  0  0  0  0  0  0  0  0  0  0  0
    3.8271   -0.7088    0.8558 O   0  0  0  0  0  0  0  0  0  0  0  0
    4.5043   -2.3455   -0.7354 C   0  0  0  0  0  0  0  0  0  0  0  0
    5.5952   -2.1686   -0.8349 H   0  0  0  0  0  0  0  0  0  0  0  0
    4.1033   -2.7104   -1.7041 H   0  0  0  0  0  0  0  0  0  0  0  0
    4.3258   -3.1206    0.0396 H   0  0  0  0  0  0  0  0  0  0  0  0
    0.2630    1.7456   -0.1006 C   0  0  1  0  0  0  0  0  0  0  0  0
    0.8029    2.3355    0.6725 H   0  0  0  0  0  0  0  0  0  0  0  0
   -0.0042    2.5596   -1.2472 O   0  0  0  0  0  0  0  0  0  0  0  0
    0.7439    3.6893   -1.5987 C   0  0  0  0  0  0  0  0  0  0  0  0
    1.7171    4.0691   -0.8926 O   0  0  0  0  0  0  0  0  0  0  0  0
    0.4126    4.4243   -2.8521 C   0  0  0  0  0  0  0  0  0  0  0  0
    0.5637    5.5147   -2.7064 H   0  0  0  0  0  0  0  0  0  0  0  0
   -0.6471    4.2429   -3.1290 H   0  0  0  0  0  0  0  0  0  0  0  0
    1.0695    4.0687   -3.6728 H   0  0  0  0  0  0  0  0  0  0  0  0
   -1.0767    1.2727    0.4951 C   0  0  2  0  0  0  0  0  0  0  0  0
   -1.7499    2.1491    0.6329 H   0  0  0  0  0  0  0  0  0  0  0  0
   -0.8660    0.6402    1.7613 O   0  0  0  0  0  0  0  0  0  0  0  0
   -0.5727    1.3367    2.9382 C   0  0  0  0  0  0  0  0  0  0  0  0
   -0.5711    2.5975    2.9606 O   0  0  0  0  0  0  0  0  0  0  0  0
   -0.3149    0.5748    4.1928 C   0  0  0  0  0  0  0  0  0  0  0  0
   -1.2591    0.4793    4.7680 H   0  0  0  0  0  0  0  0  0  0  0  0
    0.4413    1.1024    4.8116 H   0  0  0  0  0  0  0  0  0  0  0  0
    0.0667   -0.4386    3.9473 H   0  0  0  0  0  0  0  0  0  0  0  0
   -5.0666   -1.4344    0.3157 C   0  0  0  0  0  0  0  0  0  0  0  0
   -5.9123   -0.7182    0.2591 H   0  0  0  0  0  0  0  0  0  0  0  0
   -4.7914   -1.5904    1.3808 H   0  0  0  0  0  0  0  0  0  0  0  0
   -5.3832   -2.4076   -0.1140 H   0  0  0  0  0  0  0  0  0  0  0  0
  1  2  1  0
  2  3  1  0
  3  4  2  0
  4  5  1  0
  5  6  1  6
  5  7  1  0
  7  8  1  6
  7  9  1  0
  9 10  1  0
 10 11  2  0
 10 12  1  0
 12 13  1  0
 12 14  1  0
 12 15  1  0
  7 16  1  0
 16 17  1  0
 17 18  1  1
 17 19  1  0
 19 20  1  0
 19 21  1  0
 19 22  1  0
 22 23  1  0
 23 24  2  0
 23 25  1  0
 25 26  1  0
 25 27  1  0
 25 28  1  0
 17 29  1  0
 29 30  1  1
 29 31  1  0
 31 32  1  0
 32 33  2  0
 32 34  1  0
 34 35  1  0
 34 36  1  0
 34 37  1  0
 29 38  1  0
 38 39  1  1
 38 40  1  0
 40 41  1  0
 41 42  2  0
 41 43  1  0
 43 44  1  0
 43 45  1  0
 43 46  1  0
  3 47  1  0
 47 48  1  0
 47 49  1  0
 47 50  1  0
 38  5  1  0
M  END
>  <UniqueID>  (226) 
225

>  <SMILES>  (226) 
CC(=O)OC[C@@H]1O[C@@H](OC(C)=O)[C@@H](/N=C(/C)O)[C@@H](OC(C)=O)[C@@H]1OC(C)=O

>  <Energy>  (226) 
31.630035146206392

>  <Genealogy>  (226) 
CC(=O)OCC1OC(OC(C)=O)C(N=C(C)O)C(OC(C)=O)C1OC(C)=O (tautomer)
CC(=O)OC[C@@H]1O[C@@H](OC(C)=O)[C@@H](N=C(C)O)[C@@H](OC(C)=O)[C@@H]1OC(C)=O (chirality)
CC(=O)OC[C@@H]1O[C@@H](OC(C)=O)[C@@H](/N=C(/C)O)[C@@H](OC(C)=O)[C@@H]1OC(C)=O (cis-trans isomerization)
CC(=O)OC[C@@H]1O[C@@H](OC(C)=O)[C@@H](/N=C(/C)O)[C@@H](OC(C)=O)[C@@H]1OC(C)=O (3D coordinates assigned)
CC(=O)OC[C@@H]1O[C@@H](OC(C)=O)[C@@H](/N=C(/C)O)[C@@H](OC(C)=O)[C@@H]1OC(C)=O (nonaromatic ring conformer: 31.630035146206392 kcal/mol)

$$$$
254124
     RDKit          3D

 33 33  0  0  0  0  0  0  0  0999 V2000
   -0.3247    3.0732    1.1612 C   0  0  0  0  0  0  0  0  0  0  0  0
   -0.6372    1.7089    1.3401 O   0  0  0  0  0  0  0  0  0  0  0  0
   -0.0004    0.9291    0.3456 C   0  0  1  0  0  0  0  0  0  0  0  0
    1.3756    0.7968    0.6726 O   0  0  0  0  0  0  0  0  0  0  0  0
    2.0665    0.0929   -0.3460 C   0  0  1  0  0  0  0  0  0  0  0  0
    3.5715    0.1689   -0.0605 C   0  0  0  0  0  0  0  0  0  0  0  0
    4.2924   -0.4446   -1.0936 O   0  0  0  0  0  0  0  0  0  0  0  0
    1.5707   -1.3700   -0.4124 C   0  0  1  0  0  0  0  0  0  0  0  0
    1.8442   -2.0218    0.8038 O   0  0  0  0  0  0  0  0  0  0  0  0
    0.0538   -1.3731   -0.6892 C   0  0  1  0  0  0  0  0  0  0  0  0
   -0.4622   -2.6760   -0.5970 O   0  0  0  0  0  0  0  0  0  0  0  0
   -0.6721   -0.4592    0.3153 C   0  0  2  0  0  0  0  0  0  0  0  0
   -2.0832   -0.3239   -0.0615 N   0  0  0  0  0  0  0  0  0  0  0  0
   -3.1491   -0.3261    0.8986 C   0  0  0  0  0  0  0  0  0  0  0  0
   -4.5531   -0.0811    0.4512 C   0  0  0  0  0  0  0  0  0  0  0  0
   -2.9092   -0.5027    2.1237 O   0  0  0  0  0  0  0  0  0  0  0  0
   -0.7722    3.6501    1.9963 H   0  0  0  0  0  0  0  0  0  0  0  0
    0.7739    3.2485    1.1826 H   0  0  0  0  0  0  0  0  0  0  0  0
   -0.7615    3.4600    0.2143 H   0  0  0  0  0  0  0  0  0  0  0  0
   -0.1289    1.3991   -0.6627 H   0  0  0  0  0  0  0  0  0  0  0  0
    1.9043    0.5831   -1.3355 H   0  0  0  0  0  0  0  0  0  0  0  0
    3.8698    1.2390    0.0108 H   0  0  0  0  0  0  0  0  0  0  0  0
    3.8042   -0.3225    0.9108 H   0  0  0  0  0  0  0  0  0  0  0  0
    5.2501   -0.3659   -0.8454 H   0  0  0  0  0  0  0  0  0  0  0  0
    2.0898   -1.8887   -1.2529 H   0  0  0  0  0  0  0  0  0  0  0  0
    1.8809   -2.9945    0.6091 H   0  0  0  0  0  0  0  0  0  0  0  0
   -0.1192   -0.9784   -1.7191 H   0  0  0  0  0  0  0  0  0  0  0  0
   -0.1517   -3.1637   -1.4043 H   0  0  0  0  0  0  0  0  0  0  0  0
   -0.5868   -0.9178    1.3264 H   0  0  0  0  0  0  0  0  0  0  0  0
   -2.3137   -0.0846   -1.0531 H   0  0  0  0  0  0  0  0  0  0  0  0
   -4.6706    0.9869    0.1732 H   0  0  0  0  0  0  0  0  0  0  0  0
   -4.7818   -0.7158   -0.4303 H   0  0  0  0  0  0  0  0  0  0  0  0
   -5.2700   -0.3260    1.2635 H   0  0  0  0  0  0  0  0  0  0  0  0
  1  2  1  0
  2  3  1  0
  3  4  1  0
  4  5  1  0
  5  6  1  0
  6  7  1  0
  5  8  1  0
  8  9  1  0
  8 10  1  0
 10 11  1  0
 10 12  1  0
 12 13  1  0
 13 14  1  0
 14 15  1  0
 14 16  2  0
 12  3  1  0
  1 17  1  0
  1 18  1  0
  1 19  1  0
  3 20  1  6
  5 21  1  6
  6 22  1  0
  6 23  1  0
  7 24  1  0
  8 25  1  6
  9 26  1  0
 10 27  1  6
 11 28  1  0
 12 29  1  1
 13 30  1  0
 15 31  1  0
 15 32  1  0
 15 33  1  0
M  END
>  <UniqueID>  (227) 
226

>  <SMILES>  (227) 
CO[C@H]1O[C@@H](CO)[C@@H](O)[C@@H](O)[C@@H]1NC(C)=O

>  <Energy>  (227) 
27.78138592379717

>  <Genealogy>  (227) 
CO[C@H]1O[C@@H](CO)[C@@H](O)[C@@H](O)[C@@H]1NC(C)=O (chirality)
CO[C@H]1O[C@@H](CO)[C@@H](O)[C@@H](O)[C@@H]1NC(C)=O (3D coordinates assigned)
CO[C@H]1O[C@@H](CO)[C@@H](O)[C@@H](O)[C@@H]1NC(C)=O (nonaromatic ring conformer: 27.78138592379717 kcal/mol)

$$$$
254124
     RDKit          3D

 33 33  0  0  0  0  0  0  0  0999 V2000
   -0.3582   -0.3047   -3.4779 C   0  0  0  0  0  0  0  0  0  0  0  0
   -0.8490    0.5276   -2.4493 O   0  0  0  0  0  0  0  0  0  0  0  0
    0.2011    0.8861   -1.5708 C   0  0  2  0  0  0  0  0  0  0  0  0
    0.5378   -0.2286   -0.7580 O   0  0  0  0  0  0  0  0  0  0  0  0
    1.6728    0.0588    0.0426 C   0  0  2  0  0  0  0  0  0  0  0  0
    2.0915   -1.2241    0.7747 C   0  0  0  0  0  0  0  0  0  0  0  0
    2.4545   -2.2164   -0.1476 O   0  0  0  0  0  0  0  0  0  0  0  0
    1.3415    1.1843    1.0565 C   0  0  1  0  0  0  0  0  0  0  0  0
    2.4583    1.5046    1.8501 O   0  0  0  0  0  0  0  0  0  0  0  0
    0.8321    2.4355    0.3151 C   0  0  2  0  0  0  0  0  0  0  0  0
    0.3605    3.3745    1.2468 O   0  0  0  0  0  0  0  0  0  0  0  0
   -0.2769    2.0582   -0.6897 C   0  0  2  0  0  0  0  0  0  0  0  0
   -1.5163    1.6986    0.0129 N   0  0  0  0  0  0  0  0  0  0  0  0
   -2.5827    2.6323    0.2334 C   0  0  0  0  0  0  0  0  0  0  0  0
   -3.7774    2.2213    1.0304 C   0  0  0  0  0  0  0  0  0  0  0  0
   -2.5101    3.8075   -0.2174 O   0  0  0  0  0  0  0  0  0  0  0  0
   -1.2104   -0.6173   -4.1154 H   0  0  0  0  0  0  0  0  0  0  0  0
    0.1107   -1.2274   -3.0696 H   0  0  0  0  0  0  0  0  0  0  0  0
    0.3615    0.2429   -4.1254 H   0  0  0  0  0  0  0  0  0  0  0  0
    1.0877    1.2393   -2.1561 H   0  0  0  0  0  0  0  0  0  0  0  0
    2.5320    0.3691   -0.5979 H   0  0  0  0  0  0  0  0  0  0  0  0
    2.9708   -1.0171    1.4209 H   0  0  0  0  0  0  0  0  0  0  0  0
    1.2656   -1.5848    1.4308 H   0  0  0  0  0  0  0  0  0  0  0  0
    1.6121   -2.6339   -0.4664 H   0  0  0  0  0  0  0  0  0  0  0  0
    0.5360    0.8239    1.7340 H   0  0  0  0  0  0  0  0  0  0  0  0
    3.1891    1.7906    1.2417 H   0  0  0  0  0  0  0  0  0  0  0  0
    1.6844    2.8772   -0.2545 H   0  0  0  0  0  0  0  0  0  0  0  0
    0.2803    4.2390    0.7652 H   0  0  0  0  0  0  0  0  0  0  0  0
   -0.4602    2.9291   -1.3579 H   0  0  0  0  0  0  0  0  0  0  0  0
   -1.5876    0.7577    0.4631 H   0  0  0  0  0  0  0  0  0  0  0  0
   -4.5798    2.9856    0.9543 H   0  0  0  0  0  0  0  0  0  0  0  0
   -3.4880    2.1040    2.0953 H   0  0  0  0  0  0  0  0  0  0  0  0
   -4.1671    1.2545    0.6487 H   0  0  0  0  0  0  0  0  0  0  0  0
  1  2  1  0
  2  3  1  0
  3  4  1  0
  4  5  1  0
  5  6  1  0
  6  7  1  0
  5  8  1  0
  8  9  1  0
  8 10  1  0
 10 11  1  0
 10 12  1  0
 12 13  1  0
 13 14  1  0
 14 15  1  0
 14 16  2  0
 12  3  1  0
  1 17  1  0
  1 18  1  0
  1 19  1  0
  3 20  1  6
  5 21  1  6
  6 22  1  0
  6 23  1  0
  7 24  1  0
  8 25  1  1
  9 26  1  0
 10 27  1  6
 11 28  1  0
 12 29  1  6
 13 30  1  0
 15 31  1  0
 15 32  1  0
 15 33  1  0
M  END
>  <UniqueID>  (228) 
227

>  <SMILES>  (228) 
CO[C@@H]1O[C@H](CO)[C@@H](O)[C@H](O)[C@@H]1NC(C)=O

>  <Energy>  (228) 
28.82458672021436

>  <Genealogy>  (228) 
CO[C@@H]1O[C@H](CO)[C@@H](O)[C@H](O)[C@@H]1NC(C)=O (chirality)
CO[C@@H]1O[C@H](CO)[C@@H](O)[C@H](O)[C@@H]1NC(C)=O (3D coordinates assigned)
CO[C@@H]1O[C@H](CO)[C@@H](O)[C@H](O)[C@@H]1NC(C)=O (nonaromatic ring conformer: 28.82458672021436 kcal/mol)

$$$$
254124
     RDKit          3D

 33 33  0  0  0  0  0  0  0  0999 V2000
   -0.7808    0.9871   -3.7475 C   0  0  0  0  0  0  0  0  0  0  0  0
   -0.7951    0.3453   -2.4905 O   0  0  0  0  0  0  0  0  0  0  0  0
    0.2724    0.7997   -1.6745 C   0  0  2  0  0  0  0  0  0  0  0  0
    0.7140   -0.2965   -0.8910 O   0  0  0  0  0  0  0  0  0  0  0  0
    1.8509    0.0544   -0.1175 C   0  0  2  0  0  0  0  0  0  0  0  0
    2.3990   -1.2183    0.5453 C   0  0  0  0  0  0  0  0  0  0  0  0
    1.4220   -1.8292    1.3468 O   0  0  0  0  0  0  0  0  0  0  0  0
    1.4853    1.1378    0.9273 C   0  0  1  0  0  0  0  0  0  0  0  0
    2.6330    1.5391    1.6330 O   0  0  0  0  0  0  0  0  0  0  0  0
    0.8910    2.3608    0.2124 C   0  0  2  0  0  0  0  0  0  0  0  0
    0.4064    3.2719    1.1652 O   0  0  0  0  0  0  0  0  0  0  0  0
   -0.2322    1.9377   -0.7569 C   0  0  2  0  0  0  0  0  0  0  0  0
   -1.4248    1.5055   -0.0156 N   0  0  0  0  0  0  0  0  0  0  0  0
   -2.5361    2.3748    0.2435 C   0  0  0  0  0  0  0  0  0  0  0  0
   -3.6798    1.8911    1.0737 C   0  0  0  0  0  0  0  0  0  0  0  0
   -2.5459    3.5542   -0.2020 O   0  0  0  0  0  0  0  0  0  0  0  0
   -1.6807    0.6734   -4.3151 H   0  0  0  0  0  0  0  0  0  0  0  0
   -0.8173    2.0936   -3.6432 H   0  0  0  0  0  0  0  0  0  0  0  0
    0.1127    0.6818   -4.3352 H   0  0  0  0  0  0  0  0  0  0  0  0
    1.1303    1.1775   -2.2891 H   0  0  0  0  0  0  0  0  0  0  0  0
    2.6635    0.4419   -0.7766 H   0  0  0  0  0  0  0  0  0  0  0  0
    3.3206   -0.9943    1.1308 H   0  0  0  0  0  0  0  0  0  0  0  0
    2.6924   -1.9347   -0.2514 H   0  0  0  0  0  0  0  0  0  0  0  0
    1.5437   -1.4798    2.2678 H   0  0  0  0  0  0  0  0  0  0  0  0
    0.7151    0.7373    1.6292 H   0  0  0  0  0  0  0  0  0  0  0  0
    2.6801    0.9853    2.4555 H   0  0  0  0  0  0  0  0  0  0  0  0
    1.7045    2.8451   -0.3796 H   0  0  0  0  0  0  0  0  0  0  0  0
    0.2697    4.1341    0.6921 H   0  0  0  0  0  0  0  0  0  0  0  0
   -0.4822    2.8111   -1.3979 H   0  0  0  0  0  0  0  0  0  0  0  0
   -1.4278    0.5594    0.4293 H   0  0  0  0  0  0  0  0  0  0  0  0
   -4.5252    2.6104    1.0316 H   0  0  0  0  0  0  0  0  0  0  0  0
   -4.0278    0.9077    0.6942 H   0  0  0  0  0  0  0  0  0  0  0  0
   -3.3500    1.7803    2.1276 H   0  0  0  0  0  0  0  0  0  0  0  0
  1  2  1  0
  2  3  1  0
  3  4  1  0
  4  5  1  0
  5  6  1  0
  6  7  1  0
  5  8  1  0
  8  9  1  0
  8 10  1  0
 10 11  1  0
 10 12  1  0
 12 13  1  0
 13 14  1  0
 14 15  1  0
 14 16  2  0
 12  3  1  0
  1 17  1  0
  1 18  1  0
  1 19  1  0
  3 20  1  6
  5 21  1  6
  6 22  1  0
  6 23  1  0
  7 24  1  0
  8 25  1  1
  9 26  1  0
 10 27  1  6
 11 28  1  0
 12 29  1  6
 13 30  1  0
 15 31  1  0
 15 32  1  0
 15 33  1  0
M  END
>  <UniqueID>  (229) 
228

>  <SMILES>  (229) 
CO[C@@H]1O[C@H](CO)[C@@H](O)[C@H](O)[C@@H]1NC(C)=O

>  <Energy>  (229) 
30.106972036154314

>  <Genealogy>  (229) 
CO[C@@H]1O[C@H](CO)[C@@H](O)[C@H](O)[C@@H]1NC(C)=O (chirality)
CO[C@@H]1O[C@H](CO)[C@@H](O)[C@H](O)[C@@H]1NC(C)=O (3D coordinates assigned)
CO[C@@H]1O[C@H](CO)[C@@H](O)[C@H](O)[C@@H]1NC(C)=O (nonaromatic ring conformer: 30.106972036154314 kcal/mol)

$$$$
202260
     RDKit          3D

 46 46  0  0  0  0  0  0  0  0999 V2000
    4.7415    2.1680    0.6614 C   0  0  0  0  0  0  0  0  0  0  0  0
    3.8941    0.9690    0.4045 C   0  0  0  0  0  0  0  0  0  0  0  0
    3.8487    0.4735   -0.7541 O   0  0  0  0  0  0  0  0  0  0  0  0
    3.1281    0.4333    1.4451 O   0  0  0  0  0  0  0  0  0  0  0  0
    2.1890   -0.6269    1.2696 C   0  0  0  0  0  0  0  0  0  0  0  0
    0.9119   -0.1489    0.5555 C   0  0  1  0  0  0  0  0  0  0  0  0
    0.0811   -1.2800    0.3602 O   0  0  0  0  0  0  0  0  0  0  0  0
   -1.0412   -0.9476   -0.4371 C   0  0  1  0  0  0  0  0  0  0  0  0
   -1.7747   -2.1393   -0.7115 O   0  0  0  0  0  0  0  0  0  0  0  0
   -1.2616   -3.1885   -1.4804 C   0  0  0  0  0  0  0  0  0  0  0  0
   -2.1011   -4.3951   -1.7286 C   0  0  0  0  0  0  0  0  0  0  0  0
   -0.1162   -3.1064   -2.0017 O   0  0  0  0  0  0  0  0  0  0  0  0
   -1.9524    0.0465    0.3152 C   0  0  2  0  0  0  0  0  0  0  0  0
   -3.1260    0.3968   -0.4978 N   0  0  0  0  0  4  0  0  0  0  0  0
   -1.1464    1.3106    0.6776 C   0  0  1  0  0  0  0  0  0  0  0  0
   -1.9380    2.1423    1.5296 O   0  0  0  0  0  0  0  0  0  0  0  0
   -1.8997    3.5415    1.5077 C   0  0  0  0  0  0  0  0  0  0  0  0
   -2.7031    4.3113    2.4991 C   0  0  0  0  0  0  0  0  0  0  0  0
   -1.1643    4.1578    0.6894 O   0  0  0  0  0  0  0  0  0  0  0  0
    0.1659    0.9224    1.3872 C   0  0  2  0  0  0  0  0  0  0  0  0
    0.9953    2.0783    1.5284 O   0  0  0  0  0  0  0  0  0  0  0  0
    1.0555    2.8616    2.6864 C   0  0  0  0  0  0  0  0  0  0  0  0
    1.9665    4.0402    2.7228 C   0  0  0  0  0  0  0  0  0  0  0  0
    0.3843    2.5597    3.7102 O   0  0  0  0  0  0  0  0  0  0  0  0
    4.9313    2.2732    1.7502 H   0  0  0  0  0  0  0  0  0  0  0  0
    4.2175    3.0753    0.2956 H   0  0  0  0  0  0  0  0  0  0  0  0
    5.7137    2.0667    0.1349 H   0  0  0  0  0  0  0  0  0  0  0  0
    2.6603   -1.4524    0.6920 H   0  0  0  0  0  0  0  0  0  0  0  0
    1.9222   -1.0316    2.2692 H   0  0  0  0  0  0  0  0  0  0  0  0
    1.2134    0.2828   -0.4271 H   0  0  0  0  0  0  0  0  0  0  0  0
   -0.7208   -0.5030   -1.4094 H   0  0  0  0  0  0  0  0  0  0  0  0
   -2.6328   -4.2826   -2.6961 H   0  0  0  0  0  0  0  0  0  0  0  0
   -2.8468   -4.5115   -0.9145 H   0  0  0  0  0  0  0  0  0  0  0  0
   -1.4634   -5.3035   -1.7634 H   0  0  0  0  0  0  0  0  0  0  0  0
   -2.2988   -0.4379    1.2573 H   0  0  0  0  0  0  0  0  0  0  0  0
   -3.6928   -0.4588   -0.6973 H   0  0  0  0  0  0  0  0  0  0  0  0
   -2.8312    0.8317   -1.4026 H   0  0  0  0  0  0  0  0  0  0  0  0
   -3.7351    1.0688    0.0226 H   0  0  0  0  0  0  0  0  0  0  0  0
   -0.9024    1.8474   -0.2680 H   0  0  0  0  0  0  0  0  0  0  0  0
   -2.0580    4.5930    3.3571 H   0  0  0  0  0  0  0  0  0  0  0  0
   -3.5477    3.6914    2.8661 H   0  0  0  0  0  0  0  0  0  0  0  0
   -3.1105    5.2306    2.0280 H   0  0  0  0  0  0  0  0  0  0  0  0
   -0.0716    0.4842    2.3834 H   0  0  0  0  0  0  0  0  0  0  0  0
    1.5137    4.8541    3.3274 H   0  0  0  0  0  0  0  0  0  0  0  0
    2.1417    4.4141    1.6923 H   0  0  0  0  0  0  0  0  0  0  0  0
    2.9369    3.7431    3.1718 H   0  0  0  0  0  0  0  0  0  0  0  0
  1  2  1  0
  2  3  2  0
  2  4  1  0
  4  5  1  0
  5  6  1  0
  6  7  1  0
  7  8  1  0
  8  9  1  0
  9 10  1  0
 10 11  1  0
 10 12  2  0
  8 13  1  0
 13 14  1  0
 13 15  1  0
 15 16  1  0
 16 17  1  0
 17 18  1  0
 17 19  2  0
 15 20  1  0
 20 21  1  0
 21 22  1  0
 22 23  1  0
 22 24  2  0
 20  6  1  0
  1 25  1  0
  1 26  1  0
  1 27  1  0
  5 28  1  0
  5 29  1  0
  6 30  1  6
  8 31  1  6
 11 32  1  0
 11 33  1  0
 11 34  1  0
 13 35  1  1
 14 36  1  0
 14 37  1  0
 14 38  1  0
 15 39  1  6
 18 40  1  0
 18 41  1  0
 18 42  1  0
 20 43  1  1
 23 44  1  0
 23 45  1  0
 23 46  1  0
M  CHG  1  14   1
M  END
>  <UniqueID>  (230) 
229

>  <SMILES>  (230) 
CC(=O)OC[C@H]1O[C@@H](OC(C)=O)[C@H]([NH3+])[C@@H](OC(C)=O)[C@@H]1OC(C)=O

>  <Energy>  (230) 
29.57414202236387

>  <Genealogy>  (230) 
CC(=O)OC[C@H]1O[C@@H](OC(C)=O)[C@H]([NH3+])[C@@H](OC(C)=O)[C@@H]1OC(C)=O (protonated)
CC(=O)OC[C@H]1O[C@@H](OC(C)=O)[C@H]([NH3+])[C@@H](OC(C)=O)[C@@H]1OC(C)=O (3D coordinates assigned)
CC(=O)OC[C@H]1O[C@@H](OC(C)=O)[C@H]([NH3+])[C@@H](OC(C)=O)[C@@H]1OC(C)=O (nonaromatic ring conformer: 29.57414202236387 kcal/mol)

$$$$
202260
     RDKit          3D

 45 45  0  0  0  0  0  0  0  0999 V2000
   -5.9573    0.0295   -1.7297 C   0  0  0  0  0  0  0  0  0  0  0  0
   -4.9335   -1.0540   -1.7367 C   0  0  0  0  0  0  0  0  0  0  0  0
   -5.3000   -2.2599   -1.7787 O   0  0  0  0  0  0  0  0  0  0  0  0
   -3.5793   -0.7216   -1.6487 O   0  0  0  0  0  0  0  0  0  0  0  0
   -2.5464   -1.7033   -1.6225 C   0  0  0  0  0  0  0  0  0  0  0  0
   -1.1728   -1.0305   -1.5105 C   0  0  1  0  0  0  0  0  0  0  0  0
   -0.9966   -0.1778   -2.6278 O   0  0  0  0  0  0  0  0  0  0  0  0
    0.3257    0.3266   -2.6706 C   0  0  1  0  0  0  0  0  0  0  0  0
    0.4658    1.0635   -3.8873 O   0  0  0  0  0  0  0  0  0  0  0  0
    1.6392    1.1060   -4.6508 C   0  0  0  0  0  0  0  0  0  0  0  0
    1.6678    1.9120   -5.9044 C   0  0  0  0  0  0  0  0  0  0  0  0
    2.6572    0.4422   -4.3144 O   0  0  0  0  0  0  0  0  0  0  0  0
    0.5810    1.2529   -1.4553 C   0  0  2  0  0  0  0  0  0  0  0  0
    1.9545    1.7651   -1.4806 N   0  0  0  0  0  0  0  0  0  0  0  0
    0.3264    0.4665   -0.1491 C   0  0  1  0  0  0  0  0  0  0  0  0
    0.3542    1.3531    0.9726 O   0  0  0  0  0  0  0  0  0  0  0  0
    1.4407    1.4812    1.8460 C   0  0  0  0  0  0  0  0  0  0  0  0
    1.3352    2.4047    3.0108 C   0  0  0  0  0  0  0  0  0  0  0  0
    2.4860    0.7940    1.6878 O   0  0  0  0  0  0  0  0  0  0  0  0
   -1.0473   -0.2255   -0.1993 C   0  0  2  0  0  0  0  0  0  0  0  0
   -1.1855   -1.1115    0.9148 O   0  0  0  0  0  0  0  0  0  0  0  0
   -1.6032   -0.7038    2.1867 C   0  0  0  0  0  0  0  0  0  0  0  0
   -1.6444   -1.6975    3.2966 C   0  0  0  0  0  0  0  0  0  0  0  0
   -1.9943    0.4770    2.3931 O   0  0  0  0  0  0  0  0  0  0  0  0
   -6.8013   -0.2388   -2.3996 H   0  0  0  0  0  0  0  0  0  0  0  0
   -5.5060    0.9797   -2.0847 H   0  0  0  0  0  0  0  0  0  0  0  0
   -6.3386    0.1710   -0.6972 H   0  0  0  0  0  0  0  0  0  0  0  0
   -2.7046   -2.3937   -0.7653 H   0  0  0  0  0  0  0  0  0  0  0  0
   -2.5821   -2.3005   -2.5599 H   0  0  0  0  0  0  0  0  0  0  0  0
   -0.4140   -1.8486   -1.5183 H   0  0  0  0  0  0  0  0  0  0  0  0
    1.0528   -0.5201   -2.6663 H   0  0  0  0  0  0  0  0  0  0  0  0
    1.4594    1.2531   -6.7726 H   0  0  0  0  0  0  0  0  0  0  0  0
    0.8977    2.7104   -5.8594 H   0  0  0  0  0  0  0  0  0  0  0  0
    2.6652    2.3834   -6.0317 H   0  0  0  0  0  0  0  0  0  0  0  0
   -0.1316    2.1088   -1.5041 H   0  0  0  0  0  0  0  0  0  0  0  0
    2.0928    2.3933   -0.6573 H   0  0  0  0  0  0  0  0  0  0  0  0
    2.0565    2.3967   -2.3066 H   0  0  0  0  0  0  0  0  0  0  0  0
    1.1026   -0.3259   -0.0427 H   0  0  0  0  0  0  0  0  0  0  0  0
    0.9731    1.8417    3.8960 H   0  0  0  0  0  0  0  0  0  0  0  0
    2.3270    2.8495    3.2380 H   0  0  0  0  0  0  0  0  0  0  0  0
    0.6198    3.2220    2.7814 H   0  0  0  0  0  0  0  0  0  0  0  0
   -1.8494    0.5473   -0.1776 H   0  0  0  0  0  0  0  0  0  0  0  0
   -1.3701   -1.2093    4.2555 H   0  0  0  0  0  0  0  0  0  0  0  0
   -2.6678   -2.1187    3.3778 H   0  0  0  0  0  0  0  0  0  0  0  0
   -0.9263   -2.5198    3.0952 H   0  0  0  0  0  0  0  0  0  0  0  0
  1  2  1  0
  2  3  2  0
  2  4  1  0
  4  5  1  0
  5  6  1  0
  6  7  1  0
  7  8  1  0
  8  9  1  0
  9 10  1  0
 10 11  1  0
 10 12  2  0
  8 13  1  0
 13 14  1  0
 13 15  1  0
 15 16  1  0
 16 17  1  0
 17 18  1  0
 17 19  2  0
 15 20  1  0
 20 21  1  0
 21 22  1  0
 22 23  1  0
 22 24  2  0
 20  6  1  0
  1 25  1  0
  1 26  1  0
  1 27  1  0
  5 28  1  0
  5 29  1  0
  6 30  1  1
  8 31  1  6
 11 32  1  0
 11 33  1  0
 11 34  1  0
 13 35  1  6
 14 36  1  0
 14 37  1  0
 15 38  1  1
 18 39  1  0
 18 40  1  0
 18 41  1  0
 20 42  1  6
 23 43  1  0
 23 44  1  0
 23 45  1  0
M  END
>  <UniqueID>  (231) 
230

>  <SMILES>  (231) 
CC(=O)OC[C@H]1O[C@@H](OC(C)=O)[C@H](N)[C@@H](OC(C)=O)[C@@H]1OC(C)=O

>  <Energy>  (231) 
30.8731751307614

>  <Genealogy>  (231) 
CC(=O)OC[C@H]1O[C@@H](OC(C)=O)[C@H](N)[C@@H](OC(C)=O)[C@@H]1OC(C)=O (3D coordinates assigned)
CC(=O)OC[C@H]1O[C@@H](OC(C)=O)[C@H](N)[C@@H](OC(C)=O)[C@@H]1OC(C)=O (nonaromatic ring conformer: 30.8731751307614 kcal/mol)

$$$$
202260
     RDKit          3D

 45 45  0  0  0  0  0  0  0  0999 V2000
   -4.7436   -0.5551   -4.2820 C   0  0  0  0  0  0  0  0  0  0  0  0
   -4.3032   -0.3299   -2.8759 C   0  0  0  0  0  0  0  0  0  0  0  0
   -4.9765   -0.8142   -1.9260 O   0  0  0  0  0  0  0  0  0  0  0  0
   -3.1784    0.4637   -2.6268 O   0  0  0  0  0  0  0  0  0  0  0  0
   -2.6548    0.7002   -1.3206 C   0  0  0  0  0  0  0  0  0  0  0  0
   -1.9274   -0.5525   -0.7820 C   0  0  1  0  0  0  0  0  0  0  0  0
   -1.1451   -1.2132   -1.7725 O   0  0  0  0  0  0  0  0  0  0  0  0
    0.0964   -0.5818   -2.0476 C   0  0  1  0  0  0  0  0  0  0  0  0
   -0.1092    0.6845   -2.6780 O   0  0  0  0  0  0  0  0  0  0  0  0
    0.8836    1.3775   -3.3789 C   0  0  0  0  0  0  0  0  0  0  0  0
    0.5786    2.7240   -3.9395 C   0  0  0  0  0  0  0  0  0  0  0  0
    2.0172    0.8618   -3.5761 O   0  0  0  0  0  0  0  0  0  0  0  0
    0.9777   -0.4595   -0.7849 C   0  0  2  0  0  0  0  0  0  0  0  0
    1.3597   -1.7934   -0.3119 N   0  0  0  0  0  0  0  0  0  0  0  0
    0.2238    0.3060    0.3205 C   0  0  1  0  0  0  0  0  0  0  0  0
    0.0854    1.6862   -0.0230 O   0  0  0  0  0  0  0  0  0  0  0  0
    1.1376    2.6075    0.0179 C   0  0  0  0  0  0  0  0  0  0  0  0
    0.9041    4.0085   -0.4331 C   0  0  0  0  0  0  0  0  0  0  0  0
    2.2738    2.2739    0.4510 O   0  0  0  0  0  0  0  0  0  0  0  0
   -1.1704   -0.3103    0.5482 C   0  0  2  0  0  0  0  0  0  0  0  0
   -1.0473   -1.5594    1.2342 O   0  0  0  0  0  0  0  0  0  0  0  0
   -0.7752   -1.6708    2.6025 C   0  0  0  0  0  0  0  0  0  0  0  0
   -0.5710   -3.0205    3.2006 C   0  0  0  0  0  0  0  0  0  0  0  0
   -0.6628   -0.6440    3.3259 O   0  0  0  0  0  0  0  0  0  0  0  0
   -5.5123    0.1977   -4.5538 H   0  0  0  0  0  0  0  0  0  0  0  0
   -3.8776   -0.4572   -4.9697 H   0  0  0  0  0  0  0  0  0  0  0  0
   -5.1728   -1.5737   -4.3893 H   0  0  0  0  0  0  0  0  0  0  0  0
   -3.4786    0.9874   -0.6306 H   0  0  0  0  0  0  0  0  0  0  0  0
   -1.9752    1.5712   -1.3719 H   0  0  0  0  0  0  0  0  0  0  0  0
   -2.7456   -1.2613   -0.5285 H   0  0  0  0  0  0  0  0  0  0  0  0
    0.6274   -1.2351   -2.7744 H   0  0  0  0  0  0  0  0  0  0  0  0
    1.4406    3.4051   -3.7793 H   0  0  0  0  0  0  0  0  0  0  0  0
   -0.3141    3.1512   -3.4364 H   0  0  0  0  0  0  0  0  0  0  0  0
    0.3760    2.6355   -5.0270 H   0  0  0  0  0  0  0  0  0  0  0  0
    1.9065    0.0957   -1.0420 H   0  0  0  0  0  0  0  0  0  0  0  0
    1.9341   -2.2564   -1.0536 H   0  0  0  0  0  0  0  0  0  0  0  0
    1.9954   -1.6836    0.5117 H   0  0  0  0  0  0  0  0  0  0  0  0
    0.7987    0.2448    1.2710 H   0  0  0  0  0  0  0  0  0  0  0  0
    1.6801    4.2989   -1.1719 H   0  0  0  0  0  0  0  0  0  0  0  0
    0.9513    4.6929    0.4392 H   0  0  0  0  0  0  0  0  0  0  0  0
   -0.0953    4.0949   -0.9089 H   0  0  0  0  0  0  0  0  0  0  0  0
   -1.7767    0.3794    1.1786 H   0  0  0  0  0  0  0  0  0  0  0  0
    0.5137   -3.2539    3.2222 H   0  0  0  0  0  0  0  0  0  0  0  0
   -0.9731   -3.0449    4.2354 H   0  0  0  0  0  0  0  0  0  0  0  0
   -1.0964   -3.7871    2.5934 H   0  0  0  0  0  0  0  0  0  0  0  0
  1  2  1  0
  2  3  2  0
  2  4  1  0
  4  5  1  0
  5  6  1  0
  6  7  1  0
  7  8  1  0
  8  9  1  0
  9 10  1  0
 10 11  1  0
 10 12  2  0
  8 13  1  0
 13 14  1  0
 13 15  1  0
 15 16  1  0
 16 17  1  0
 17 18  1  0
 17 19  2  0
 15 20  1  0
 20 21  1  0
 21 22  1  0
 22 23  1  0
 22 24  2  0
 20  6  1  0
  1 25  1  0
  1 26  1  0
  1 27  1  0
  5 28  1  0
  5 29  1  0
  6 30  1  1
  8 31  1  6
 11 32  1  0
 11 33  1  0
 11 34  1  0
 13 35  1  6
 14 36  1  0
 14 37  1  0
 15 38  1  1
 18 39  1  0
 18 40  1  0
 18 41  1  0
 20 42  1  1
 23 43  1  0
 23 44  1  0
 23 45  1  0
M  END
>  <UniqueID>  (232) 
231

>  <SMILES>  (232) 
CC(=O)OC[C@H]1O[C@@H](OC(C)=O)[C@H](N)[C@@H](OC(C)=O)[C@@H]1OC(C)=O

>  <Energy>  (232) 
34.7692295526893

>  <Genealogy>  (232) 
CC(=O)OC[C@H]1O[C@@H](OC(C)=O)[C@H](N)[C@@H](OC(C)=O)[C@@H]1OC(C)=O (3D coordinates assigned)
CC(=O)OC[C@H]1O[C@@H](OC(C)=O)[C@H](N)[C@@H](OC(C)=O)[C@@H]1OC(C)=O (nonaromatic ring conformer: 34.7692295526893 kcal/mol)

$$$$
198515
     RDKit          3D

 50 50  0  0  0  0  0  0  0  0999 V2000
    0.4606   -1.5303    4.4466 C   0  0  0  0  0  0  0  0  0  0  0  0
   -0.3336   -0.4285    3.8318 C   0  0  0  0  0  0  0  0  0  0  0  0
   -0.0787    0.7692    4.1335 O   0  0  0  0  0  0  0  0  0  0  0  0
   -1.3245   -0.7394    2.8947 O   0  0  0  0  0  0  0  0  0  0  0  0
   -2.0203    0.2361    2.1187 C   0  0  0  0  0  0  0  0  0  0  0  0
   -1.1962    0.7046    0.9055 C   0  0  1  0  0  0  0  0  0  0  0  0
   -0.0057    1.3316    1.3493 O   0  0  0  0  0  0  0  0  0  0  0  0
    0.6521    1.9713    0.2676 C   0  0  1  0  0  0  0  0  0  0  0  0
    1.8015    2.6511    0.7664 O   0  0  0  0  0  0  0  0  0  0  0  0
    1.7243    3.7230    1.6608 C   0  0  0  0  0  0  0  0  0  0  0  0
    2.9785    4.3699    2.1403 C   0  0  0  0  0  0  0  0  0  0  0  0
    0.6068    4.1731    2.0346 O   0  0  0  0  0  0  0  0  0  0  0  0
    1.1070    0.9396   -0.7841 C   0  0  2  0  0  0  0  0  0  0  0  0
    1.7293    1.6337   -1.9155 N   0  0  0  0  0  0  0  0  0  0  0  0
    3.1411    1.6036   -2.1721 C   0  0  0  0  0  0  0  0  0  0  0  0
    3.9125    0.9308   -1.4366 O   0  0  0  0  0  0  0  0  0  0  0  0
    3.7042    2.3352   -3.3474 C   0  0  0  0  0  0  0  0  0  0  0  0
    3.5984    1.2134   -4.9212 Br  0  0  0  0  0  0  0  0  0  0  0  0
   -0.0977    0.1034   -1.2665 C   0  0  1  0  0  0  0  0  0  0  0  0
    0.3457   -0.9749   -2.0935 O   0  0  0  0  0  0  0  0  0  0  0  0
    0.5620   -0.8675   -3.4717 C   0  0  0  0  0  0  0  0  0  0  0  0
    1.1299   -2.0272   -4.2147 C   0  0  0  0  0  0  0  0  0  0  0  0
    0.2381    0.1765   -4.1005 O   0  0  0  0  0  0  0  0  0  0  0  0
   -0.8603   -0.4604   -0.0528 C   0  0  1  0  0  0  0  0  0  0  0  0
   -0.0563   -1.4269    0.6311 O   0  0  0  0  0  0  0  0  0  0  0  0
   -0.0055   -2.7835    0.2942 C   0  0  0  0  0  0  0  0  0  0  0  0
    0.8805   -3.6944    1.0725 C   0  0  0  0  0  0  0  0  0  0  0  0
   -0.7348   -3.2519   -0.6216 O   0  0  0  0  0  0  0  0  0  0  0  0
   -0.1311   -2.4694    4.4449 H   0  0  0  0  0  0  0  0  0  0  0  0
    1.3883   -1.6858    3.8582 H   0  0  0  0  0  0  0  0  0  0  0  0
    0.7265   -1.2731    5.4935 H   0  0  0  0  0  0  0  0  0  0  0  0
   -2.2957    1.1069    2.7533 H   0  0  0  0  0  0  0  0  0  0  0  0
   -2.9674   -0.2169    1.7558 H   0  0  0  0  0  0  0  0  0  0  0  0
   -1.8414    1.4394    0.3673 H   0  0  0  0  0  0  0  0  0  0  0  0
   -0.0183    2.7236   -0.2119 H   0  0  0  0  0  0  0  0  0  0  0  0
    3.1789    5.2809    1.5389 H   0  0  0  0  0  0  0  0  0  0  0  0
    2.8763    4.6512    3.2098 H   0  0  0  0  0  0  0  0  0  0  0  0
    3.8324    3.6682    2.0347 H   0  0  0  0  0  0  0  0  0  0  0  0
    1.8360    0.2491   -0.3040 H   0  0  0  0  0  0  0  0  0  0  0  0
    1.1283    2.2474   -2.5116 H   0  0  0  0  0  0  0  0  0  0  0  0
    4.7678    2.5955   -3.1618 H   0  0  0  0  0  0  0  0  0  0  0  0
    3.1379    3.2733   -3.5239 H   0  0  0  0  0  0  0  0  0  0  0  0
   -0.8020    0.7516   -1.8369 H   0  0  0  0  0  0  0  0  0  0  0  0
    0.3156   -2.5626   -4.7436 H   0  0  0  0  0  0  0  0  0  0  0  0
    1.8782   -1.6736   -4.9546 H   0  0  0  0  0  0  0  0  0  0  0  0
    1.6259   -2.7254   -3.5078 H   0  0  0  0  0  0  0  0  0  0  0  0
   -1.8123   -0.9245   -0.3967 H   0  0  0  0  0  0  0  0  0  0  0  0
    1.7243   -3.1191    1.5068 H   0  0  0  0  0  0  0  0  0  0  0  0
    1.2894   -4.4870    0.4117 H   0  0  0  0  0  0  0  0  0  0  0  0
    0.2994   -4.1614    1.8952 H   0  0  0  0  0  0  0  0  0  0  0  0
  1  2  1  0
  2  3  2  0
  2  4  1  0
  4  5  1  0
  5  6  1  0
  6  7  1  0
  7  8  1  0
  8  9  1  0
  9 10  1  0
 10 11  1  0
 10 12  2  0
  8 13  1  0
 13 14  1  0
 14 15  1  0
 15 16  2  0
 15 17  1  0
 17 18  1  0
 13 19  1  0
 19 20  1  0
 20 21  1  0
 21 22  1  0
 21 23  2  0
 19 24  1  0
 24 25  1  0
 25 26  1  0
 26 27  1  0
 26 28  2  0
 24  6  1  0
  1 29  1  0
  1 30  1  0
  1 31  1  0
  5 32  1  0
  5 33  1  0
  6 34  1  6
  8 35  1  6
 11 36  1  0
 11 37  1  0
 11 38  1  0
 13 39  1  1
 14 40  1  0
 17 41  1  0
 17 42  1  0
 19 43  1  6
 22 44  1  0
 22 45  1  0
 22 46  1  0
 24 47  1  6
 27 48  1  0
 27 49  1  0
 27 50  1  0
M  END
>  <UniqueID>  (233) 
232

>  <SMILES>  (233) 
CC(=O)OC[C@H]1O[C@@H](OC(C)=O)[C@H](NC(=O)CBr)[C@@H](OC(C)=O)[C@H]1OC(C)=O

>  <Energy>  (233) 
29.871165526885463

>  <Genealogy>  (233) 
CC(=O)OC[C@H]1O[C@@H](OC(C)=O)[C@H](NC(=O)CBr)[C@@H](OC(C)=O)[C@H]1OC(C)=O (3D coordinates assigned)
CC(=O)OC[C@H]1O[C@@H](OC(C)=O)[C@H](NC(=O)CBr)[C@@H](OC(C)=O)[C@H]1OC(C)=O (nonaromatic ring conformer: 29.871165526885463 kcal/mol)

$$$$
198515
     RDKit          3D

 50 50  0  0  0  0  0  0  0  0999 V2000
   -3.9404   -1.2910    3.1332 C   0  0  0  0  0  0  0  0  0  0  0  0
   -2.7882   -0.3467    3.1077 C   0  0  0  0  0  0  0  0  0  0  0  0
   -2.9976    0.8930    3.0188 O   0  0  0  0  0  0  0  0  0  0  0  0
   -1.4861   -0.8617    3.1771 O   0  0  0  0  0  0  0  0  0  0  0  0
   -0.3094   -0.0579    3.0975 C   0  0  0  0  0  0  0  0  0  0  0  0
   -0.0671    0.4572    1.6681 C   0  0  1  0  0  0  0  0  0  0  0  0
    1.1559    1.1717    1.6441 O   0  0  0  0  0  0  0  0  0  0  0  0
    1.3035    1.8521    0.4105 C   0  0  1  0  0  0  0  0  0  0  0  0
    2.4872    2.6464    0.4491 O   0  0  0  0  0  0  0  0  0  0  0  0
    2.6538    3.7276    1.3194 C   0  0  0  0  0  0  0  0  0  0  0  0
    3.8539    4.6021    1.1689 C   0  0  0  0  0  0  0  0  0  0  0  0
    1.7985    3.9796    2.2094 O   0  0  0  0  0  0  0  0  0  0  0  0
    1.4237    0.8478   -0.7503 C   0  0  2  0  0  0  0  0  0  0  0  0
    1.5308    1.5740   -2.0185 N   0  0  0  0  0  0  0  0  0  0  0  0
    2.6471    1.4360   -2.9098 C   0  0  0  0  0  0  0  0  0  0  0  0
    3.6153    0.6841   -2.6148 O   0  0  0  0  0  0  0  0  0  0  0  0
    2.6996    2.2373   -4.1681 C   0  0  0  0  0  0  0  0  0  0  0  0
    3.3970    3.9964   -3.7667 Br  0  0  0  0  0  0  0  0  0  0  0  0
    0.1977   -0.0871   -0.7674 C   0  0  1  0  0  0  0  0  0  0  0  0
    0.3881   -1.1340   -1.7196 O   0  0  0  0  0  0  0  0  0  0  0  0
    0.0843   -1.0203   -3.0785 C   0  0  0  0  0  0  0  0  0  0  0  0
    0.4451   -2.1342   -3.9977 C   0  0  0  0  0  0  0  0  0  0  0  0
   -0.4963    0.0023   -3.5293 O   0  0  0  0  0  0  0  0  0  0  0  0
   -0.0293   -0.6899    0.6351 C   0  0  1  0  0  0  0  0  0  0  0  0
    1.0186   -1.6060    0.9724 O   0  0  0  0  0  0  0  0  0  0  0  0
    1.0304   -2.9475    0.5722 C   0  0  0  0  0  0  0  0  0  0  0  0
    2.1899   -3.8046    0.9367 C   0  0  0  0  0  0  0  0  0  0  0  0
    0.0531   -3.4455   -0.0497 O   0  0  0  0  0  0  0  0  0  0  0  0
   -4.0834   -1.7265    2.1225 H   0  0  0  0  0  0  0  0  0  0  0  0
   -3.7349   -2.1013    3.8624 H   0  0  0  0  0  0  0  0  0  0  0  0
   -4.8701   -0.7600    3.4437 H   0  0  0  0  0  0  0  0  0  0  0  0
   -0.3924    0.8008    3.7983 H   0  0  0  0  0  0  0  0  0  0  0  0
    0.5576   -0.6702    3.4228 H   0  0  0  0  0  0  0  0  0  0  0  0
   -0.9118    1.1358    1.4178 H   0  0  0  0  0  0  0  0  0  0  0  0
    0.4381    2.5278    0.2275 H   0  0  0  0  0  0  0  0  0  0  0  0
    3.8108    5.4528    1.8826 H   0  0  0  0  0  0  0  0  0  0  0  0
    4.7769    4.0087    1.3581 H   0  0  0  0  0  0  0  0  0  0  0  0
    3.8866    5.0049    0.1350 H   0  0  0  0  0  0  0  0  0  0  0  0
    2.3329    0.2306   -0.5782 H   0  0  0  0  0  0  0  0  0  0  0  0
    0.7506    2.2171   -2.2928 H   0  0  0  0  0  0  0  0  0  0  0  0
    1.6819    2.3341   -4.6035 H   0  0  0  0  0  0  0  0  0  0  0  0
    3.3597    1.7381   -4.9106 H   0  0  0  0  0  0  0  0  0  0  0  0
   -0.7108    0.4972   -1.0302 H   0  0  0  0  0  0  0  0  0  0  0  0
    1.4925   -2.4515   -3.7994 H   0  0  0  0  0  0  0  0  0  0  0  0
   -0.2339   -2.9932   -3.8212 H   0  0  0  0  0  0  0  0  0  0  0  0
    0.3707   -1.8053   -5.0531 H   0  0  0  0  0  0  0  0  0  0  0  0
   -1.0119   -1.2112    0.6477 H   0  0  0  0  0  0  0  0  0  0  0  0
    3.1344   -3.2489    0.7655 H   0  0  0  0  0  0  0  0  0  0  0  0
    2.2032   -4.7246    0.3102 H   0  0  0  0  0  0  0  0  0  0  0  0
    2.1195   -4.0865    2.0049 H   0  0  0  0  0  0  0  0  0  0  0  0
  1  2  1  0
  2  3  2  0
  2  4  1  0
  4  5  1  0
  5  6  1  0
  6  7  1  0
  7  8  1  0
  8  9  1  0
  9 10  1  0
 10 11  1  0
 10 12  2  0
  8 13  1  0
 13 14  1  0
 14 15  1  0
 15 16  2  0
 15 17  1  0
 17 18  1  0
 13 19  1  0
 19 20  1  0
 20 21  1  0
 21 22  1  0
 21 23  2  0
 19 24  1  0
 24 25  1  0
 25 26  1  0
 26 27  1  0
 26 28  2  0
 24  6  1  0
  1 29  1  0
  1 30  1  0
  1 31  1  0
  5 32  1  0
  5 33  1  0
  6 34  1  6
  8 35  1  6
 11 36  1  0
 11 37  1  0
 11 38  1  0
 13 39  1  1
 14 40  1  0
 17 41  1  0
 17 42  1  0
 19 43  1  6
 22 44  1  0
 22 45  1  0
 22 46  1  0
 24 47  1  6
 27 48  1  0
 27 49  1  0
 27 50  1  0
M  END
>  <UniqueID>  (234) 
233

>  <SMILES>  (234) 
CC(=O)OC[C@H]1O[C@@H](OC(C)=O)[C@H](NC(=O)CBr)[C@@H](OC(C)=O)[C@H]1OC(C)=O

>  <Energy>  (234) 
30.506056887210974

>  <Genealogy>  (234) 
CC(=O)OC[C@H]1O[C@@H](OC(C)=O)[C@H](NC(=O)CBr)[C@@H](OC(C)=O)[C@H]1OC(C)=O (3D coordinates assigned)
CC(=O)OC[C@H]1O[C@@H](OC(C)=O)[C@H](NC(=O)CBr)[C@@H](OC(C)=O)[C@H]1OC(C)=O (nonaromatic ring conformer: 30.506056887210974 kcal/mol)

$$$$
198515
     RDKit          3D

 50 50  0  0  0  0  0  0  0  0999 V2000
   -2.3431    0.0617   -1.9654 H   0  0  0  0  0  0  0  0  0  0  0  0
   -2.2205    0.7891   -2.6561 O   0  0  0  0  0  0  0  0  0  0  0  0
   -1.0445    1.5293   -2.8087 C   0  0  0  0  0  0  0  0  0  0  0  0
    0.0222    1.3091   -2.0931 N   0  0  0  0  0  0  0  0  0  0  0  0
    0.1991    0.2836   -1.0618 C   0  0  1  0  0  0  0  0  0  0  0  0
   -0.7375    0.1499   -0.4779 H   0  0  0  0  0  0  0  0  0  0  0  0
    0.6232   -1.0561   -1.7050 C   0  0  2  0  0  0  0  0  0  0  0  0
    1.5389   -0.8956   -2.3231 H   0  0  0  0  0  0  0  0  0  0  0  0
   -0.4118   -1.5195   -2.5670 O   0  0  0  0  0  0  0  0  0  0  0  0
   -0.2736   -2.6420   -3.3887 C   0  0  0  0  0  0  0  0  0  0  0  0
    0.8040   -3.2970   -3.4113 O   0  0  0  0  0  0  0  0  0  0  0  0
   -1.3964   -3.0352   -4.2865 C   0  0  0  0  0  0  0  0  0  0  0  0
   -2.3554   -2.6432   -3.8874 H   0  0  0  0  0  0  0  0  0  0  0  0
   -1.4611   -4.1417   -4.3542 H   0  0  0  0  0  0  0  0  0  0  0  0
   -1.2246   -2.6142   -5.2989 H   0  0  0  0  0  0  0  0  0  0  0  0
    0.8561   -2.0337   -0.7046 O   0  0  0  0  0  0  0  0  0  0  0  0
    1.9639   -1.6640    0.0987 C   0  0  2  0  0  0  0  0  0  0  0  0
    2.8605   -1.4703   -0.5356 H   0  0  0  0  0  0  0  0  0  0  0  0
    2.3158   -2.8319    1.0317 C   0  0  0  0  0  0  0  0  0  0  0  0
    3.1851   -2.5716    1.6749 H   0  0  0  0  0  0  0  0  0  0  0  0
    1.4536   -3.0512    1.6965 H   0  0  0  0  0  0  0  0  0  0  0  0
    2.6013   -4.0087    0.2769 O   0  0  0  0  0  0  0  0  0  0  0  0
    3.7959   -4.2053   -0.4246 C   0  0  0  0  0  0  0  0  0  0  0  0
    4.7237   -3.3528   -0.3744 O   0  0  0  0  0  0  0  0  0  0  0  0
    3.9539   -5.4181   -1.2768 C   0  0  0  0  0  0  0  0  0  0  0  0
    5.0083   -5.7656   -1.2556 H   0  0  0  0  0  0  0  0  0  0  0  0
    3.6683   -5.1745   -2.3213 H   0  0  0  0  0  0  0  0  0  0  0  0
    3.3001   -6.2328   -0.9011 H   0  0  0  0  0  0  0  0  0  0  0  0
    1.6368   -0.3883    0.9037 C   0  0  2  0  0  0  0  0  0  0  0  0
    2.5357   -0.1082    1.4971 H   0  0  0  0  0  0  0  0  0  0  0  0
    0.5233   -0.6421    1.7668 O   0  0  0  0  0  0  0  0  0  0  0  0
    0.3438   -0.0324    3.0132 C   0  0  0  0  0  0  0  0  0  0  0  0
    1.2243    0.7294    3.4963 O   0  0  0  0  0  0  0  0  0  0  0  0
   -0.9206   -0.2659    3.7665 C   0  0  0  0  0  0  0  0  0  0  0  0
   -1.6057    0.5936    3.6130 H   0  0  0  0  0  0  0  0  0  0  0  0
   -1.4127   -1.1930    3.4046 H   0  0  0  0  0  0  0  0  0  0  0  0
   -0.7035   -0.3742    4.8500 H   0  0  0  0  0  0  0  0  0  0  0  0
    1.2956    0.7452   -0.0863 C   0  0  2  0  0  0  0  0  0  0  0  0
    2.2068    0.9952   -0.6783 H   0  0  0  0  0  0  0  0  0  0  0  0
    0.8508    1.9124    0.6069 O   0  0  0  0  0  0  0  0  0  0  0  0
    1.7164    2.8069    1.2458 C   0  0  0  0  0  0  0  0  0  0  0  0
    2.9629    2.6169    1.2395 O   0  0  0  0  0  0  0  0  0  0  0  0
    1.1513    3.9720    1.9839 C   0  0  0  0  0  0  0  0  0  0  0  0
    0.1452    4.2208    1.5861 H   0  0  0  0  0  0  0  0  0  0  0  0
    1.8129    4.8558    1.8652 H   0  0  0  0  0  0  0  0  0  0  0  0
    1.0645    3.7201    3.0612 H   0  0  0  0  0  0  0  0  0  0  0  0
   -1.0046    2.5919   -3.8552 C   0  0  0  0  0  0  0  0  0  0  0  0
   -0.3389    3.4233   -3.5391 H   0  0  0  0  0  0  0  0  0  0  0  0
   -2.0246    2.9976   -4.0207 H   0  0  0  0  0  0  0  0  0  0  0  0
   -0.3460    1.8390   -5.5116 Br  0  0  0  0  0  0  0  0  0  0  0  0
  1  2  1  0
  2  3  1  0
  3  4  2  0
  4  5  1  0
  5  6  1  1
  5  7  1  0
  7  8  1  6
  7  9  1  0
  9 10  1  0
 10 11  2  0
 10 12  1  0
 12 13  1  0
 12 14  1  0
 12 15  1  0
  7 16  1  0
 16 17  1  0
 17 18  1  6
 17 19  1  0
 19 20  1  0
 19 21  1  0
 19 22  1  0
 22 23  1  0
 23 24  2  0
 23 25  1  0
 25 26  1  0
 25 27  1  0
 25 28  1  0
 17 29  1  0
 29 30  1  1
 29 31  1  0
 31 32  1  0
 32 33  2  0
 32 34  1  0
 34 35  1  0
 34 36  1  0
 34 37  1  0
 29 38  1  0
 38 39  1  6
 38 40  1  0
 40 41  1  0
 41 42  2  0
 41 43  1  0
 43 44  1  0
 43 45  1  0
 43 46  1  0
  3 47  1  0
 47 48  1  0
 47 49  1  0
 47 50  1  0
 38  5  1  0
M  END
>  <UniqueID>  (235) 
234

>  <SMILES>  (235) 
CC(=O)OC[C@H]1O[C@@H](OC(C)=O)[C@H](/N=C(/O)CBr)[C@@H](OC(C)=O)[C@H]1OC(C)=O

>  <Energy>  (235) 
31.936256877640517

>  <Genealogy>  (235) 
CC(=O)OC[C@H]1O[C@@H](OC(C)=O)[C@H](N=C(O)CBr)[C@@H](OC(C)=O)[C@H]1OC(C)=O (tautomer)
CC(=O)OC[C@H]1O[C@@H](OC(C)=O)[C@H](/N=C(/O)CBr)[C@@H](OC(C)=O)[C@H]1OC(C)=O (cis-trans isomerization)
CC(=O)OC[C@H]1O[C@@H](OC(C)=O)[C@H](/N=C(/O)CBr)[C@@H](OC(C)=O)[C@H]1OC(C)=O (3D coordinates assigned)
CC(=O)OC[C@H]1O[C@@H](OC(C)=O)[C@H](/N=C(/O)CBr)[C@@H](OC(C)=O)[C@H]1OC(C)=O (nonaromatic ring conformer: 31.936256877640517 kcal/mol)

$$$$
198514
     RDKit          3D

 50 50  0  0  0  0  0  0  0  0999 V2000
   -3.8400    0.8858   -2.4843 H   0  0  0  0  0  0  0  0  0  0  0  0
   -3.4634    0.4622   -3.3220 O   0  0  0  0  0  0  0  0  0  0  0  0
   -2.4914   -0.5387   -3.2825 C   0  0  0  0  0  0  0  0  0  0  0  0
   -2.1570   -1.1694   -4.4087 C   0  0  0  0  0  0  0  0  0  0  0  0
   -1.4074   -1.9506   -4.3965 H   0  0  0  0  0  0  0  0  0  0  0  0
   -2.9615   -0.7247   -6.0858 Br  0  0  0  0  0  0  0  0  0  0  0  0
   -1.8612   -0.9124   -2.0457 N   0  0  0  0  0  0  0  0  0  0  0  0
   -1.4511   -1.8714   -1.9617 H   0  0  0  0  0  0  0  0  0  0  0  0
   -1.6937    0.0059   -0.9156 C   0  0  1  0  0  0  0  0  0  0  0  0
   -2.0482    1.0256   -1.1809 H   0  0  0  0  0  0  0  0  0  0  0  0
   -2.5026   -0.5014    0.2887 C   0  0  2  0  0  0  0  0  0  0  0  0
   -2.1778   -1.5364    0.5520 H   0  0  0  0  0  0  0  0  0  0  0  0
   -3.8820   -0.5437   -0.0682 O   0  0  0  0  0  0  0  0  0  0  0  0
   -4.8709   -1.0626    0.7727 C   0  0  0  0  0  0  0  0  0  0  0  0
   -4.5714   -1.5529    1.8953 O   0  0  0  0  0  0  0  0  0  0  0  0
   -6.2886   -1.0821    0.3126 C   0  0  0  0  0  0  0  0  0  0  0  0
   -6.9694   -0.8823    1.1668 H   0  0  0  0  0  0  0  0  0  0  0  0
   -6.4463   -0.3023   -0.4618 H   0  0  0  0  0  0  0  0  0  0  0  0
   -6.5232   -2.0769   -0.1195 H   0  0  0  0  0  0  0  0  0  0  0  0
   -2.3398    0.3761    1.3880 O   0  0  0  0  0  0  0  0  0  0  0  0
   -1.0014    0.3508    1.8540 C   0  0  2  0  0  0  0  0  0  0  0  0
   -0.7026   -0.6923    2.1100 H   0  0  0  0  0  0  0  0  0  0  0  0
   -0.9417    1.1853    3.1460 C   0  0  0  0  0  0  0  0  0  0  0  0
   -1.6854    0.8031    3.8793 H   0  0  0  0  0  0  0  0  0  0  0  0
   -1.2125    2.2381    2.9166 H   0  0  0  0  0  0  0  0  0  0  0  0
    0.3608    1.1688    3.7295 O   0  0  0  0  0  0  0  0  0  0  0  0
    0.8941    0.0639    4.4013 C   0  0  0  0  0  0  0  0  0  0  0  0
    0.2011   -0.9713    4.5966 O   0  0  0  0  0  0  0  0  0  0  0  0
    2.3160    0.0960    4.8471 C   0  0  0  0  0  0  0  0  0  0  0  0
    2.9545   -0.3836    4.0763 H   0  0  0  0  0  0  0  0  0  0  0  0
    2.6453    1.1468    4.9884 H   0  0  0  0  0  0  0  0  0  0  0  0
    2.4279   -0.4487    5.8084 H   0  0  0  0  0  0  0  0  0  0  0  0
   -0.0457    0.9135    0.7727 C   0  0  1  0  0  0  0  0  0  0  0  0
   -0.3097    1.9809    0.5926 H   0  0  0  0  0  0  0  0  0  0  0  0
    1.3042    0.8085    1.2313 O   0  0  0  0  0  0  0  0  0  0  0  0
    2.3471    1.6292    0.7896 C   0  0  0  0  0  0  0  0  0  0  0  0
    2.1294    2.5831   -0.0059 O   0  0  0  0  0  0  0  0  0  0  0  0
    3.7208    1.4112    1.3249 C   0  0  0  0  0  0  0  0  0  0  0  0
    4.4795    1.7643    0.5948 H   0  0  0  0  0  0  0  0  0  0  0  0
    3.8383    1.9693    2.2770 H   0  0  0  0  0  0  0  0  0  0  0  0
    3.8823    0.3296    1.5149 H   0  0  0  0  0  0  0  0  0  0  0  0
   -0.2045    0.1161   -0.5358 C   0  0  2  0  0  0  0  0  0  0  0  0
    0.2174   -0.9016   -0.3676 H   0  0  0  0  0  0  0  0  0  0  0  0
    0.5131    0.7812   -1.5777 O   0  0  0  0  0  0  0  0  0  0  0  0
    1.0766    0.1285   -2.6800 C   0  0  0  0  0  0  0  0  0  0  0  0
    1.0699   -1.1295   -2.7630 O   0  0  0  0  0  0  0  0  0  0  0  0
    1.6989    0.9322   -3.7695 C   0  0  0  0  0  0  0  0  0  0  0  0
    1.6699    2.0121   -3.5131 H   0  0  0  0  0  0  0  0  0  0  0  0
    1.1414    0.7698   -4.7157 H   0  0  0  0  0  0  0  0  0  0  0  0
    2.7559    0.6220   -3.9066 H   0  0  0  0  0  0  0  0  0  0  0  0
  1  2  1  0
  2  3  1  0
  3  4  2  0
  4  5  1  0
  4  6  1  0
  3  7  1  0
  7  8  1  0
  7  9  1  0
  9 10  1  6
  9 11  1  0
 11 12  1  1
 11 13  1  0
 13 14  1  0
 14 15  2  0
 14 16  1  0
 16 17  1  0
 16 18  1  0
 16 19  1  0
 11 20  1  0
 20 21  1  0
 21 22  1  1
 21 23  1  0
 23 24  1  0
 23 25  1  0
 23 26  1  0
 26 27  1  0
 27 28  2  0
 27 29  1  0
 29 30  1  0
 29 31  1  0
 29 32  1  0
 21 33  1  0
 33 34  1  6
 33 35  1  0
 35 36  1  0
 36 37  2  0
 36 38  1  0
 38 39  1  0
 38 40  1  0
 38 41  1  0
 33 42  1  0
 42 43  1  1
 42 44  1  0
 44 45  1  0
 45 46  2  0
 45 47  1  0
 47 48  1  0
 47 49  1  0
 47 50  1  0
 42  9  1  0
M  END
>  <UniqueID>  (236) 
235

>  <SMILES>  (236) 
CC(=O)OC[C@H]1O[C@@H](OC(C)=O)[C@H](N/C(O)=C\Br)[C@@H](OC(C)=O)[C@@H]1OC(C)=O

>  <Energy>  (236) 
31.575836598958155

>  <Genealogy>  (236) 
CC(=O)OC[C@H]1O[C@@H](OC(C)=O)[C@H](NC(O)=CBr)[C@@H](OC(C)=O)[C@@H]1OC(C)=O (tautomer)
CC(=O)OC[C@H]1O[C@@H](OC(C)=O)[C@H](N/C(O)=C\Br)[C@@H](OC(C)=O)[C@@H]1OC(C)=O (cis-trans isomerization)
CC(=O)OC[C@H]1O[C@@H](OC(C)=O)[C@H](N/C(O)=C\Br)[C@@H](OC(C)=O)[C@@H]1OC(C)=O (3D coordinates assigned)
CC(=O)OC[C@H]1O[C@@H](OC(C)=O)[C@H](N/C(O)=C\Br)[C@@H](OC(C)=O)[C@@H]1OC(C)=O (nonaromatic ring conformer: 31.575836598958155 kcal/mol)

$$$$
198514
     RDKit          3D

 50 50  0  0  0  0  0  0  0  0999 V2000
   -1.2394   -2.5231    0.8104 H   0  0  0  0  0  0  0  0  0  0  0  0
   -0.6518   -2.0935    0.1061 O   0  0  0  0  0  0  0  0  0  0  0  0
    0.1986   -2.8571   -0.6919 C   0  0  0  0  0  0  0  0  0  0  0  0
    0.9341   -2.3051   -1.6133 N   0  0  0  0  0  0  0  0  0  0  0  0
    1.0014   -0.8796   -1.9606 C   0  0  1  0  0  0  0  0  0  0  0  0
    1.7108   -0.7860   -2.8130 H   0  0  0  0  0  0  0  0  0  0  0  0
   -0.3606   -0.3414   -2.4426 C   0  0  2  0  0  0  0  0  0  0  0  0
   -1.1259   -0.4307   -1.6390 H   0  0  0  0  0  0  0  0  0  0  0  0
   -0.7959   -1.1164   -3.5571 O   0  0  0  0  0  0  0  0  0  0  0  0
   -2.0508   -0.9537   -4.1516 C   0  0  0  0  0  0  0  0  0  0  0  0
   -2.8751   -0.1127   -3.6993 O   0  0  0  0  0  0  0  0  0  0  0  0
   -2.4366   -1.8272   -5.2962 C   0  0  0  0  0  0  0  0  0  0  0  0
   -1.5495   -2.0216   -5.9350 H   0  0  0  0  0  0  0  0  0  0  0  0
   -2.8267   -2.7918   -4.9087 H   0  0  0  0  0  0  0  0  0  0  0  0
   -3.2203   -1.3351   -5.9110 H   0  0  0  0  0  0  0  0  0  0  0  0
   -0.2271    1.0093   -2.8456 O   0  0  0  0  0  0  0  0  0  0  0  0
    0.0949    1.8261   -1.7320 C   0  0  2  0  0  0  0  0  0  0  0  0
   -0.6531    1.6916   -0.9159 H   0  0  0  0  0  0  0  0  0  0  0  0
    0.0346    3.2957   -2.1752 C   0  0  0  0  0  0  0  0  0  0  0  0
    0.2197    3.9768   -1.3157 H   0  0  0  0  0  0  0  0  0  0  0  0
    0.8229    3.4835   -2.9353 H   0  0  0  0  0  0  0  0  0  0  0  0
   -1.2305    3.5922   -2.7649 O   0  0  0  0  0  0  0  0  0  0  0  0
   -2.4094    3.7458   -2.0269 C   0  0  0  0  0  0  0  0  0  0  0  0
   -2.3975    3.6820   -0.7676 O   0  0  0  0  0  0  0  0  0  0  0  0
   -3.7015    3.9413   -2.7440 C   0  0  0  0  0  0  0  0  0  0  0  0
   -4.3821    4.5789   -2.1410 H   0  0  0  0  0  0  0  0  0  0  0  0
   -3.5202    4.4353   -3.7213 H   0  0  0  0  0  0  0  0  0  0  0  0
   -4.1797    2.9550   -2.9173 H   0  0  0  0  0  0  0  0  0  0  0  0
    1.5013    1.4728   -1.1953 C   0  0  1  0  0  0  0  0  0  0  0  0
    2.2443    1.6718   -2.0017 H   0  0  0  0  0  0  0  0  0  0  0  0
    1.7871    2.2835   -0.0525 O   0  0  0  0  0  0  0  0  0  0  0  0
    3.0816    2.5734    0.3927 C   0  0  0  0  0  0  0  0  0  0  0  0
    4.0912    2.2195   -0.2748 O   0  0  0  0  0  0  0  0  0  0  0  0
    3.2653    3.3678    1.6403 C   0  0  0  0  0  0  0  0  0  0  0  0
    2.3766    3.2539    2.2958 H   0  0  0  0  0  0  0  0  0  0  0  0
    3.3921    4.4394    1.3810 H   0  0  0  0  0  0  0  0  0  0  0  0
    4.1631    3.0133    2.1893 H   0  0  0  0  0  0  0  0  0  0  0  0
    1.5539   -0.0180   -0.8049 C   0  0  2  0  0  0  0  0  0  0  0  0
    0.9315   -0.1451    0.1077 H   0  0  0  0  0  0  0  0  0  0  0  0
    2.9097   -0.3820   -0.5366 O   0  0  0  0  0  0  0  0  0  0  0  0
    3.2927   -1.3352    0.4135 C   0  0  0  0  0  0  0  0  0  0  0  0
    2.4454   -1.8593    1.1860 O   0  0  0  0  0  0  0  0  0  0  0  0
    4.7354   -1.6791    0.5593 C   0  0  0  0  0  0  0  0  0  0  0  0
    5.2171   -0.9622    1.2565 H   0  0  0  0  0  0  0  0  0  0  0  0
    4.8471   -2.7099    0.9573 H   0  0  0  0  0  0  0  0  0  0  0  0
    5.2368   -1.6210   -0.4291 H   0  0  0  0  0  0  0  0  0  0  0  0
    0.2477   -4.3401   -0.5136 C   0  0  0  0  0  0  0  0  0  0  0  0
    0.0793   -4.6008    0.5521 H   0  0  0  0  0  0  0  0  0  0  0  0
    1.2398   -4.7349   -0.8196 H   0  0  0  0  0  0  0  0  0  0  0  0
   -1.1274   -5.1640   -1.5970 Br  0  0  0  0  0  0  0  0  0  0  0  0
  1  2  1  0
  2  3  1  0
  3  4  2  0
  4  5  1  0
  5  6  1  6
  5  7  1  0
  7  8  1  1
  7  9  1  0
  9 10  1  0
 10 11  2  0
 10 12  1  0
 12 13  1  0
 12 14  1  0
 12 15  1  0
  7 16  1  0
 16 17  1  0
 17 18  1  1
 17 19  1  0
 19 20  1  0
 19 21  1  0
 19 22  1  0
 22 23  1  0
 23 24  2  0
 23 25  1  0
 25 26  1  0
 25 27  1  0
 25 28  1  0
 17 29  1  0
 29 30  1  6
 29 31  1  0
 31 32  1  0
 32 33  2  0
 32 34  1  0
 34 35  1  0
 34 36  1  0
 34 37  1  0
 29 38  1  0
 38 39  1  1
 38 40  1  0
 40 41  1  0
 41 42  2  0
 41 43  1  0
 43 44  1  0
 43 45  1  0
 43 46  1  0
  3 47  1  0
 47 48  1  0
 47 49  1  0
 47 50  1  0
 38  5  1  0
M  END
>  <UniqueID>  (237) 
236

>  <SMILES>  (237) 
CC(=O)OC[C@H]1O[C@@H](OC(C)=O)[C@H](/N=C(\O)CBr)[C@@H](OC(C)=O)[C@@H]1OC(C)=O

>  <Energy>  (237) 
31.642774522258506

>  <Genealogy>  (237) 
CC(=O)OC[C@H]1O[C@@H](OC(C)=O)[C@H](N=C(O)CBr)[C@@H](OC(C)=O)[C@@H]1OC(C)=O (tautomer)
CC(=O)OC[C@H]1O[C@@H](OC(C)=O)[C@H](/N=C(\O)CBr)[C@@H](OC(C)=O)[C@@H]1OC(C)=O (cis-trans isomerization)
CC(=O)OC[C@H]1O[C@@H](OC(C)=O)[C@H](/N=C(\O)CBr)[C@@H](OC(C)=O)[C@@H]1OC(C)=O (3D coordinates assigned)
CC(=O)OC[C@H]1O[C@@H](OC(C)=O)[C@H](/N=C(\O)CBr)[C@@H](OC(C)=O)[C@@H]1OC(C)=O (nonaromatic ring conformer: 31.642774522258506 kcal/mol)

$$$$
198514
     RDKit          3D

 50 50  0  0  0  0  0  0  0  0999 V2000
    1.1217   -1.8795   -1.6236 H   0  0  0  0  0  0  0  0  0  0  0  0
    1.5525   -2.7450   -1.3297 O   0  0  0  0  0  0  0  0  0  0  0  0
    1.5794   -3.1916   -0.0054 C   0  0  0  0  0  0  0  0  0  0  0  0
    1.0159   -2.5341    0.9688 N   0  0  0  0  0  0  0  0  0  0  0  0
    0.2630   -1.2808    0.8745 C   0  0  1  0  0  0  0  0  0  0  0  0
   -0.2829   -1.2224   -0.0920 H   0  0  0  0  0  0  0  0  0  0  0  0
   -0.8011   -1.2383    1.9934 C   0  0  2  0  0  0  0  0  0  0  0  0
   -0.3190   -1.3298    2.9960 H   0  0  0  0  0  0  0  0  0  0  0  0
   -1.7242   -2.3155    1.8214 O   0  0  0  0  0  0  0  0  0  0  0  0
   -1.5261   -3.6063    2.3268 C   0  0  0  0  0  0  0  0  0  0  0  0
   -0.5475   -3.8656    3.0786 O   0  0  0  0  0  0  0  0  0  0  0  0
   -2.5197   -4.6736    2.0184 C   0  0  0  0  0  0  0  0  0  0  0  0
   -3.0568   -4.4307    1.0777 H   0  0  0  0  0  0  0  0  0  0  0  0
   -3.2527   -4.7477    2.8483 H   0  0  0  0  0  0  0  0  0  0  0  0
   -2.0044   -5.6495    1.8946 H   0  0  0  0  0  0  0  0  0  0  0  0
   -1.5326   -0.0276    1.9204 O   0  0  0  0  0  0  0  0  0  0  0  0
   -0.6979    1.0841    2.1990 C   0  0  2  0  0  0  0  0  0  0  0  0
   -0.2072    0.9616    3.1935 H   0  0  0  0  0  0  0  0  0  0  0  0
   -1.5783    2.3348    2.2966 C   0  0  0  0  0  0  0  0  0  0  0  0
   -2.3375    2.1825    3.0947 H   0  0  0  0  0  0  0  0  0  0  0  0
   -0.9619    3.2164    2.5753 H   0  0  0  0  0  0  0  0  0  0  0  0
   -2.2395    2.5740    1.0571 O   0  0  0  0  0  0  0  0  0  0  0  0
   -3.0852    3.6669    0.8522 C   0  0  0  0  0  0  0  0  0  0  0  0
   -3.2897    4.5053    1.7718 O   0  0  0  0  0  0  0  0  0  0  0  0
   -3.7078    3.8716   -0.4866 C   0  0  0  0  0  0  0  0  0  0  0  0
   -4.7237    4.3053   -0.3733 H   0  0  0  0  0  0  0  0  0  0  0  0
   -3.7896    2.9005   -1.0184 H   0  0  0  0  0  0  0  0  0  0  0  0
   -3.0780    4.5623   -1.0848 H   0  0  0  0  0  0  0  0  0  0  0  0
    0.3894    1.2259    1.1054 C   0  0  1  0  0  0  0  0  0  0  0  0
   -0.0928    1.3836    0.1137 H   0  0  0  0  0  0  0  0  0  0  0  0
    1.2766    2.3040    1.4166 O   0  0  0  0  0  0  0  0  0  0  0  0
    1.2029    3.5737    0.8316 C   0  0  0  0  0  0  0  0  0  0  0  0
    0.3277    3.8398   -0.0362 O   0  0  0  0  0  0  0  0  0  0  0  0
    2.1447    4.6393    1.2773 C   0  0  0  0  0  0  0  0  0  0  0  0
    3.0647    4.1806    1.6963 H   0  0  0  0  0  0  0  0  0  0  0  0
    1.6577    5.2587    2.0587 H   0  0  0  0  0  0  0  0  0  0  0  0
    2.4251    5.2847    0.4182 H   0  0  0  0  0  0  0  0  0  0  0  0
    1.2064   -0.0704    1.0299 C   0  0  2  0  0  0  0  0  0  0  0  0
    1.7750   -0.1716    1.9831 H   0  0  0  0  0  0  0  0  0  0  0  0
    2.1009    0.0158   -0.0814 O   0  0  0  0  0  0  0  0  0  0  0  0
    3.4341   -0.4091   -0.0464 C   0  0  0  0  0  0  0  0  0  0  0  0
    3.9571   -0.8189    1.0252 O   0  0  0  0  0  0  0  0  0  0  0  0
    4.2597   -0.3284   -1.2843 C   0  0  0  0  0  0  0  0  0  0  0  0
    4.9590   -1.1896   -1.3325 H   0  0  0  0  0  0  0  0  0  0  0  0
    4.8401    0.6174   -1.2808 H   0  0  0  0  0  0  0  0  0  0  0  0
    3.6030   -0.3508   -2.1791 H   0  0  0  0  0  0  0  0  0  0  0  0
    2.2886   -4.4701    0.2978 C   0  0  0  0  0  0  0  0  0  0  0  0
    2.0416   -5.2242   -0.4783 H   0  0  0  0  0  0  0  0  0  0  0  0
    1.9780   -4.8676    1.2879 H   0  0  0  0  0  0  0  0  0  0  0  0
    4.2008   -4.1763    0.3051 Br  0  0  0  0  0  0  0  0  0  0  0  0
  1  2  1  0
  2  3  1  0
  3  4  2  0
  4  5  1  0
  5  6  1  6
  5  7  1  0
  7  8  1  1
  7  9  1  0
  9 10  1  0
 10 11  2  0
 10 12  1  0
 12 13  1  0
 12 14  1  0
 12 15  1  0
  7 16  1  0
 16 17  1  0
 17 18  1  1
 17 19  1  0
 19 20  1  0
 19 21  1  0
 19 22  1  0
 22 23  1  0
 23 24  2  0
 23 25  1  0
 25 26  1  0
 25 27  1  0
 25 28  1  0
 17 29  1  0
 29 30  1  6
 29 31  1  0
 31 32  1  0
 32 33  2  0
 32 34  1  0
 34 35  1  0
 34 36  1  0
 34 37  1  0
 29 38  1  0
 38 39  1  1
 38 40  1  0
 40 41  1  0
 41 42  2  0
 41 43  1  0
 43 44  1  0
 43 45  1  0
 43 46  1  0
  3 47  1  0
 47 48  1  0
 47 49  1  0
 47 50  1  0
 38  5  1  0
M  END
>  <UniqueID>  (238) 
237

>  <SMILES>  (238) 
CC(=O)OC[C@H]1O[C@@H](OC(C)=O)[C@H](/N=C(/O)CBr)[C@@H](OC(C)=O)[C@@H]1OC(C)=O

>  <Energy>  (238) 
34.202712665053326

>  <Genealogy>  (238) 
CC(=O)OC[C@H]1O[C@@H](OC(C)=O)[C@H](N=C(O)CBr)[C@@H](OC(C)=O)[C@@H]1OC(C)=O (tautomer)
CC(=O)OC[C@H]1O[C@@H](OC(C)=O)[C@H](/N=C(/O)CBr)[C@@H](OC(C)=O)[C@@H]1OC(C)=O (cis-trans isomerization)
CC(=O)OC[C@H]1O[C@@H](OC(C)=O)[C@H](/N=C(/O)CBr)[C@@H](OC(C)=O)[C@@H]1OC(C)=O (3D coordinates assigned)
CC(=O)OC[C@H]1O[C@@H](OC(C)=O)[C@H](/N=C(/O)CBr)[C@@H](OC(C)=O)[C@@H]1OC(C)=O (nonaromatic ring conformer: 34.202712665053326 kcal/mol)

$$$$
193108
     RDKit          3D

 30 30  0  0  0  0  0  0  0  0999 V2000
    1.6430    1.2474   -2.6408 O   0  0  0  0  0  0  0  0  0  0  0  0
    0.4413    1.0651   -2.9758 C   0  0  0  0  0  0  0  0  0  0  0  0
    0.0084    1.3967   -4.3674 C   0  0  0  0  0  0  0  0  0  0  0  0
   -0.8421    3.1347   -4.3857 Br  0  0  0  0  0  0  0  0  0  0  0  0
   -0.5172    0.5841   -2.0223 N   0  0  0  0  0  0  0  0  0  0  0  0
   -0.1524    0.1864   -0.6591 C   0  0  1  0  0  0  0  0  0  0  0  0
   -1.2158    0.6861    0.3402 C   0  0  2  0  0  0  0  0  0  0  0  0
   -1.2418    2.0873    0.3098 O   0  0  0  0  0  0  0  0  0  0  0  0
   -0.8983    0.2614    1.6569 O   0  0  0  0  0  0  0  0  0  0  0  0
   -0.9650   -1.1527    1.7527 C   0  0  2  0  0  0  0  0  0  0  0  0
   -0.8293   -1.5618    3.2234 C   0  0  0  0  0  0  0  0  0  0  0  0
   -1.9007   -1.0380    3.9581 O   0  0  0  0  0  0  0  0  0  0  0  0
    0.1409   -1.8019    0.8906 C   0  0  2  0  0  0  0  0  0  0  0  0
    1.4049   -1.4119    1.3702 O   0  0  0  0  0  0  0  0  0  0  0  0
   -0.0411   -1.3511   -0.5729 C   0  0  2  0  0  0  0  0  0  0  0  0
    0.9916   -1.8450   -1.3911 O   0  0  0  0  0  0  0  0  0  0  0  0
    0.8840    1.4134   -5.0506 H   0  0  0  0  0  0  0  0  0  0  0  0
   -0.7101    0.6333   -4.7325 H   0  0  0  0  0  0  0  0  0  0  0  0
   -1.4924    0.3985   -2.3509 H   0  0  0  0  0  0  0  0  0  0  0  0
    0.8211    0.6431   -0.3707 H   0  0  0  0  0  0  0  0  0  0  0  0
   -2.2227    0.3074    0.0371 H   0  0  0  0  0  0  0  0  0  0  0  0
   -2.0049    2.3660    0.8804 H   0  0  0  0  0  0  0  0  0  0  0  0
   -1.9601   -1.5230    1.4079 H   0  0  0  0  0  0  0  0  0  0  0  0
   -0.8346   -2.6724    3.3030 H   0  0  0  0  0  0  0  0  0  0  0  0
    0.1291   -1.1760    3.6382 H   0  0  0  0  0  0  0  0  0  0  0  0
   -1.7623   -1.3329    4.8955 H   0  0  0  0  0  0  0  0  0  0  0  0
    0.0292   -2.9115    0.9424 H   0  0  0  0  0  0  0  0  0  0  0  0
    2.0348   -2.1511    1.1643 H   0  0  0  0  0  0  0  0  0  0  0  0
   -0.9947   -1.7891   -0.9448 H   0  0  0  0  0  0  0  0  0  0  0  0
    1.8254   -1.3582   -1.1613 H   0  0  0  0  0  0  0  0  0  0  0  0
  1  2  2  0
  2  3  1  0
  3  4  1  0
  2  5  1  0
  5  6  1  0
  6  7  1  0
  7  8  1  0
  7  9  1  0
  9 10  1  0
 10 11  1  0
 11 12  1  0
 10 13  1  0
 13 14  1  0
 13 15  1  0
 15 16  1  0
 15  6  1  0
  3 17  1  0
  3 18  1  0
  5 19  1  0
  6 20  1  1
  7 21  1  6
  8 22  1  0
 10 23  1  6
 11 24  1  0
 11 25  1  0
 12 26  1  0
 13 27  1  6
 14 28  1  0
 15 29  1  6
 16 30  1  0
M  END
>  <UniqueID>  (239) 
238

>  <SMILES>  (239) 
O=C(CBr)N[C@H]1[C@H](O)O[C@H](CO)[C@H](O)[C@@H]1O

>  <Energy>  (239) 
23.86379133153751

>  <Genealogy>  (239) 
O=C(CBr)N[C@H]1[C@H](O)O[C@H](CO)[C@H](O)[C@@H]1O (3D coordinates assigned)
O=C(CBr)N[C@H]1[C@H](O)O[C@H](CO)[C@H](O)[C@@H]1O (nonaromatic ring conformer: 23.86379133153751 kcal/mol)

$$$$
193108
     RDKit          3D

 30 30  0  0  0  0  0  0  0  0999 V2000
    4.5114   -1.6881    1.6011 H   0  0  0  0  0  0  0  0  0  0  0  0
    4.4182   -0.7731    1.1759 O   0  0  0  0  0  0  0  0  0  0  0  0
    3.1942   -0.3298    0.6830 C   0  0  0  0  0  0  0  0  0  0  0  0
    2.1518   -1.1063    0.7930 N   0  0  0  0  0  0  0  0  0  0  0  0
    0.7837   -0.8318    0.3394 C   0  0  1  0  0  0  0  0  0  0  0  0
    0.6042    0.2609    0.2445 H   0  0  0  0  0  0  0  0  0  0  0  0
    0.5266   -1.5131   -1.0267 C   0  0  2  0  0  0  0  0  0  0  0  0
    0.7402   -2.6089   -0.9502 H   0  0  0  0  0  0  0  0  0  0  0  0
    1.3647   -0.9537   -2.0031 O   0  0  0  0  0  0  0  0  0  0  0  0
    2.2422   -1.4135   -1.9352 H   0  0  0  0  0  0  0  0  0  0  0  0
   -0.8159   -1.3124   -1.4363 O   0  0  0  0  0  0  0  0  0  0  0  0
   -1.7129   -1.9491   -0.5409 C   0  0  2  0  0  0  0  0  0  0  0  0
   -1.4505   -3.0285   -0.4332 H   0  0  0  0  0  0  0  0  0  0  0  0
   -3.1337   -1.9201   -1.1292 C   0  0  0  0  0  0  0  0  0  0  0  0
   -3.8474   -2.3615   -0.4012 H   0  0  0  0  0  0  0  0  0  0  0  0
   -3.1697   -2.5507   -2.0472 H   0  0  0  0  0  0  0  0  0  0  0  0
   -3.5426   -0.6109   -1.4254 O   0  0  0  0  0  0  0  0  0  0  0  0
   -3.1286   -0.3707   -2.2950 H   0  0  0  0  0  0  0  0  0  0  0  0
   -1.6488   -1.2846    0.8528 C   0  0  2  0  0  0  0  0  0  0  0  0
   -2.3272   -1.8393    1.5439 H   0  0  0  0  0  0  0  0  0  0  0  0
   -2.0413    0.0631    0.7642 O   0  0  0  0  0  0  0  0  0  0  0  0
   -2.3535    0.3336    1.6668 H   0  0  0  0  0  0  0  0  0  0  0  0
   -0.2043   -1.3814    1.3825 C   0  0  2  0  0  0  0  0  0  0  0  0
    0.0381   -2.4556    1.5679 H   0  0  0  0  0  0  0  0  0  0  0  0
   -0.0705   -0.6614    2.5812 O   0  0  0  0  0  0  0  0  0  0  0  0
   -0.5337   -1.1883    3.2838 H   0  0  0  0  0  0  0  0  0  0  0  0
    3.1309    1.0472    0.0853 C   0  0  0  0  0  0  0  0  0  0  0  0
    4.1507    1.3649   -0.2173 H   0  0  0  0  0  0  0  0  0  0  0  0
    2.4930    1.0723   -0.8205 H   0  0  0  0  0  0  0  0  0  0  0  0
    2.4707    2.3079    1.3994 Br  0  0  0  0  0  0  0  0  0  0  0  0
  1  2  1  0
  2  3  1  0
  3  4  2  0
  4  5  1  0
  5  6  1  6
  5  7  1  0
  7  8  1  1
  7  9  1  0
  9 10  1  0
  7 11  1  0
 11 12  1  0
 12 13  1  1
 12 14  1  0
 14 15  1  0
 14 16  1  0
 14 17  1  0
 17 18  1  0
 12 19  1  0
 19 20  1  1
 19 21  1  0
 21 22  1  0
 19 23  1  0
 23 24  1  1
 23 25  1  0
 25 26  1  0
  3 27  1  0
 27 28  1  0
 27 29  1  0
 27 30  1  0
 23  5  1  0
M  END
>  <UniqueID>  (240) 
239

>  <SMILES>  (240) 
OC[C@H]1O[C@@H](O)[C@H](/N=C(/O)CBr)[C@@H](O)[C@H]1O

>  <Energy>  (240) 
27.76851455213619

>  <Genealogy>  (240) 
OC[C@H]1O[C@@H](O)[C@H](N=C(O)CBr)[C@@H](O)[C@H]1O (tautomer)
OC[C@H]1O[C@@H](O)[C@H](/N=C(/O)CBr)[C@@H](O)[C@H]1O (cis-trans isomerization)
OC[C@H]1O[C@@H](O)[C@H](/N=C(/O)CBr)[C@@H](O)[C@H]1O (3D coordinates assigned)
OC[C@H]1O[C@@H](O)[C@H](/N=C(/O)CBr)[C@@H](O)[C@H]1O (nonaromatic ring conformer: 27.76851455213619 kcal/mol)

$$$$
193108
     RDKit          3D

 30 30  0  0  0  0  0  0  0  0999 V2000
   -3.7232    2.7817    2.7780 H   0  0  0  0  0  0  0  0  0  0  0  0
   -3.1838    2.2134    3.4207 O   0  0  0  0  0  0  0  0  0  0  0  0
   -2.2772    1.2649    2.9559 C   0  0  0  0  0  0  0  0  0  0  0  0
   -2.1423    1.0994    1.6691 N   0  0  0  0  0  0  0  0  0  0  0  0
   -1.2461    0.1645    0.9796 C   0  0  1  0  0  0  0  0  0  0  0  0
   -0.9791   -0.6873    1.6398 H   0  0  0  0  0  0  0  0  0  0  0  0
   -1.9776   -0.4103   -0.2539 C   0  0  2  0  0  0  0  0  0  0  0  0
   -2.3326    0.4275   -0.8981 H   0  0  0  0  0  0  0  0  0  0  0  0
   -3.1173   -1.1212    0.1540 O   0  0  0  0  0  0  0  0  0  0  0  0
   -2.8016   -1.9372    0.6239 H   0  0  0  0  0  0  0  0  0  0  0  0
   -1.1286   -1.2736   -0.9955 O   0  0  0  0  0  0  0  0  0  0  0  0
   -0.0450   -0.5458   -1.5492 C   0  0  2  0  0  0  0  0  0  0  0  0
   -0.4270    0.3079   -2.1582 H   0  0  0  0  0  0  0  0  0  0  0  0
    0.7289   -1.4438   -2.5243 C   0  0  0  0  0  0  0  0  0  0  0  0
    1.6372   -0.9117   -2.8869 H   0  0  0  0  0  0  0  0  0  0  0  0
    0.0797   -1.6618   -3.4019 H   0  0  0  0  0  0  0  0  0  0  0  0
    1.0923   -2.6491   -1.9085 O   0  0  0  0  0  0  0  0  0  0  0  0
    1.5922   -3.1674   -2.5913 H   0  0  0  0  0  0  0  0  0  0  0  0
    0.8663    0.0233   -0.4309 C   0  0  2  0  0  0  0  0  0  0  0  0
    1.6334    0.6742   -0.9052 H   0  0  0  0  0  0  0  0  0  0  0  0
    1.5479   -0.9916    0.2689 O   0  0  0  0  0  0  0  0  0  0  0  0
    0.8758   -1.6277    0.6254 H   0  0  0  0  0  0  0  0  0  0  0  0
    0.0350    0.9001    0.5270 C   0  0  2  0  0  0  0  0  0  0  0  0
   -0.2609    1.8196   -0.0345 H   0  0  0  0  0  0  0  0  0  0  0  0
    0.8219    1.2558    1.6346 O   0  0  0  0  0  0  0  0  0  0  0  0
    0.4475    2.1009    1.9968 H   0  0  0  0  0  0  0  0  0  0  0  0
   -1.5304    0.4460    3.9705 C   0  0  0  0  0  0  0  0  0  0  0  0
   -0.4734    0.2918    3.6762 H   0  0  0  0  0  0  0  0  0  0  0  0
   -1.5301    0.9775    4.9451 H   0  0  0  0  0  0  0  0  0  0  0  0
   -2.4083   -1.2632    4.2147 Br  0  0  0  0  0  0  0  0  0  0  0  0
  1  2  1  0
  2  3  1  0
  3  4  2  0
  4  5  1  0
  5  6  1  1
  5  7  1  0
  7  8  1  6
  7  9  1  0
  9 10  1  0
  7 11  1  0
 11 12  1  0
 12 13  1  6
 12 14  1  0
 14 15  1  0
 14 16  1  0
 14 17  1  0
 17 18  1  0
 12 19  1  0
 19 20  1  6
 19 21  1  0
 21 22  1  0
 19 23  1  0
 23 24  1  6
 23 25  1  0
 25 26  1  0
  3 27  1  0
 27 28  1  0
 27 29  1  0
 27 30  1  0
 23  5  1  0
M  END
>  <UniqueID>  (241) 
240

>  <SMILES>  (241) 
OC[C@H]1O[C@@H](O)[C@H](/N=C(\O)CBr)[C@@H](O)[C@H]1O

>  <Energy>  (241) 
28.690969942478837

>  <Genealogy>  (241) 
OC[C@H]1O[C@@H](O)[C@H](N=C(O)CBr)[C@@H](O)[C@H]1O (tautomer)
OC[C@H]1O[C@@H](O)[C@H](/N=C(\O)CBr)[C@@H](O)[C@H]1O (cis-trans isomerization)
OC[C@H]1O[C@@H](O)[C@H](/N=C(\O)CBr)[C@@H](O)[C@H]1O (3D coordinates assigned)
OC[C@H]1O[C@@H](O)[C@H](/N=C(\O)CBr)[C@@H](O)[C@H]1O (nonaromatic ring conformer: 28.690969942478837 kcal/mol)

$$$$
129618
     RDKit          3D

 50 50  0  0  0  0  0  0  0  0999 V2000
   -1.0363   -5.9744   -1.9566 C   0  0  0  0  0  0  0  0  0  0  0  0
   -0.4773   -5.2402   -0.7857 C   0  0  0  0  0  0  0  0  0  0  0  0
   -0.1351   -5.8786    0.2467 O   0  0  0  0  0  0  0  0  0  0  0  0
   -0.2959   -3.8567   -0.8629 O   0  0  0  0  0  0  0  0  0  0  0  0
    0.2481   -3.0925    0.2092 C   0  0  0  0  0  0  0  0  0  0  0  0
    0.3060   -1.6149   -0.1901 C   0  0  1  0  0  0  0  0  0  0  0  0
   -0.9989   -1.2038   -0.5630 O   0  0  0  0  0  0  0  0  0  0  0  0
   -0.9776    0.1002   -1.1139 C   0  0  1  0  0  0  0  0  0  0  0  0
   -2.2986    0.4046   -1.5646 O   0  0  0  0  0  0  0  0  0  0  0  0
   -2.5860    1.2798   -2.6189 C   0  0  0  0  0  0  0  0  0  0  0  0
   -4.0034    1.6448   -2.8999 C   0  0  0  0  0  0  0  0  0  0  0  0
   -1.6625    1.7895   -3.3097 O   0  0  0  0  0  0  0  0  0  0  0  0
   -0.5528    1.1214   -0.0360 C   0  0  2  0  0  0  0  0  0  0  0  0
   -0.4953    2.4686   -0.6104 N   0  0  0  0  0  0  0  0  0  0  0  0
   -1.2418    3.5777   -0.0884 C   0  0  0  0  0  0  0  0  0  0  0  0
   -2.0611    3.4128    0.8555 O   0  0  0  0  0  0  0  0  0  0  0  0
   -1.0835    4.9350   -0.6930 C   0  0  0  0  0  0  0  0  0  0  0  0
   -2.1191    5.0724   -2.1331 Cl  0  0  0  0  0  0  0  0  0  0  0  0
    0.8238    0.7370    0.5406 C   0  0  1  0  0  0  0  0  0  0  0  0
    1.1256    1.5489    1.6781 O   0  0  0  0  0  0  0  0  0  0  0  0
    1.7485    2.7999    1.6019 C   0  0  0  0  0  0  0  0  0  0  0  0
    1.8839    3.6266    2.8344 C   0  0  0  0  0  0  0  0  0  0  0  0
    2.1680    3.2502    0.5014 O   0  0  0  0  0  0  0  0  0  0  0  0
    0.8240   -0.7357    0.9731 C   0  0  2  0  0  0  0  0  0  0  0  0
    2.1603   -1.1028    1.3280 O   0  0  0  0  0  0  0  0  0  0  0  0
    2.4839   -1.9348    2.4064 C   0  0  0  0  0  0  0  0  0  0  0  0
    3.9101   -2.2907    2.6528 C   0  0  0  0  0  0  0  0  0  0  0  0
    1.5844   -2.4199    3.1450 O   0  0  0  0  0  0  0  0  0  0  0  0
   -1.6343   -5.2834   -2.5871 H   0  0  0  0  0  0  0  0  0  0  0  0
   -1.6915   -6.8016   -1.6107 H   0  0  0  0  0  0  0  0  0  0  0  0
   -0.2054   -6.3927   -2.5616 H   0  0  0  0  0  0  0  0  0  0  0  0
   -0.3909   -3.2148    1.1115 H   0  0  0  0  0  0  0  0  0  0  0  0
    1.2709   -3.4650    0.4323 H   0  0  0  0  0  0  0  0  0  0  0  0
    1.0051   -1.5382   -1.0565 H   0  0  0  0  0  0  0  0  0  0  0  0
   -0.2769    0.1323   -1.9820 H   0  0  0  0  0  0  0  0  0  0  0  0
   -4.6749    0.8155   -2.5942 H   0  0  0  0  0  0  0  0  0  0  0  0
   -4.1422    1.8378   -3.9847 H   0  0  0  0  0  0  0  0  0  0  0  0
   -4.2686    2.5582   -2.3281 H   0  0  0  0  0  0  0  0  0  0  0  0
   -1.3007    1.0792    0.7872 H   0  0  0  0  0  0  0  0  0  0  0  0
    0.1543    2.6381   -1.4119 H   0  0  0  0  0  0  0  0  0  0  0  0
   -1.3723    5.7180    0.0397 H   0  0  0  0  0  0  0  0  0  0  0  0
   -0.0251    5.0992   -0.9852 H   0  0  0  0  0  0  0  0  0  0  0  0
    1.6075    0.8667   -0.2415 H   0  0  0  0  0  0  0  0  0  0  0  0
    1.8202    2.9798    3.7344 H   0  0  0  0  0  0  0  0  0  0  0  0
    2.8635    4.1495    2.8366 H   0  0  0  0  0  0  0  0  0  0  0  0
    1.0667    4.3768    2.8662 H   0  0  0  0  0  0  0  0  0  0  0  0
    0.1415   -0.8379    1.8479 H   0  0  0  0  0  0  0  0  0  0  0  0
    4.1014   -2.3675    3.7439 H   0  0  0  0  0  0  0  0  0  0  0  0
    4.1359   -3.2644    2.1707 H   0  0  0  0  0  0  0  0  0  0  0  0
    4.5744   -1.5101    2.2264 H   0  0  0  0  0  0  0  0  0  0  0  0
  1  2  1  0
  2  3  2  0
  2  4  1  0
  4  5  1  0
  5  6  1  0
  6  7  1  0
  7  8  1  0
  8  9  1  0
  9 10  1  0
 10 11  1  0
 10 12  2  0
  8 13  1  0
 13 14  1  0
 14 15  1  0
 15 16  2  0
 15 17  1  0
 17 18  1  0
 13 19  1  0
 19 20  1  0
 20 21  1  0
 21 22  1  0
 21 23  2  0
 19 24  1  0
 24 25  1  0
 25 26  1  0
 26 27  1  0
 26 28  2  0
 24  6  1  0
  1 29  1  0
  1 30  1  0
  1 31  1  0
  5 32  1  0
  5 33  1  0
  6 34  1  6
  8 35  1  6
 11 36  1  0
 11 37  1  0
 11 38  1  0
 13 39  1  1
 14 40  1  0
 17 41  1  0
 17 42  1  0
 19 43  1  6
 22 44  1  0
 22 45  1  0
 22 46  1  0
 24 47  1  1
 27 48  1  0
 27 49  1  0
 27 50  1  0
M  END
>  <UniqueID>  (242) 
241

>  <SMILES>  (242) 
CC(=O)OC[C@H]1O[C@@H](OC(C)=O)[C@H](NC(=O)CCl)[C@@H](OC(C)=O)[C@@H]1OC(C)=O

>  <Energy>  (242) 
30.67745672115659

>  <Genealogy>  (242) 
CC(=O)OC[C@H]1O[C@@H](OC(C)=O)[C@H](NC(=O)CCl)[C@@H](OC(C)=O)[C@@H]1OC(C)=O (3D coordinates assigned)
CC(=O)OC[C@H]1O[C@@H](OC(C)=O)[C@H](NC(=O)CCl)[C@@H](OC(C)=O)[C@@H]1OC(C)=O (nonaromatic ring conformer: 30.67745672115659 kcal/mol)

$$$$
129618
     RDKit          3D

 50 50  0  0  0  0  0  0  0  0999 V2000
    5.1003   -0.0694   -0.1063 H   0  0  0  0  0  0  0  0  0  0  0  0
    4.1221   -0.3080   -0.2236 O   0  0  0  0  0  0  0  0  0  0  0  0
    3.6374   -1.5962    0.0133 C   0  0  0  0  0  0  0  0  0  0  0  0
    4.4882   -2.5549    0.4049 C   0  0  0  0  0  0  0  0  0  0  0  0
    5.5368   -2.3194    0.5341 H   0  0  0  0  0  0  0  0  0  0  0  0
    3.9989   -4.2151    0.7168 Cl  0  0  0  0  0  0  0  0  0  0  0  0
    2.2354   -1.8661   -0.1669 N   0  0  0  0  0  0  0  0  0  0  0  0
    1.8388   -2.7856    0.1313 H   0  0  0  0  0  0  0  0  0  0  0  0
    1.2892   -0.8229   -0.5752 C   0  0  1  0  0  0  0  0  0  0  0  0
    1.8160   -0.0355   -1.1603 H   0  0  0  0  0  0  0  0  0  0  0  0
    0.1955   -1.4220   -1.4768 C   0  0  2  0  0  0  0  0  0  0  0  0
   -0.3273   -2.2502   -0.9411 H   0  0  0  0  0  0  0  0  0  0  0  0
    0.8050   -1.9634   -2.6463 O   0  0  0  0  0  0  0  0  0  0  0  0
    0.0871   -2.6611   -3.6228 C   0  0  0  0  0  0  0  0  0  0  0  0
   -1.1502   -2.8668   -3.4905 O   0  0  0  0  0  0  0  0  0  0  0  0
    0.8039   -3.2102   -4.8088 C   0  0  0  0  0  0  0  0  0  0  0  0
    0.1631   -3.1300   -5.7121 H   0  0  0  0  0  0  0  0  0  0  0  0
    1.7411   -2.6410   -4.9824 H   0  0  0  0  0  0  0  0  0  0  0  0
    1.0534   -4.2764   -4.6289 H   0  0  0  0  0  0  0  0  0  0  0  0
   -0.7199   -0.4125   -1.8618 O   0  0  0  0  0  0  0  0  0  0  0  0
   -1.4388    0.0612   -0.7355 C   0  0  2  0  0  0  0  0  0  0  0  0
   -1.9377   -0.7840   -0.2062 H   0  0  0  0  0  0  0  0  0  0  0  0
   -2.5431    1.0056   -1.2328 C   0  0  0  0  0  0  0  0  0  0  0  0
   -2.0804    1.9174   -1.6671 H   0  0  0  0  0  0  0  0  0  0  0  0
   -3.2036    1.3187   -0.3956 H   0  0  0  0  0  0  0  0  0  0  0  0
   -3.3232    0.3766   -2.2489 O   0  0  0  0  0  0  0  0  0  0  0  0
   -4.2545   -0.6352   -1.9908 C   0  0  0  0  0  0  0  0  0  0  0  0
   -4.5322   -0.9720   -0.8077 O   0  0  0  0  0  0  0  0  0  0  0  0
   -4.9674   -1.2824   -3.1287 C   0  0  0  0  0  0  0  0  0  0  0  0
   -5.9305   -0.7606   -3.3066 H   0  0  0  0  0  0  0  0  0  0  0  0
   -4.3453   -1.2242   -4.0464 H   0  0  0  0  0  0  0  0  0  0  0  0
   -5.1650   -2.3504   -2.8978 H   0  0  0  0  0  0  0  0  0  0  0  0
   -0.4805    0.7794    0.2464 C   0  0  1  0  0  0  0  0  0  0  0  0
   -0.0111    1.6513   -0.2640 H   0  0  0  0  0  0  0  0  0  0  0  0
   -1.1903    1.1977    1.4149 O   0  0  0  0  0  0  0  0  0  0  0  0
   -1.6592    2.4999    1.6238 C   0  0  0  0  0  0  0  0  0  0  0  0
   -1.4468    3.4103    0.7776 O   0  0  0  0  0  0  0  0  0  0  0  0
   -2.3708    2.8242    2.8923 C   0  0  0  0  0  0  0  0  0  0  0  0
   -2.8579    1.9120    3.2960 H   0  0  0  0  0  0  0  0  0  0  0  0
   -1.6421    3.2077    3.6362 H   0  0  0  0  0  0  0  0  0  0  0  0
   -3.1490    3.5947    2.7082 H   0  0  0  0  0  0  0  0  0  0  0  0
    0.6463   -0.1837    0.6668 C   0  0  2  0  0  0  0  0  0  0  0  0
    0.2220   -0.9981    1.2987 H   0  0  0  0  0  0  0  0  0  0  0  0
    1.6510    0.5252    1.3954 O   0  0  0  0  0  0  0  0  0  0  0  0
    1.5729    0.8017    2.7647 C   0  0  0  0  0  0  0  0  0  0  0  0
    0.6320    0.3413    3.4667 O   0  0  0  0  0  0  0  0  0  0  0  0
    2.6536    1.5977    3.4121 C   0  0  0  0  0  0  0  0  0  0  0  0
    3.4107    0.9105    3.8436 H   0  0  0  0  0  0  0  0  0  0  0  0
    2.2295    2.2318    4.2190 H   0  0  0  0  0  0  0  0  0  0  0  0
    3.1424    2.2529    2.6609 H   0  0  0  0  0  0  0  0  0  0  0  0
  1  2  1  0
  2  3  1  0
  3  4  2  0
  4  5  1  0
  4  6  1  0
  3  7  1  0
  7  8  1  0
  7  9  1  0
  9 10  1  6
  9 11  1  0
 11 12  1  1
 11 13  1  0
 13 14  1  0
 14 15  2  0
 14 16  1  0
 16 17  1  0
 16 18  1  0
 16 19  1  0
 11 20  1  0
 20 21  1  0
 21 22  1  1
 21 23  1  0
 23 24  1  0
 23 25  1  0
 23 26  1  0
 26 27  1  0
 27 28  2  0
 27 29  1  0
 29 30  1  0
 29 31  1  0
 29 32  1  0
 21 33  1  0
 33 34  1  6
 33 35  1  0
 35 36  1  0
 36 37  2  0
 36 38  1  0
 38 39  1  0
 38 40  1  0
 38 41  1  0
 33 42  1  0
 42 43  1  1
 42 44  1  0
 44 45  1  0
 45 46  2  0
 45 47  1  0
 47 48  1  0
 47 49  1  0
 47 50  1  0
 42  9  1  0
M  END
>  <UniqueID>  (243) 
242

>  <SMILES>  (243) 
CC(=O)OC[C@H]1O[C@@H](OC(C)=O)[C@H](N/C(O)=C/Cl)[C@@H](OC(C)=O)[C@@H]1OC(C)=O

>  <Energy>  (243) 
32.059379892314006

>  <Genealogy>  (243) 
CC(=O)OC[C@H]1O[C@@H](OC(C)=O)[C@H](NC(O)=CCl)[C@@H](OC(C)=O)[C@@H]1OC(C)=O (tautomer)
CC(=O)OC[C@H]1O[C@@H](OC(C)=O)[C@H](N/C(O)=C/Cl)[C@@H](OC(C)=O)[C@@H]1OC(C)=O (cis-trans isomerization)
CC(=O)OC[C@H]1O[C@@H](OC(C)=O)[C@H](N/C(O)=C/Cl)[C@@H](OC(C)=O)[C@@H]1OC(C)=O (3D coordinates assigned)
CC(=O)OC[C@H]1O[C@@H](OC(C)=O)[C@H](N/C(O)=C/Cl)[C@@H](OC(C)=O)[C@@H]1OC(C)=O (nonaromatic ring conformer: 32.059379892314006 kcal/mol)

$$$$
129618
     RDKit          3D

 50 50  0  0  0  0  0  0  0  0999 V2000
   -4.1925    1.5917    2.3694 H   0  0  0  0  0  0  0  0  0  0  0  0
   -4.4821    1.3340    1.4331 O   0  0  0  0  0  0  0  0  0  0  0  0
   -3.5524    0.9359    0.4750 C   0  0  0  0  0  0  0  0  0  0  0  0
   -2.2894    0.9208    0.7995 N   0  0  0  0  0  0  0  0  0  0  0  0
   -1.1596    0.5427   -0.0562 C   0  0  1  0  0  0  0  0  0  0  0  0
   -1.4306    0.6042   -1.1331 H   0  0  0  0  0  0  0  0  0  0  0  0
   -0.0010    1.5249    0.1813 C   0  0  2  0  0  0  0  0  0  0  0  0
    0.2766    1.5268    1.2627 H   0  0  0  0  0  0  0  0  0  0  0  0
   -0.4292    2.8387   -0.1698 O   0  0  0  0  0  0  0  0  0  0  0  0
    0.3655    3.9733    0.0222 C   0  0  0  0  0  0  0  0  0  0  0  0
    1.5060    3.8801    0.5528 O   0  0  0  0  0  0  0  0  0  0  0  0
   -0.1643    5.3135   -0.3584 C   0  0  0  0  0  0  0  0  0  0  0  0
    0.6552    5.9487   -0.7560 H   0  0  0  0  0  0  0  0  0  0  0  0
   -0.6082    5.8024    0.5334 H   0  0  0  0  0  0  0  0  0  0  0  0
   -0.9448    5.2043   -1.1404 H   0  0  0  0  0  0  0  0  0  0  0  0
    1.1081    1.1737   -0.6269 O   0  0  0  0  0  0  0  0  0  0  0  0
    1.6420   -0.0741   -0.2196 C   0  0  2  0  0  0  0  0  0  0  0  0
    1.9062   -0.0519    0.8635 H   0  0  0  0  0  0  0  0  0  0  0  0
    2.9364   -0.3280   -1.0065 C   0  0  0  0  0  0  0  0  0  0  0  0
    2.6975   -0.4213   -2.0876 H   0  0  0  0  0  0  0  0  0  0  0  0
    3.4194   -1.2753   -0.6807 H   0  0  0  0  0  0  0  0  0  0  0  0
    3.8452    0.7603   -0.8444 O   0  0  0  0  0  0  0  0  0  0  0  0
    4.5825    0.9824    0.3237 C   0  0  0  0  0  0  0  0  0  0  0  0
    4.5198    0.1764    1.2915 O   0  0  0  0  0  0  0  0  0  0  0  0
    5.4176    2.2116    0.4403 C   0  0  0  0  0  0  0  0  0  0  0  0
    6.3354    1.9962    1.0271 H   0  0  0  0  0  0  0  0  0  0  0  0
    5.7125    2.5664   -0.5694 H   0  0  0  0  0  0  0  0  0  0  0  0
    4.8342    3.0066    0.9495 H   0  0  0  0  0  0  0  0  0  0  0  0
    0.6179   -1.2032   -0.4715 C   0  0  1  0  0  0  0  0  0  0  0  0
    0.4154   -1.2592   -1.5658 H   0  0  0  0  0  0  0  0  0  0  0  0
    1.1586   -2.4424   -0.0060 O   0  0  0  0  0  0  0  0  0  0  0  0
    0.7484   -3.6958   -0.4740 C   0  0  0  0  0  0  0  0  0  0  0  0
   -0.0633   -3.7955   -1.4338 O   0  0  0  0  0  0  0  0  0  0  0  0
    1.3288   -4.9282    0.1306 C   0  0  0  0  0  0  0  0  0  0  0  0
    0.5658   -5.7345    0.1595 H   0  0  0  0  0  0  0  0  0  0  0  0
    1.6672   -4.7180    1.1668 H   0  0  0  0  0  0  0  0  0  0  0  0
    2.1958   -5.2640   -0.4752 H   0  0  0  0  0  0  0  0  0  0  0  0
   -0.6908   -0.8886    0.2779 C   0  0  2  0  0  0  0  0  0  0  0  0
   -0.4830   -0.9651    1.3703 H   0  0  0  0  0  0  0  0  0  0  0  0
   -1.6883   -1.8390   -0.1001 O   0  0  0  0  0  0  0  0  0  0  0  0
   -2.6878   -2.3066    0.7611 C   0  0  0  0  0  0  0  0  0  0  0  0
   -2.7453   -1.9193    1.9597 O   0  0  0  0  0  0  0  0  0  0  0  0
   -3.7243   -3.2411    0.2389 C   0  0  0  0  0  0  0  0  0  0  0  0
   -4.6414   -2.6702   -0.0154 H   0  0  0  0  0  0  0  0  0  0  0  0
   -3.9680   -4.0062    1.0057 H   0  0  0  0  0  0  0  0  0  0  0  0
   -3.3493   -3.7526   -0.6722 H   0  0  0  0  0  0  0  0  0  0  0  0
   -4.0325    0.5807   -0.9094 C   0  0  0  0  0  0  0  0  0  0  0  0
   -3.7614    1.3958   -1.6122 H   0  0  0  0  0  0  0  0  0  0  0  0
   -3.5674   -0.3647   -1.2539 H   0  0  0  0  0  0  0  0  0  0  0  0
   -5.8012    0.3525   -0.9570 Cl  0  0  0  0  0  0  0  0  0  0  0  0
  1  2  1  0
  2  3  1  0
  3  4  2  0
  4  5  1  0
  5  6  1  6
  5  7  1  0
  7  8  1  1
  7  9  1  0
  9 10  1  0
 10 11  2  0
 10 12  1  0
 12 13  1  0
 12 14  1  0
 12 15  1  0
  7 16  1  0
 16 17  1  0
 17 18  1  1
 17 19  1  0
 19 20  1  0
 19 21  1  0
 19 22  1  0
 22 23  1  0
 23 24  2  0
 23 25  1  0
 25 26  1  0
 25 27  1  0
 25 28  1  0
 17 29  1  0
 29 30  1  6
 29 31  1  0
 31 32  1  0
 32 33  2  0
 32 34  1  0
 34 35  1  0
 34 36  1  0
 34 37  1  0
 29 38  1  0
 38 39  1  1
 38 40  1  0
 40 41  1  0
 41 42  2  0
 41 43  1  0
 43 44  1  0
 43 45  1  0
 43 46  1  0
  3 47  1  0
 47 48  1  0
 47 49  1  0
 47 50  1  0
 38  5  1  0
M  END
>  <UniqueID>  (244) 
243

>  <SMILES>  (244) 
CC(=O)OC[C@H]1O[C@@H](OC(C)=O)[C@H](/N=C(\O)CCl)[C@@H](OC(C)=O)[C@@H]1OC(C)=O

>  <Energy>  (244) 
33.25295198558819

>  <Genealogy>  (244) 
CC(=O)OC[C@H]1O[C@@H](OC(C)=O)[C@H](N=C(O)CCl)[C@@H](OC(C)=O)[C@@H]1OC(C)=O (tautomer)
CC(=O)OC[C@H]1O[C@@H](OC(C)=O)[C@H](/N=C(\O)CCl)[C@@H](OC(C)=O)[C@@H]1OC(C)=O (cis-trans isomerization)
CC(=O)OC[C@H]1O[C@@H](OC(C)=O)[C@H](/N=C(\O)CCl)[C@@H](OC(C)=O)[C@@H]1OC(C)=O (3D coordinates assigned)
CC(=O)OC[C@H]1O[C@@H](OC(C)=O)[C@H](/N=C(\O)CCl)[C@@H](OC(C)=O)[C@@H]1OC(C)=O (nonaromatic ring conformer: 33.25295198558819 kcal/mol)

$$$$
127132
     RDKit          3D

 50 50  0  0  0  0  0  0  0  0999 V2000
   -4.4478   -1.5875   -3.2040 C   0  0  0  0  0  0  0  0  0  0  0  0
   -3.3283   -1.9745   -2.2944 C   0  0  0  0  0  0  0  0  0  0  0  0
   -2.9590   -3.1787   -2.2406 O   0  0  0  0  0  0  0  0  0  0  0  0
   -2.6697   -0.9715   -1.5077 N   0  0  0  0  0  0  0  0  0  0  0  0
   -1.4817   -1.2501   -0.6896 C   0  0  2  0  0  0  0  0  0  0  0  0
   -1.6117   -0.5730    0.6863 C   0  0  2  0  0  0  0  0  0  0  0  0
   -2.8245   -0.9981    1.3038 O   0  0  0  0  0  0  0  0  0  0  0  0
   -3.1866   -0.6265    2.6024 C   0  0  0  0  0  0  0  0  0  0  0  0
   -4.4708   -1.1202    3.1759 C   0  0  0  0  0  0  0  0  0  0  0  0
   -2.4205    0.0857    3.3072 O   0  0  0  0  0  0  0  0  0  0  0  0
   -1.6315    0.8364    0.5438 O   0  0  0  0  0  0  0  0  0  0  0  0
   -0.3814    1.3022    0.0648 C   0  0  2  0  0  0  0  0  0  0  0  0
   -0.3895    2.8376    0.1027 C   0  0  0  0  0  0  0  0  0  0  0  0
   -0.7078    3.3066    1.4123 O   0  0  0  0  0  0  0  0  0  0  0  0
    0.1906    3.2707    2.4844 C   0  0  0  0  0  0  0  0  0  0  0  0
   -0.2726    3.6755    3.8421 C   0  0  0  0  0  0  0  0  0  0  0  0
    1.3738    2.8651    2.3238 O   0  0  0  0  0  0  0  0  0  0  0  0
   -0.1301    0.7922   -1.3724 C   0  0  1  0  0  0  0  0  0  0  0  0
    1.1636    1.2220   -1.8040 O   0  0  0  0  0  0  0  0  0  0  0  0
    1.5327    1.3519   -3.1475 C   0  0  0  0  0  0  0  0  0  0  0  0
    2.9285    1.7483   -3.4875 C   0  0  0  0  0  0  0  0  0  0  0  0
    0.6881    1.1919   -4.0701 O   0  0  0  0  0  0  0  0  0  0  0  0
   -0.2045   -0.7479   -1.3971 C   0  0  2  0  0  0  0  0  0  0  0  0
   -0.1675   -1.2079   -2.7488 O   0  0  0  0  0  0  0  0  0  0  0  0
    0.1307   -2.5259   -3.1095 C   0  0  0  0  0  0  0  0  0  0  0  0
    0.0962   -2.9152   -4.5475 C   0  0  0  0  0  0  0  0  0  0  0  0
    0.4708   -3.3736   -2.2401 O   0  0  0  0  0  0  0  0  0  0  0  0
   -4.0509   -0.9659   -4.0334 H   0  0  0  0  0  0  0  0  0  0  0  0
   -5.2037   -1.0036   -2.6385 H   0  0  0  0  0  0  0  0  0  0  0  0
   -4.9364   -2.4899   -3.6293 H   0  0  0  0  0  0  0  0  0  0  0  0
   -2.9934    0.0177   -1.6046 H   0  0  0  0  0  0  0  0  0  0  0  0
   -1.3854   -2.3441   -0.5156 H   0  0  0  0  0  0  0  0  0  0  0  0
   -0.7641   -0.8962    1.3366 H   0  0  0  0  0  0  0  0  0  0  0  0
   -5.1803   -1.3679    2.3587 H   0  0  0  0  0  0  0  0  0  0  0  0
   -4.2797   -2.0305    3.7810 H   0  0  0  0  0  0  0  0  0  0  0  0
   -4.9256   -0.3390    3.8209 H   0  0  0  0  0  0  0  0  0  0  0  0
    0.4460    0.9550    0.7270 H   0  0  0  0  0  0  0  0  0  0  0  0
   -1.1623    3.2188   -0.5986 H   0  0  0  0  0  0  0  0  0  0  0  0
    0.5936    3.2476   -0.2171 H   0  0  0  0  0  0  0  0  0  0  0  0
    0.5524    4.1718    4.3955 H   0  0  0  0  0  0  0  0  0  0  0  0
   -1.1237    4.3831    3.7566 H   0  0  0  0  0  0  0  0  0  0  0  0
   -0.6018    2.7760    4.4026 H   0  0  0  0  0  0  0  0  0  0  0  0
   -0.9134    1.2163   -2.0409 H   0  0  0  0  0  0  0  0  0  0  0  0
    3.6170    1.4471   -2.6703 H   0  0  0  0  0  0  0  0  0  0  0  0
    2.9785    2.8490   -3.6192 H   0  0  0  0  0  0  0  0  0  0  0  0
    3.2485    1.2505   -4.4272 H   0  0  0  0  0  0  0  0  0  0  0  0
    0.6849   -1.1403   -0.8523 H   0  0  0  0  0  0  0  0  0  0  0  0
   -0.2173   -3.9756   -4.6495 H   0  0  0  0  0  0  0  0  0  0  0  0
    1.1057   -2.7857   -4.9897 H   0  0  0  0  0  0  0  0  0  0  0  0
   -0.6270   -2.2742   -5.0940 H   0  0  0  0  0  0  0  0  0  0  0  0
  1  2  1  0
  2  3  2  0
  2  4  1  0
  4  5  1  0
  5  6  1  0
  6  7  1  0
  7  8  1  0
  8  9  1  0
  8 10  2  0
  6 11  1  0
 11 12  1  0
 12 13  1  0
 13 14  1  0
 14 15  1  0
 15 16  1  0
 15 17  2  0
 12 18  1  0
 18 19  1  0
 19 20  1  0
 20 21  1  0
 20 22  2  0
 18 23  1  0
 23 24  1  0
 24 25  1  0
 25 26  1  0
 25 27  2  0
 23  5  1  0
  1 28  1  0
  1 29  1  0
  1 30  1  0
  4 31  1  0
  5 32  1  1
  6 33  1  1
  9 34  1  0
  9 35  1  0
  9 36  1  0
 12 37  1  1
 13 38  1  0
 13 39  1  0
 16 40  1  0
 16 41  1  0
 16 42  1  0
 18 43  1  6
 21 44  1  0
 21 45  1  0
 21 46  1  0
 23 47  1  1
 26 48  1  0
 26 49  1  0
 26 50  1  0
M  END
>  <UniqueID>  (245) 
244

>  <SMILES>  (245) 
CC(=O)N[C@@H]1[C@H](OC(C)=O)O[C@H](COC(C)=O)[C@@H](OC(C)=O)[C@@H]1OC(C)=O

>  <Energy>  (245) 
29.347010231756222

>  <Genealogy>  (245) 
CC(=O)N[C@@H]1[C@H](OC(C)=O)O[C@H](COC(C)=O)[C@@H](OC(C)=O)[C@@H]1OC(C)=O (chirality)
CC(=O)N[C@@H]1[C@H](OC(C)=O)O[C@H](COC(C)=O)[C@@H](OC(C)=O)[C@@H]1OC(C)=O (3D coordinates assigned)
CC(=O)N[C@@H]1[C@H](OC(C)=O)O[C@H](COC(C)=O)[C@@H](OC(C)=O)[C@@H]1OC(C)=O (nonaromatic ring conformer: 29.347010231756222 kcal/mol)

$$$$
127132
     RDKit          3D

 50 50  0  0  0  0  0  0  0  0999 V2000
   -0.8699    2.7410   -3.4307 H   0  0  0  0  0  0  0  0  0  0  0  0
   -1.0374    2.0806   -2.6812 O   0  0  0  0  0  0  0  0  0  0  0  0
   -0.0015    1.3107   -2.1528 C   0  0  0  0  0  0  0  0  0  0  0  0
   -0.2237    0.4806   -1.1782 N   0  0  0  0  0  0  0  0  0  0  0  0
   -1.5320    0.2707   -0.5512 C   0  0  2  0  0  0  0  0  0  0  0  0
   -2.3105    0.2056   -1.3435 H   0  0  0  0  0  0  0  0  0  0  0  0
   -1.8537    1.4350    0.4140 C   0  0  1  0  0  0  0  0  0  0  0  0
   -1.7457    2.3953   -0.1349 H   0  0  0  0  0  0  0  0  0  0  0  0
   -3.1962    1.3534    0.9046 O   0  0  0  0  0  0  0  0  0  0  0  0
   -4.3237    1.6341    0.1253 C   0  0  0  0  0  0  0  0  0  0  0  0
   -4.2042    2.0716   -1.0514 O   0  0  0  0  0  0  0  0  0  0  0  0
   -5.6819    1.4680    0.7162 C   0  0  0  0  0  0  0  0  0  0  0  0
   -5.6487    0.7201    1.5360 H   0  0  0  0  0  0  0  0  0  0  0  0
   -6.3954    1.1180   -0.0594 H   0  0  0  0  0  0  0  0  0  0  0  0
   -6.0294    2.4402    1.1232 H   0  0  0  0  0  0  0  0  0  0  0  0
   -0.9308    1.4705    1.4907 O   0  0  0  0  0  0  0  0  0  0  0  0
   -0.9996    0.2934    2.2824 C   0  0  2  0  0  0  0  0  0  0  0  0
   -2.0277    0.1591    2.6910 H   0  0  0  0  0  0  0  0  0  0  0  0
   -0.0758    0.4774    3.4918 C   0  0  0  0  0  0  0  0  0  0  0  0
   -0.3927    1.3815    4.0563 H   0  0  0  0  0  0  0  0  0  0  0  0
   -0.1569   -0.3965    4.1735 H   0  0  0  0  0  0  0  0  0  0  0  0
    1.2739    0.6382    3.0638 O   0  0  0  0  0  0  0  0  0  0  0  0
    2.3358    0.7917    3.9585 C   0  0  0  0  0  0  0  0  0  0  0  0
    2.1305    0.8317    5.2021 O   0  0  0  0  0  0  0  0  0  0  0  0
    3.7206    0.9556    3.4321 C   0  0  0  0  0  0  0  0  0  0  0  0
    4.4459    0.4478    4.1022 H   0  0  0  0  0  0  0  0  0  0  0  0
    3.9685    2.0357    3.3733 H   0  0  0  0  0  0  0  0  0  0  0  0
    3.7957    0.5086    2.4186 H   0  0  0  0  0  0  0  0  0  0  0  0
   -0.6160   -0.9586    1.4539 C   0  0  1  0  0  0  0  0  0  0  0  0
    0.4335   -0.8642    1.0943 H   0  0  0  0  0  0  0  0  0  0  0  0
   -0.7746   -2.1395    2.2444 O   0  0  0  0  0  0  0  0  0  0  0  0
    0.2835   -2.8258    2.8519 C   0  0  0  0  0  0  0  0  0  0  0  0
    1.4761   -2.4442    2.7040 O   0  0  0  0  0  0  0  0  0  0  0  0
   -0.0029   -4.0590    3.6379 C   0  0  0  0  0  0  0  0  0  0  0  0
    0.0920   -4.9467    2.9787 H   0  0  0  0  0  0  0  0  0  0  0  0
   -1.0347   -4.0161    4.0452 H   0  0  0  0  0  0  0  0  0  0  0  0
    0.7125   -4.1492    4.4824 H   0  0  0  0  0  0  0  0  0  0  0  0
   -1.5304   -1.0585    0.2195 C   0  0  2  0  0  0  0  0  0  0  0  0
   -2.5754   -1.2656    0.5468 H   0  0  0  0  0  0  0  0  0  0  0  0
   -1.0852   -2.1042   -0.6486 O   0  0  0  0  0  0  0  0  0  0  0  0
   -1.3976   -3.4561   -0.4656 C   0  0  0  0  0  0  0  0  0  0  0  0
   -2.2121   -3.8184    0.4262 O   0  0  0  0  0  0  0  0  0  0  0  0
   -0.8055   -4.4741   -1.3790 C   0  0  0  0  0  0  0  0  0  0  0  0
   -1.5199   -4.6957   -2.1988 H   0  0  0  0  0  0  0  0  0  0  0  0
   -0.5876   -5.4076   -0.8186 H   0  0  0  0  0  0  0  0  0  0  0  0
    0.1403   -4.0883   -1.8136 H   0  0  0  0  0  0  0  0  0  0  0  0
    1.3844    1.4580   -2.6923 C   0  0  0  0  0  0  0  0  0  0  0  0
    2.0091    0.5815   -2.4163 H   0  0  0  0  0  0  0  0  0  0  0  0
    1.8452    2.3780   -2.2766 H   0  0  0  0  0  0  0  0  0  0  0  0
    1.3505    1.5349   -3.7991 H   0  0  0  0  0  0  0  0  0  0  0  0
  1  2  1  0
  2  3  1  0
  3  4  2  0
  4  5  1  0
  5  6  1  6
  5  7  1  0
  7  8  1  6
  7  9  1  0
  9 10  1  0
 10 11  2  0
 10 12  1  0
 12 13  1  0
 12 14  1  0
 12 15  1  0
  7 16  1  0
 16 17  1  0
 17 18  1  1
 17 19  1  0
 19 20  1  0
 19 21  1  0
 19 22  1  0
 22 23  1  0
 23 24  2  0
 23 25  1  0
 25 26  1  0
 25 27  1  0
 25 28  1  0
 17 29  1  0
 29 30  1  6
 29 31  1  0
 31 32  1  0
 32 33  2  0
 32 34  1  0
 34 35  1  0
 34 36  1  0
 34 37  1  0
 29 38  1  0
 38 39  1  1
 38 40  1  0
 40 41  1  0
 41 42  2  0
 41 43  1  0
 43 44  1  0
 43 45  1  0
 43 46  1  0
  3 47  1  0
 47 48  1  0
 47 49  1  0
 47 50  1  0
 38  5  1  0
M  END
>  <UniqueID>  (246) 
245

>  <SMILES>  (246) 
CC(=O)OC[C@H]1O[C@H](OC(C)=O)[C@@H](/N=C(/C)O)[C@@H](OC(C)=O)[C@@H]1OC(C)=O

>  <Energy>  (246) 
32.504354080973

>  <Genealogy>  (246) 
CC(=O)OC[C@H]1OC(OC(C)=O)[C@@H](N=C(C)O)[C@@H](OC(C)=O)[C@@H]1OC(C)=O (tautomer)
CC(=O)OC[C@H]1O[C@H](OC(C)=O)[C@@H](N=C(C)O)[C@@H](OC(C)=O)[C@@H]1OC(C)=O (chirality)
CC(=O)OC[C@H]1O[C@H](OC(C)=O)[C@@H](/N=C(/C)O)[C@@H](OC(C)=O)[C@@H]1OC(C)=O (cis-trans isomerization)
CC(=O)OC[C@H]1O[C@H](OC(C)=O)[C@@H](/N=C(/C)O)[C@@H](OC(C)=O)[C@@H]1OC(C)=O (3D coordinates assigned)
CC(=O)OC[C@H]1O[C@H](OC(C)=O)[C@@H](/N=C(/C)O)[C@@H](OC(C)=O)[C@@H]1OC(C)=O (nonaromatic ring conformer: 32.504354080973 kcal/mol)

$$$$
127132
     RDKit          3D

 50 50  0  0  0  0  0  0  0  0999 V2000
    2.5686    4.0143    1.5993 C   0  0  0  0  0  0  0  0  0  0  0  0
    1.6517    3.5832    0.5018 C   0  0  0  0  0  0  0  0  0  0  0  0
    1.7049    4.1613   -0.6175 O   0  0  0  0  0  0  0  0  0  0  0  0
    0.7271    2.5094    0.7254 N   0  0  0  0  0  0  0  0  0  0  0  0
   -0.1313    1.9667   -0.3359 C   0  0  2  0  0  0  0  0  0  0  0  0
   -1.4755    1.4978    0.2635 C   0  0  1  0  0  0  0  0  0  0  0  0
   -2.4253    1.1787   -0.7595 O   0  0  0  0  0  0  0  0  0  0  0  0
   -3.0809    2.1395   -1.5370 C   0  0  0  0  0  0  0  0  0  0  0  0
   -4.0164    1.6980   -2.6099 C   0  0  0  0  0  0  0  0  0  0  0  0
   -2.9284    3.3703   -1.3092 O   0  0  0  0  0  0  0  0  0  0  0  0
   -1.2880    0.3902    1.1295 O   0  0  0  0  0  0  0  0  0  0  0  0
   -0.7706   -0.7373    0.4378 C   0  0  2  0  0  0  0  0  0  0  0  0
   -0.7289   -1.9203    1.4168 C   0  0  0  0  0  0  0  0  0  0  0  0
   -2.0056   -2.1182    2.0227 O   0  0  0  0  0  0  0  0  0  0  0  0
   -3.0931   -2.6962    1.3582 C   0  0  0  0  0  0  0  0  0  0  0  0
   -4.4150   -2.7713    2.0428 C   0  0  0  0  0  0  0  0  0  0  0  0
   -2.9778   -3.1213    0.1765 O   0  0  0  0  0  0  0  0  0  0  0  0
    0.6362   -0.4353   -0.1333 C   0  0  1  0  0  0  0  0  0  0  0  0
    1.1098   -1.5506   -0.8928 O   0  0  0  0  0  0  0  0  0  0  0  0
    2.0215   -2.4976   -0.4120 C   0  0  0  0  0  0  0  0  0  0  0  0
    2.4649   -3.6036   -1.3068 C   0  0  0  0  0  0  0  0  0  0  0  0
    2.5059   -2.4026    0.7483 O   0  0  0  0  0  0  0  0  0  0  0  0
    0.5643    0.7964   -1.0541 C   0  0  2  0  0  0  0  0  0  0  0  0
    1.8769    1.1974   -1.4546 O   0  0  0  0  0  0  0  0  0  0  0  0
    2.5858    0.6125   -2.5097 C   0  0  0  0  0  0  0  0  0  0  0  0
    3.9825    1.0529   -2.7850 C   0  0  0  0  0  0  0  0  0  0  0  0
    2.0432   -0.2435   -3.2599 O   0  0  0  0  0  0  0  0  0  0  0  0
    3.1874    4.8788    1.2767 H   0  0  0  0  0  0  0  0  0  0  0  0
    3.2392    3.1730    1.8727 H   0  0  0  0  0  0  0  0  0  0  0  0
    1.9718    4.3100    2.4873 H   0  0  0  0  0  0  0  0  0  0  0  0
    0.7462    2.0317    1.6554 H   0  0  0  0  0  0  0  0  0  0  0  0
   -0.3405    2.7641   -1.0818 H   0  0  0  0  0  0  0  0  0  0  0  0
   -1.8903    2.3261    0.8793 H   0  0  0  0  0  0  0  0  0  0  0  0
   -5.0519    1.6751   -2.2113 H   0  0  0  0  0  0  0  0  0  0  0  0
   -3.9689    2.3988   -3.4700 H   0  0  0  0  0  0  0  0  0  0  0  0
   -3.7378    0.6819   -2.9599 H   0  0  0  0  0  0  0  0  0  0  0  0
   -1.4456   -1.0279   -0.3989 H   0  0  0  0  0  0  0  0  0  0  0  0
    0.0069   -1.7059    2.2211 H   0  0  0  0  0  0  0  0  0  0  0  0
   -0.4135   -2.8528    0.9011 H   0  0  0  0  0  0  0  0  0  0  0  0
   -5.0369   -1.9032    1.7405 H   0  0  0  0  0  0  0  0  0  0  0  0
   -4.9364   -3.7113    1.7643 H   0  0  0  0  0  0  0  0  0  0  0  0
   -4.2736   -2.7524    3.1438 H   0  0  0  0  0  0  0  0  0  0  0  0
    1.3366   -0.2033    0.7006 H   0  0  0  0  0  0  0  0  0  0  0  0
    1.6987   -3.7882   -2.0886 H   0  0  0  0  0  0  0  0  0  0  0  0
    2.6096   -4.5348   -0.7196 H   0  0  0  0  0  0  0  0  0  0  0  0
    3.4218   -3.3231   -1.7940 H   0  0  0  0  0  0  0  0  0  0  0  0
   -0.0397    0.5470   -1.9569 H   0  0  0  0  0  0  0  0  0  0  0  0
    3.9804    1.7980   -3.6075 H   0  0  0  0  0  0  0  0  0  0  0  0
    4.6044    0.1814   -3.0793 H   0  0  0  0  0  0  0  0  0  0  0  0
    4.4205    1.5152   -1.8757 H   0  0  0  0  0  0  0  0  0  0  0  0
  1  2  1  0
  2  3  2  0
  2  4  1  0
  4  5  1  0
  5  6  1  0
  6  7  1  0
  7  8  1  0
  8  9  1  0
  8 10  2  0
  6 11  1  0
 11 12  1  0
 12 13  1  0
 13 14  1  0
 14 15  1  0
 15 16  1  0
 15 17  2  0
 12 18  1  0
 18 19  1  0
 19 20  1  0
 20 21  1  0
 20 22  2  0
 18 23  1  0
 23 24  1  0
 24 25  1  0
 25 26  1  0
 25 27  2  0
 23  5  1  0
  1 28  1  0
  1 29  1  0
  1 30  1  0
  4 31  1  0
  5 32  1  6
  6 33  1  1
  9 34  1  0
  9 35  1  0
  9 36  1  0
 12 37  1  6
 13 38  1  0
 13 39  1  0
 16 40  1  0
 16 41  1  0
 16 42  1  0
 18 43  1  1
 21 44  1  0
 21 45  1  0
 21 46  1  0
 23 47  1  6
 26 48  1  0
 26 49  1  0
 26 50  1  0
M  END
>  <UniqueID>  (247) 
246

>  <SMILES>  (247) 
CC(=O)N[C@@H]1[C@@H](OC(C)=O)O[C@H](COC(C)=O)[C@@H](OC(C)=O)[C@@H]1OC(C)=O

>  <Energy>  (247) 
33.513370168899094

>  <Genealogy>  (247) 
CC(=O)N[C@@H]1[C@@H](OC(C)=O)O[C@H](COC(C)=O)[C@@H](OC(C)=O)[C@@H]1OC(C)=O (chirality)
CC(=O)N[C@@H]1[C@@H](OC(C)=O)O[C@H](COC(C)=O)[C@@H](OC(C)=O)[C@@H]1OC(C)=O (3D coordinates assigned)
CC(=O)N[C@@H]1[C@@H](OC(C)=O)O[C@H](COC(C)=O)[C@@H](OC(C)=O)[C@@H]1OC(C)=O (nonaromatic ring conformer: 33.513370168899094 kcal/mol)

$$$$
122253
     RDKit          3D

 43 44  0  0  0  0  0  0  0  0999 V2000
    2.1449    2.3409   -3.2255 C   0  0  0  0  0  0  0  0  0  0  0  0
    2.1962    1.8336   -1.8218 C   0  0  0  0  0  0  0  0  0  0  0  0
    2.4644    2.6291   -0.8817 O   0  0  0  0  0  0  0  0  0  0  0  0
    1.9723    0.4423   -1.5564 N   0  0  0  0  0  0  0  0  0  0  0  0
    1.9610   -0.1067   -0.1950 C   0  0  1  0  0  0  0  0  0  0  0  0
    0.6320    0.2501    0.5091 C   0  0  1  0  0  0  0  0  0  0  0  0
   -0.4659   -0.1563   -0.2927 O   0  0  0  0  0  0  0  0  0  0  0  0
   -1.6507    0.4786    0.1372 C   0  0  0  0  0  0  0  0  0  0  0  0
   -2.8058   -0.0949   -0.6292 C   0  0  0  0  0  0  0  0  0  0  0  0
   -3.4520   -1.2550   -0.1702 C   0  0  0  0  0  0  0  0  0  0  0  0
   -4.4972   -1.8172   -0.9098 C   0  0  0  0  0  0  0  0  0  0  0  0
   -4.8939   -1.2351   -2.1165 C   0  0  0  0  0  0  0  0  0  0  0  0
   -4.2421   -0.0936   -2.5889 C   0  0  0  0  0  0  0  0  0  0  0  0
   -3.1963    0.4721   -1.8525 C   0  0  0  0  0  0  0  0  0  0  0  0
    0.5687   -0.3244    1.8091 O   0  0  0  0  0  0  0  0  0  0  0  0
    0.6232   -1.7418    1.7562 C   0  0  2  0  0  0  0  0  0  0  0  0
    0.3487   -2.3152    3.1558 C   0  0  0  0  0  0  0  0  0  0  0  0
    1.2128   -1.7646    4.1149 O   0  0  0  0  0  0  0  0  0  0  0  0
    1.9789   -2.2188    1.1882 C   0  0  2  0  0  0  0  0  0  0  0  0
    3.0372   -1.7929    2.0124 O   0  0  0  0  0  0  0  0  0  0  0  0
    2.1637   -1.6379   -0.2208 C   0  0  2  0  0  0  0  0  0  0  0  0
    3.4524   -1.9516   -0.6850 O   0  0  0  0  0  0  0  0  0  0  0  0
    2.1258    3.4510   -3.2391 H   0  0  0  0  0  0  0  0  0  0  0  0
    1.2301    1.9606   -3.7277 H   0  0  0  0  0  0  0  0  0  0  0  0
    3.0381    1.9868   -3.7802 H   0  0  0  0  0  0  0  0  0  0  0  0
    1.7937   -0.1910   -2.3690 H   0  0  0  0  0  0  0  0  0  0  0  0
    2.8016    0.3405    0.3828 H   0  0  0  0  0  0  0  0  0  0  0  0
    0.6322    1.3580    0.6322 H   0  0  0  0  0  0  0  0  0  0  0  0
   -1.8255    0.3193    1.2261 H   0  0  0  0  0  0  0  0  0  0  0  0
   -1.5917    1.5748   -0.0485 H   0  0  0  0  0  0  0  0  0  0  0  0
   -3.1451   -1.7234    0.7575 H   0  0  0  0  0  0  0  0  0  0  0  0
   -4.9946   -2.7088   -0.5507 H   0  0  0  0  0  0  0  0  0  0  0  0
   -5.7013   -1.6726   -2.6895 H   0  0  0  0  0  0  0  0  0  0  0  0
   -4.5424    0.3500   -3.5299 H   0  0  0  0  0  0  0  0  0  0  0  0
   -2.6894    1.3484   -2.2371 H   0  0  0  0  0  0  0  0  0  0  0  0
   -0.1910   -2.1392    1.1064 H   0  0  0  0  0  0  0  0  0  0  0  0
    0.4848   -3.4176    3.1410 H   0  0  0  0  0  0  0  0  0  0  0  0
   -0.7118   -2.1204    3.4369 H   0  0  0  0  0  0  0  0  0  0  0  0
    0.8304   -0.8864    4.3768 H   0  0  0  0  0  0  0  0  0  0  0  0
    1.9692   -3.3325    1.1007 H   0  0  0  0  0  0  0  0  0  0  0  0
    3.2890   -2.5609    2.5886 H   0  0  0  0  0  0  0  0  0  0  0  0
    1.3986   -2.1045   -0.8873 H   0  0  0  0  0  0  0  0  0  0  0  0
    3.4239   -1.9081   -1.6766 H   0  0  0  0  0  0  0  0  0  0  0  0
  1  2  1  0
  2  3  2  0
  2  4  1  0
  4  5  1  0
  5  6  1  0
  6  7  1  0
  7  8  1  0
  8  9  1  0
  9 10  2  0
 10 11  1  0
 11 12  2  0
 12 13  1  0
 13 14  2  0
  6 15  1  0
 15 16  1  0
 16 17  1  0
 17 18  1  0
 16 19  1  0
 19 20  1  0
 19 21  1  0
 21 22  1  0
 21  5  1  0
 14  9  1  0
  1 23  1  0
  1 24  1  0
  1 25  1  0
  4 26  1  0
  5 27  1  1
  6 28  1  1
  8 29  1  0
  8 30  1  0
 10 31  1  0
 11 32  1  0
 12 33  1  0
 13 34  1  0
 14 35  1  0
 16 36  1  6
 17 37  1  0
 17 38  1  0
 18 39  1  0
 19 40  1  6
 20 41  1  0
 21 42  1  6
 22 43  1  0
M  END
>  <UniqueID>  (248) 
247

>  <SMILES>  (248) 
CC(=O)N[C@H]1[C@@H](OCc2ccccc2)O[C@H](CO)[C@H](O)[C@@H]1O

>  <Energy>  (248) 
41.67887685826665

>  <Genealogy>  (248) 
CC(=O)N[C@H]1[C@@H](OCc2ccccc2)O[C@H](CO)[C@H](O)[C@@H]1O (3D coordinates assigned)
CC(=O)N[C@H]1[C@@H](OCc2ccccc2)O[C@H](CO)[C@H](O)[C@@H]1O (nonaromatic ring conformer: 41.67887685826665 kcal/mol)

$$$$
122253
     RDKit          3D

 43 44  0  0  0  0  0  0  0  0999 V2000
    0.7929   -4.0881   -1.7536 H   0  0  0  0  0  0  0  0  0  0  0  0
    0.2339   -3.2569   -1.9047 O   0  0  0  0  0  0  0  0  0  0  0  0
   -0.2170   -2.4785   -0.8418 C   0  0  0  0  0  0  0  0  0  0  0  0
   -0.8984   -1.4017   -1.1143 N   0  0  0  0  0  0  0  0  0  0  0  0
   -1.4331   -0.4131   -0.1703 C   0  0  1  0  0  0  0  0  0  0  0  0
   -1.9101   -0.9262    0.6927 H   0  0  0  0  0  0  0  0  0  0  0  0
   -0.3054    0.5099    0.3510 C   0  0  1  0  0  0  0  0  0  0  0  0
    0.3271   -0.1228    1.0115 H   0  0  0  0  0  0  0  0  0  0  0  0
    0.4442    1.0278   -0.7402 O   0  0  0  0  0  0  0  0  0  0  0  0
    1.7725    1.3195   -0.3525 C   0  0  0  0  0  0  0  0  0  0  0  0
    2.1866    2.0577   -1.0710 H   0  0  0  0  0  0  0  0  0  0  0  0
    1.8191    1.8075    0.6494 H   0  0  0  0  0  0  0  0  0  0  0  0
    2.6229    0.0775   -0.4161 C   0  0  0  0  0  0  0  0  0  0  0  0
    2.7405   -0.6319   -1.6226 C   0  0  0  0  0  0  0  0  0  0  0  0
    2.2375   -0.2807   -2.5151 H   0  0  0  0  0  0  0  0  0  0  0  0
    3.4948   -1.8079   -1.6775 C   0  0  0  0  0  0  0  0  0  0  0  0
    3.5754   -2.3553   -2.6076 H   0  0  0  0  0  0  0  0  0  0  0  0
    4.1397   -2.2802   -0.5313 C   0  0  0  0  0  0  0  0  0  0  0  0
    4.7212   -3.1920   -0.5747 H   0  0  0  0  0  0  0  0  0  0  0  0
    4.0333   -1.5759    0.6712 C   0  0  0  0  0  0  0  0  0  0  0  0
    4.5318   -1.9437    1.5586 H   0  0  0  0  0  0  0  0  0  0  0  0
    3.2778   -0.4006    0.7311 C   0  0  0  0  0  0  0  0  0  0  0  0
    3.1949    0.1279    1.6725 H   0  0  0  0  0  0  0  0  0  0  0  0
   -0.8187    1.5592    1.1623 O   0  0  0  0  0  0  0  0  0  0  0  0
   -1.7147    2.3914    0.4415 C   0  0  2  0  0  0  0  0  0  0  0  0
   -1.2171    2.8052   -0.4663 H   0  0  0  0  0  0  0  0  0  0  0  0
   -2.0809    3.6065    1.3049 C   0  0  0  0  0  0  0  0  0  0  0  0
   -2.8492    4.2218    0.7845 H   0  0  0  0  0  0  0  0  0  0  0  0
   -1.1711    4.2324    1.4457 H   0  0  0  0  0  0  0  0  0  0  0  0
   -2.5600    3.1993    2.5574 O   0  0  0  0  0  0  0  0  0  0  0  0
   -2.7813    4.0312    3.0513 H   0  0  0  0  0  0  0  0  0  0  0  0
   -2.9654    1.5998    0.0011 C   0  0  2  0  0  0  0  0  0  0  0  0
   -3.6214    2.2738   -0.6005 H   0  0  0  0  0  0  0  0  0  0  0  0
   -3.6539    1.1215    1.1308 O   0  0  0  0  0  0  0  0  0  0  0  0
   -4.6147    1.0707    0.8863 H   0  0  0  0  0  0  0  0  0  0  0  0
   -2.5122    0.4260   -0.8862 C   0  0  2  0  0  0  0  0  0  0  0  0
   -2.0650    0.8535   -1.8118 H   0  0  0  0  0  0  0  0  0  0  0  0
   -3.6067   -0.3650   -1.2826 O   0  0  0  0  0  0  0  0  0  0  0  0
   -3.9367   -0.8569   -0.4862 H   0  0  0  0  0  0  0  0  0  0  0  0
    0.1258   -2.8948    0.5633 C   0  0  0  0  0  0  0  0  0  0  0  0
   -0.7296   -2.7483    1.2523 H   0  0  0  0  0  0  0  0  0  0  0  0
    0.3845   -3.9737    0.5856 H   0  0  0  0  0  0  0  0  0  0  0  0
    1.0062   -2.3259    0.9222 H   0  0  0  0  0  0  0  0  0  0  0  0
  1  2  1  0
  2  3  1  0
  3  4  2  0
  4  5  1  0
  5  6  1  1
  5  7  1  0
  7  8  1  1
  7  9  1  0
  9 10  1  0
 10 11  1  0
 10 12  1  0
 10 13  1  0
 13 14  2  0
 14 15  1  0
 14 16  1  0
 16 17  1  0
 16 18  2  0
 18 19  1  0
 18 20  1  0
 20 21  1  0
 20 22  2  0
 22 23  1  0
  7 24  1  0
 24 25  1  0
 25 26  1  6
 25 27  1  0
 27 28  1  0
 27 29  1  0
 27 30  1  0
 30 31  1  0
 25 32  1  0
 32 33  1  6
 32 34  1  0
 34 35  1  0
 32 36  1  0
 36 37  1  6
 36 38  1  0
 38 39  1  0
  3 40  1  0
 40 41  1  0
 40 42  1  0
 40 43  1  0
 36  5  1  0
 22 13  1  0
M  END
>  <UniqueID>  (249) 
248

>  <SMILES>  (249) 
C/C(O)=N/[C@H]1[C@@H](OCc2ccccc2)O[C@H](CO)[C@H](O)[C@@H]1O

>  <Energy>  (249) 
44.38811348585666

>  <Genealogy>  (249) 
CC(O)=N[C@H]1[C@@H](OCc2ccccc2)O[C@H](CO)[C@H](O)[C@@H]1O (tautomer)
C/C(O)=N/[C@H]1[C@@H](OCc2ccccc2)O[C@H](CO)[C@H](O)[C@@H]1O (cis-trans isomerization)
C/C(O)=N/[C@H]1[C@@H](OCc2ccccc2)O[C@H](CO)[C@H](O)[C@@H]1O (3D coordinates assigned)
C/C(O)=N/[C@H]1[C@@H](OCc2ccccc2)O[C@H](CO)[C@H](O)[C@@H]1O (nonaromatic ring conformer: 44.38811348585666 kcal/mol)

$$$$
122253
     RDKit          3D

 43 44  0  0  0  0  0  0  0  0999 V2000
    2.3155    3.5602    4.4183 H   0  0  0  0  0  0  0  0  0  0  0  0
    2.5304    3.1442    3.5200 O   0  0  0  0  0  0  0  0  0  0  0  0
    1.9729    1.9306    3.1258 C   0  0  0  0  0  0  0  0  0  0  0  0
    2.2775    1.4687    1.9460 N   0  0  0  0  0  0  0  0  0  0  0  0
    1.7918    0.2379    1.3109 C   0  0  1  0  0  0  0  0  0  0  0  0
    1.7958   -0.5969    2.0452 H   0  0  0  0  0  0  0  0  0  0  0  0
    0.3540    0.4345    0.7688 C   0  0  1  0  0  0  0  0  0  0  0  0
   -0.2986    0.5164    1.6640 H   0  0  0  0  0  0  0  0  0  0  0  0
    0.2883    1.6133   -0.0253 O   0  0  0  0  0  0  0  0  0  0  0  0
   -1.0324    2.1196   -0.1030 C   0  0  0  0  0  0  0  0  0  0  0  0
   -1.5575    2.1149    0.8796 H   0  0  0  0  0  0  0  0  0  0  0  0
   -0.9673    3.1911   -0.3874 H   0  0  0  0  0  0  0  0  0  0  0  0
   -1.8256    1.4037   -1.1637 C   0  0  0  0  0  0  0  0  0  0  0  0
   -2.8502    0.5111   -0.8076 C   0  0  0  0  0  0  0  0  0  0  0  0
   -3.0926    0.3406    0.2340 H   0  0  0  0  0  0  0  0  0  0  0  0
   -3.5611   -0.1747   -1.7974 C   0  0  0  0  0  0  0  0  0  0  0  0
   -4.3485   -0.8628   -1.5187 H   0  0  0  0  0  0  0  0  0  0  0  0
   -3.2524    0.0232   -3.1461 C   0  0  0  0  0  0  0  0  0  0  0  0
   -3.8018   -0.5104   -3.9108 H   0  0  0  0  0  0  0  0  0  0  0  0
   -2.2299    0.9051   -3.5072 C   0  0  0  0  0  0  0  0  0  0  0  0
   -1.9874    1.0529   -4.5515 H   0  0  0  0  0  0  0  0  0  0  0  0
   -1.5169    1.5928   -2.5206 C   0  0  0  0  0  0  0  0  0  0  0  0
   -0.7204    2.2665   -2.8114 H   0  0  0  0  0  0  0  0  0  0  0  0
   -0.0857   -0.7062    0.0416 O   0  0  0  0  0  0  0  0  0  0  0  0
    0.7418   -0.9626   -1.0824 C   0  0  2  0  0  0  0  0  0  0  0  0
    0.7966   -0.0653   -1.7410 H   0  0  0  0  0  0  0  0  0  0  0  0
    0.1059   -2.0667   -1.9398 C   0  0  0  0  0  0  0  0  0  0  0  0
    0.7737   -2.3236   -2.7958 H   0  0  0  0  0  0  0  0  0  0  0  0
   -0.8403   -1.6790   -2.3724 H   0  0  0  0  0  0  0  0  0  0  0  0
   -0.2011   -3.1958   -1.1638 O   0  0  0  0  0  0  0  0  0  0  0  0
    0.4798   -3.8876   -1.3713 H   0  0  0  0  0  0  0  0  0  0  0  0
    2.1722   -1.3254   -0.6341 C   0  0  2  0  0  0  0  0  0  0  0  0
    2.8010   -1.4903   -1.5415 H   0  0  0  0  0  0  0  0  0  0  0  0
    2.1500   -2.4848    0.1620 O   0  0  0  0  0  0  0  0  0  0  0  0
    3.0463   -2.9046    0.0878 H   0  0  0  0  0  0  0  0  0  0  0  0
    2.7493   -0.1465    0.1653 C   0  0  2  0  0  0  0  0  0  0  0  0
    2.8601    0.7204   -0.5304 H   0  0  0  0  0  0  0  0  0  0  0  0
    4.0084   -0.5005    0.6791 O   0  0  0  0  0  0  0  0  0  0  0  0
    4.4919    0.3452    0.8702 H   0  0  0  0  0  0  0  0  0  0  0  0
    1.0295    1.2224    4.0610 C   0  0  0  0  0  0  0  0  0  0  0  0
    1.2192    0.1308    4.0814 H   0  0  0  0  0  0  0  0  0  0  0  0
   -0.0193    1.4230    3.7630 H   0  0  0  0  0  0  0  0  0  0  0  0
    1.1687    1.5980    5.0960 H   0  0  0  0  0  0  0  0  0  0  0  0
  1  2  1  0
  2  3  1  0
  3  4  2  0
  4  5  1  0
  5  6  1  1
  5  7  1  0
  7  8  1  1
  7  9  1  0
  9 10  1  0
 10 11  1  0
 10 12  1  0
 10 13  1  0
 13 14  2  0
 14 15  1  0
 14 16  1  0
 16 17  1  0
 16 18  2  0
 18 19  1  0
 18 20  1  0
 20 21  1  0
 20 22  2  0
 22 23  1  0
  7 24  1  0
 24 25  1  0
 25 26  1  6
 25 27  1  0
 27 28  1  0
 27 29  1  0
 27 30  1  0
 30 31  1  0
 25 32  1  0
 32 33  1  6
 32 34  1  0
 34 35  1  0
 32 36  1  0
 36 37  1  6
 36 38  1  0
 38 39  1  0
  3 40  1  0
 40 41  1  0
 40 42  1  0
 40 43  1  0
 36  5  1  0
 22 13  1  0
M  END
>  <UniqueID>  (250) 
249

>  <SMILES>  (250) 
C/C(O)=N\[C@H]1[C@@H](OCc2ccccc2)O[C@H](CO)[C@H](O)[C@@H]1O

>  <Energy>  (250) 
45.122301249592304

>  <Genealogy>  (250) 
CC(O)=N[C@H]1[C@@H](OCc2ccccc2)O[C@H](CO)[C@H](O)[C@@H]1O (tautomer)
C/C(O)=N\[C@H]1[C@@H](OCc2ccccc2)O[C@H](CO)[C@H](O)[C@@H]1O (cis-trans isomerization)
C/C(O)=N\[C@H]1[C@@H](OCc2ccccc2)O[C@H](CO)[C@H](O)[C@@H]1O (3D coordinates assigned)
C/C(O)=N\[C@H]1[C@@H](OCc2ccccc2)O[C@H](CO)[C@H](O)[C@@H]1O (nonaromatic ring conformer: 45.122301249592304 kcal/mol)

$$$$
118328
     RDKit          3D

 48 50  0  0  0  0  0  0  0  0999 V2000
   -5.8823    2.4238    2.1828 H   0  0  0  0  0  0  0  0  0  0  0  0
   -4.9798    2.1227    1.8365 O   0  0  0  0  0  0  0  0  0  0  0  0
   -4.5209    0.8220    2.0454 C   0  0  0  0  0  0  0  0  0  0  0  0
   -3.3656    0.4459    1.5846 N   0  0  0  0  0  0  0  0  0  0  0  0
   -2.4395    1.3191    0.8589 C   0  0  1  0  0  0  0  0  0  0  0  0
   -3.0140    1.9066    0.1073 H   0  0  0  0  0  0  0  0  0  0  0  0
   -1.7226    2.2849    1.8347 C   0  0  2  0  0  0  0  0  0  0  0  0
   -2.4658    2.7456    2.5265 H   0  0  0  0  0  0  0  0  0  0  0  0
   -1.0819    3.3088    1.1158 O   0  0  0  0  0  0  0  0  0  0  0  0
   -1.7912    3.9317    0.8080 H   0  0  0  0  0  0  0  0  0  0  0  0
   -0.6829    1.5342    2.6841 C   0  0  1  0  0  0  0  0  0  0  0  0
   -0.0574    2.2942    3.2121 H   0  0  0  0  0  0  0  0  0  0  0  0
   -1.3495    0.7203    3.6176 O   0  0  0  0  0  0  0  0  0  0  0  0
   -0.8171    0.7352    4.4549 H   0  0  0  0  0  0  0  0  0  0  0  0
    0.2236    0.6821    1.7635 C   0  0  1  0  0  0  0  0  0  0  0  0
    0.7917    1.3699    1.0958 H   0  0  0  0  0  0  0  0  0  0  0  0
    1.2912   -0.0922    2.5550 C   0  0  0  0  0  0  0  0  0  0  0  0
    2.0454   -0.5112    1.8492 H   0  0  0  0  0  0  0  0  0  0  0  0
    1.8302    0.6017    3.2350 H   0  0  0  0  0  0  0  0  0  0  0  0
    0.7206   -1.1224    3.3181 O   0  0  0  0  0  0  0  0  0  0  0  0
    0.5711   -1.8872    2.7030 H   0  0  0  0  0  0  0  0  0  0  0  0
   -0.5454   -0.2306    0.9961 O   0  0  0  0  0  0  0  0  0  0  0  0
   -1.4180    0.4469    0.1021 C   0  0  2  0  0  0  0  0  0  0  0  0
   -1.9939   -0.3175   -0.4641 H   0  0  0  0  0  0  0  0  0  0  0  0
   -0.6897    1.2381   -0.8430 O   0  0  0  0  0  0  0  0  0  0  0  0
    0.2332    0.7356   -1.7734 C   0  0  0  0  0  0  0  0  0  0  0  0
    0.9117    1.6472   -2.5878 C   0  0  0  0  0  0  0  0  0  0  0  0
    0.7131    2.7070   -2.4888 H   0  0  0  0  0  0  0  0  0  0  0  0
    1.8472    1.2086   -3.5281 C   0  0  0  0  0  0  0  0  0  0  0  0
    2.3495    1.9506   -4.1342 H   0  0  0  0  0  0  0  0  0  0  0  0
    2.1206   -0.1651   -3.6713 C   0  0  0  0  0  0  0  0  0  0  0  0
    3.0571   -0.6661   -4.6041 C   0  0  0  0  0  0  0  0  0  0  0  0
    3.8362    0.2414   -5.5203 C   0  0  0  0  0  0  0  0  0  0  0  0
    4.4513    0.9438   -4.9197 H   0  0  0  0  0  0  0  0  0  0  0  0
    3.1373    0.8163   -6.1635 H   0  0  0  0  0  0  0  0  0  0  0  0
    4.5190   -0.3319   -6.1833 H   0  0  0  0  0  0  0  0  0  0  0  0
    3.2607   -2.0510   -4.6740 C   0  0  0  0  0  0  0  0  0  0  0  0
    3.9712   -2.4726   -5.3751 H   0  0  0  0  0  0  0  0  0  0  0  0
    2.5394   -2.8950   -3.8270 C   0  0  0  0  0  0  0  0  0  0  0  0
    2.7136   -4.1406   -3.8845 O   0  0  0  0  0  0  0  0  0  0  0  0
    1.6675   -2.3940   -2.9602 O   0  0  0  0  0  0  0  0  0  0  0  0
    1.4330   -1.0901   -2.8494 C   0  0  0  0  0  0  0  0  0  0  0  0
    0.4983   -0.6392   -1.9111 C   0  0  0  0  0  0  0  0  0  0  0  0
   -0.0135   -1.3681   -1.2981 H   0  0  0  0  0  0  0  0  0  0  0  0
   -5.3772   -0.1669    2.7681 C   0  0  0  0  0  0  0  0  0  0  0  0
   -4.7446   -0.8793    3.3397 H   0  0  0  0  0  0  0  0  0  0  0  0
   -5.9900   -0.7303    2.0344 H   0  0  0  0  0  0  0  0  0  0  0  0
   -6.0500    0.3562    3.4796 H   0  0  0  0  0  0  0  0  0  0  0  0
  1  2  1  0
  2  3  1  0
  3  4  2  0
  4  5  1  0
  5  6  1  6
  5  7  1  0
  7  8  1  1
  7  9  1  0
  9 10  1  0
  7 11  1  0
 11 12  1  1
 11 13  1  0
 13 14  1  0
 11 15  1  0
 15 16  1  6
 15 17  1  0
 17 18  1  0
 17 19  1  0
 17 20  1  0
 20 21  1  0
 15 22  1  0
 22 23  1  0
 23 24  1  6
 23 25  1  0
 25 26  1  0
 26 27  2  0
 27 28  1  0
 27 29  1  0
 29 30  1  0
 29 31  2  0
 31 32  1  0
 32 33  1  0
 33 34  1  0
 33 35  1  0
 33 36  1  0
 32 37  2  0
 37 38  1  0
 37 39  1  0
 39 40  2  0
 39 41  1  0
 41 42  1  0
 42 43  2  0
 43 44  1  0
  3 45  1  0
 45 46  1  0
 45 47  1  0
 45 48  1  0
 23  5  1  0
 43 26  1  0
 42 31  1  0
M  END
>  <UniqueID>  (251) 
250

>  <SMILES>  (251) 
C/C(O)=N\[C@H]1[C@H](O)[C@@H](O)[C@@H](CO)O[C@@H]1Oc1ccc2c(C)cc(=O)oc2c1

>  <Energy>  (251) 
53.96771474724043

>  <Genealogy>  (251) 
CC(O)=NC1C(Oc2ccc3c(C)cc(=O)oc3c2)OC(CO)C(O)C1O (tautomer)
CC(O)=N[C@H]1[C@H](O)[C@@H](O)[C@@H](CO)O[C@@H]1Oc1ccc2c(C)cc(=O)oc2c1 (chirality)
C/C(O)=N\[C@H]1[C@H](O)[C@@H](O)[C@@H](CO)O[C@@H]1Oc1ccc2c(C)cc(=O)oc2c1 (cis-trans isomerization)
C/C(O)=N\[C@H]1[C@H](O)[C@@H](O)[C@@H](CO)O[C@@H]1Oc1ccc2c(C)cc(=O)oc2c1 (3D coordinates assigned)
C/C(O)=N\[C@H]1[C@H](O)[C@@H](O)[C@@H](CO)O[C@@H]1Oc1ccc2c(C)cc(=O)oc2c1 (nonaromatic ring conformer: 53.96771474724043 kcal/mol)

$$$$
118328
     RDKit          3D

 48 50  0  0  0  0  0  0  0  0999 V2000
   -1.1174    0.8065   -3.5536 C   0  0  0  0  0  0  0  0  0  0  0  0
    0.0909    0.0920   -3.0423 C   0  0  0  0  0  0  0  0  0  0  0  0
    0.2654   -1.1195   -3.3439 O   0  0  0  0  0  0  0  0  0  0  0  0
    1.0061    0.7657   -2.1650 N   0  0  0  0  0  0  0  0  0  0  0  0
    2.1571    0.1015   -1.5448 C   0  0  2  0  0  0  0  0  0  0  0  0
    1.9206   -0.1091   -0.0313 C   0  0  1  0  0  0  0  0  0  0  0  0
    0.8014   -0.9794    0.1621 O   0  0  0  0  0  0  0  0  0  0  0  0
   -0.5581   -0.6215    0.1341 C   0  0  0  0  0  0  0  0  0  0  0  0
   -1.0073    0.7095    0.2358 C   0  0  0  0  0  0  0  0  0  0  0  0
   -2.3723    1.0039    0.1800 C   0  0  0  0  0  0  0  0  0  0  0  0
   -3.3186   -0.0266    0.0269 C   0  0  0  0  0  0  0  0  0  0  0  0
   -4.7091    0.2156   -0.0461 C   0  0  0  0  0  0  0  0  0  0  0  0
   -5.2832    1.6065    0.0300 C   0  0  0  0  0  0  0  0  0  0  0  0
   -5.5742   -0.8770   -0.1957 C   0  0  0  0  0  0  0  0  0  0  0  0
   -5.0449   -2.1673   -0.2689 C   0  0  0  0  0  0  0  0  0  0  0  0
   -5.8139   -3.1549   -0.4026 O   0  0  0  0  0  0  0  0  0  0  0  0
   -3.7334   -2.3619   -0.1990 O   0  0  0  0  0  0  0  0  0  0  0  0
   -2.8663   -1.3643   -0.0580 C   0  0  0  0  0  0  0  0  0  0  0  0
   -1.4987   -1.6482    0.0031 C   0  0  0  0  0  0  0  0  0  0  0  0
    3.0478   -0.7343    0.5650 O   0  0  0  0  0  0  0  0  0  0  0  0
    4.2314    0.0503    0.4746 C   0  0  2  0  0  0  0  0  0  0  0  0
    4.1724    1.2974    1.3887 C   0  0  0  0  0  0  0  0  0  0  0  0
    5.4679    1.7298    1.7153 O   0  0  0  0  0  0  0  0  0  0  0  0
    4.6068    0.3403   -1.0022 C   0  0  2  0  0  0  0  0  0  0  0  0
    5.7160    1.1966   -1.0890 O   0  0  0  0  0  0  0  0  0  0  0  0
    3.4199    0.9542   -1.7603 C   0  0  1  0  0  0  0  0  0  0  0  0
    3.7136    1.0795   -3.1306 O   0  0  0  0  0  0  0  0  0  0  0  0
   -0.8843    1.8783   -3.7247 H   0  0  0  0  0  0  0  0  0  0  0  0
   -1.4515    0.3584   -4.5132 H   0  0  0  0  0  0  0  0  0  0  0  0
   -1.9369    0.7247   -2.8101 H   0  0  0  0  0  0  0  0  0  0  0  0
    0.8041    1.7573   -1.9022 H   0  0  0  0  0  0  0  0  0  0  0  0
    2.3234   -0.8972   -2.0072 H   0  0  0  0  0  0  0  0  0  0  0  0
    1.7272    0.8567    0.4757 H   0  0  0  0  0  0  0  0  0  0  0  0
   -0.3200    1.5323    0.3560 H   0  0  0  0  0  0  0  0  0  0  0  0
   -2.6748    2.0400    0.2543 H   0  0  0  0  0  0  0  0  0  0  0  0
   -5.0130    2.0720    1.0011 H   0  0  0  0  0  0  0  0  0  0  0  0
   -4.8837    2.2239   -0.8018 H   0  0  0  0  0  0  0  0  0  0  0  0
   -6.3912    1.5986   -0.0503 H   0  0  0  0  0  0  0  0  0  0  0  0
   -6.6466   -0.7317   -0.2551 H   0  0  0  0  0  0  0  0  0  0  0  0
   -1.1616   -2.6751   -0.0685 H   0  0  0  0  0  0  0  0  0  0  0  0
    5.0474   -0.5876    0.8806 H   0  0  0  0  0  0  0  0  0  0  0  0
    3.6601    1.0203    2.3345 H   0  0  0  0  0  0  0  0  0  0  0  0
    3.5803    2.1190    0.9259 H   0  0  0  0  0  0  0  0  0  0  0  0
    5.6503    2.5458    1.1806 H   0  0  0  0  0  0  0  0  0  0  0  0
    4.8572   -0.6336   -1.4867 H   0  0  0  0  0  0  0  0  0  0  0  0
    6.5098    0.6635   -0.8215 H   0  0  0  0  0  0  0  0  0  0  0  0
    3.2336    1.9766   -1.3652 H   0  0  0  0  0  0  0  0  0  0  0  0
    3.8619    0.1676   -3.4949 H   0  0  0  0  0  0  0  0  0  0  0  0
  1  2  1  0
  2  3  2  0
  2  4  1  0
  4  5  1  0
  5  6  1  0
  6  7  1  0
  7  8  1  0
  8  9  2  0
  9 10  1  0
 10 11  2  0
 11 12  1  0
 12 13  1  0
 12 14  2  0
 14 15  1  0
 15 16  2  0
 15 17  1  0
 17 18  1  0
 18 19  2  0
  6 20  1  0
 20 21  1  0
 21 22  1  0
 22 23  1  0
 21 24  1  0
 24 25  1  0
 24 26  1  0
 26 27  1  0
 26  5  1  0
 19  8  1  0
 18 11  1  0
  1 28  1  0
  1 29  1  0
  1 30  1  0
  4 31  1  0
  5 32  1  6
  6 33  1  1
  9 34  1  0
 10 35  1  0
 13 36  1  0
 13 37  1  0
 13 38  1  0
 14 39  1  0
 19 40  1  0
 21 41  1  1
 22 42  1  0
 22 43  1  0
 23 44  1  0
 24 45  1  6
 25 46  1  0
 26 47  1  1
 27 48  1  0
M  END
>  <UniqueID>  (252) 
251

>  <SMILES>  (252) 
CC(=O)N[C@H]1[C@H](O)[C@@H](O)[C@@H](CO)O[C@@H]1Oc1ccc2c(C)cc(=O)oc2c1

>  <Energy>  (252) 
57.49542930743766

>  <Genealogy>  (252) 
CC(=O)N[C@H]1[C@H](O)[C@@H](O)[C@@H](CO)O[C@@H]1Oc1ccc2c(C)cc(=O)oc2c1 (chirality)
CC(=O)N[C@H]1[C@H](O)[C@@H](O)[C@@H](CO)O[C@@H]1Oc1ccc2c(C)cc(=O)oc2c1 (3D coordinates assigned)
CC(=O)N[C@H]1[C@H](O)[C@@H](O)[C@@H](CO)O[C@@H]1Oc1ccc2c(C)cc(=O)oc2c1 (nonaromatic ring conformer: 57.49542930743766 kcal/mol)

$$$$
118328
     RDKit          3D

 48 50  0  0  0  0  0  0  0  0999 V2000
   -2.9299   -2.1001   -0.7648 H   0  0  0  0  0  0  0  0  0  0  0  0
   -2.0259   -2.0042   -0.3182 O   0  0  0  0  0  0  0  0  0  0  0  0
   -1.7275   -0.9201    0.5033 C   0  0  0  0  0  0  0  0  0  0  0  0
   -0.5443   -0.8644    1.0459 N   0  0  0  0  0  0  0  0  0  0  0  0
   -0.0222    0.1869    1.9260 C   0  0  1  0  0  0  0  0  0  0  0  0
   -0.8453    0.8032    2.3491 H   0  0  0  0  0  0  0  0  0  0  0  0
    0.7290   -0.4740    3.0932 C   0  0  2  0  0  0  0  0  0  0  0  0
    1.5117   -1.1460    2.6779 H   0  0  0  0  0  0  0  0  0  0  0  0
   -0.1398   -1.2675    3.8650 O   0  0  0  0  0  0  0  0  0  0  0  0
   -0.8556   -0.6781    4.2207 H   0  0  0  0  0  0  0  0  0  0  0  0
    1.4045    0.5979    3.9637 C   0  0  1  0  0  0  0  0  0  0  0  0
    0.6016    1.1860    4.4690 H   0  0  0  0  0  0  0  0  0  0  0  0
    2.2056   -0.0220    4.9364 O   0  0  0  0  0  0  0  0  0  0  0  0
    2.4004    0.6653    5.6260 H   0  0  0  0  0  0  0  0  0  0  0  0
    2.2341    1.5796    3.0948 C   0  0  1  0  0  0  0  0  0  0  0  0
    2.4792    2.4426    3.7527 H   0  0  0  0  0  0  0  0  0  0  0  0
    3.5901    1.0209    2.6063 C   0  0  0  0  0  0  0  0  0  0  0  0
    3.9886    1.6896    1.8107 H   0  0  0  0  0  0  0  0  0  0  0  0
    3.4733    0.0014    2.1802 H   0  0  0  0  0  0  0  0  0  0  0  0
    4.5049    0.9791    3.6672 O   0  0  0  0  0  0  0  0  0  0  0  0
    5.3502    0.6215    3.2896 H   0  0  0  0  0  0  0  0  0  0  0  0
    1.4607    2.1159    2.0276 O   0  0  0  0  0  0  0  0  0  0  0  0
    0.9476    1.1165    1.1591 C   0  0  2  0  0  0  0  0  0  0  0  0
    1.7908    0.5396    0.7287 H   0  0  0  0  0  0  0  0  0  0  0  0
    0.2522    1.7876    0.1046 O   0  0  0  0  0  0  0  0  0  0  0  0
    0.0257    1.3078   -1.1983 C   0  0  0  0  0  0  0  0  0  0  0  0
   -0.7931    2.0708   -2.0371 C   0  0  0  0  0  0  0  0  0  0  0  0
   -1.2202    2.9965   -1.6725 H   0  0  0  0  0  0  0  0  0  0  0  0
   -1.0799    1.6500   -3.3377 C   0  0  0  0  0  0  0  0  0  0  0  0
   -1.7230    2.2714   -3.9463 H   0  0  0  0  0  0  0  0  0  0  0  0
   -0.5430    0.4456   -3.8292 C   0  0  0  0  0  0  0  0  0  0  0  0
   -0.8040   -0.0327   -5.1335 C   0  0  0  0  0  0  0  0  0  0  0  0
   -1.6827    0.7188   -6.0996 C   0  0  0  0  0  0  0  0  0  0  0  0
   -1.7701    0.1897   -7.0724 H   0  0  0  0  0  0  0  0  0  0  0  0
   -2.7029    0.8256   -5.6746 H   0  0  0  0  0  0  0  0  0  0  0  0
   -1.2539    1.7243   -6.2937 H   0  0  0  0  0  0  0  0  0  0  0  0
   -0.2248   -1.2449   -5.5328 C   0  0  0  0  0  0  0  0  0  0  0  0
   -0.4016   -1.6443   -6.5247 H   0  0  0  0  0  0  0  0  0  0  0  0
    0.5894   -1.9443   -4.6395 C   0  0  0  0  0  0  0  0  0  0  0  0
    1.1140   -3.0339   -4.9890 O   0  0  0  0  0  0  0  0  0  0  0  0
    0.8156   -1.4685   -3.4209 O   0  0  0  0  0  0  0  0  0  0  0  0
    0.2934   -0.3253   -2.9875 C   0  0  0  0  0  0  0  0  0  0  0  0
    0.5771    0.1075   -1.6878 C   0  0  0  0  0  0  0  0  0  0  0  0
    1.2129   -0.5129   -1.0744 H   0  0  0  0  0  0  0  0  0  0  0  0
   -2.7755    0.1318    0.7460 C   0  0  0  0  0  0  0  0  0  0  0  0
   -3.1001    0.0992    1.8069 H   0  0  0  0  0  0  0  0  0  0  0  0
   -2.3781    1.1394    0.5077 H   0  0  0  0  0  0  0  0  0  0  0  0
   -3.6623   -0.0458    0.1030 H   0  0  0  0  0  0  0  0  0  0  0  0
  1  2  1  0
  2  3  1  0
  3  4  2  0
  4  5  1  0
  5  6  1  1
  5  7  1  0
  7  8  1  6
  7  9  1  0
  9 10  1  0
  7 11  1  0
 11 12  1  1
 11 13  1  0
 13 14  1  0
 11 15  1  0
 15 16  1  1
 15 17  1  0
 17 18  1  0
 17 19  1  0
 17 20  1  0
 20 21  1  0
 15 22  1  0
 22 23  1  0
 23 24  1  6
 23 25  1  0
 25 26  1  0
 26 27  2  0
 27 28  1  0
 27 29  1  0
 29 30  1  0
 29 31  2  0
 31 32  1  0
 32 33  1  0
 33 34  1  0
 33 35  1  0
 33 36  1  0
 32 37  2  0
 37 38  1  0
 37 39  1  0
 39 40  2  0
 39 41  1  0
 41 42  1  0
 42 43  2  0
 43 44  1  0
  3 45  1  0
 45 46  1  0
 45 47  1  0
 45 48  1  0
 23  5  1  0
 43 26  1  0
 42 31  1  0
M  END
>  <UniqueID>  (253) 
252

>  <SMILES>  (253) 
C/C(O)=N/[C@H]1[C@H](O)[C@@H](O)[C@@H](CO)O[C@@H]1Oc1ccc2c(C)cc(=O)oc2c1

>  <Energy>  (253) 
60.26756499678942

>  <Genealogy>  (253) 
CC(O)=NC1C(Oc2ccc3c(C)cc(=O)oc3c2)OC(CO)C(O)C1O (tautomer)
CC(O)=N[C@H]1[C@H](O)[C@@H](O)[C@@H](CO)O[C@@H]1Oc1ccc2c(C)cc(=O)oc2c1 (chirality)
C/C(O)=N/[C@H]1[C@H](O)[C@@H](O)[C@@H](CO)O[C@@H]1Oc1ccc2c(C)cc(=O)oc2c1 (cis-trans isomerization)
C/C(O)=N/[C@H]1[C@H](O)[C@@H](O)[C@@H](CO)O[C@@H]1Oc1ccc2c(C)cc(=O)oc2c1 (3D coordinates assigned)
C/C(O)=N/[C@H]1[C@H](O)[C@@H](O)[C@@H](CO)O[C@@H]1Oc1ccc2c(C)cc(=O)oc2c1 (nonaromatic ring conformer: 60.26756499678942 kcal/mol)

$$$$
112106
     RDKit          3D

 46 48  0  0  0  0  0  0  0  0999 V2000
   -4.7304    1.6605    0.3190 C   0  0  0  0  0  0  0  0  0  0  0  0
   -3.3284    1.9526   -0.1056 C   0  0  0  0  0  0  0  0  0  0  0  0
   -2.6861    2.8754    0.4650 O   0  0  0  0  0  0  0  0  0  0  0  0
   -2.7355    1.2048   -1.1768 N   0  0  0  0  0  0  0  0  0  0  0  0
   -1.3152    1.3120   -1.5256 C   0  0  1  0  0  0  0  0  0  0  0  0
   -0.5299    0.1513   -0.8912 C   0  0  2  0  0  0  0  0  0  0  0  0
   -0.6619    0.2309    0.5270 O   0  0  0  0  0  0  0  0  0  0  0  0
   -0.1989   -0.7321    1.4408 C   0  0  0  0  0  0  0  0  0  0  0  0
    0.4813   -1.8910    1.0161 C   0  0  0  0  0  0  0  0  0  0  0  0
    0.9322   -2.8306    1.9446 C   0  0  0  0  0  0  0  0  0  0  0  0
    0.7129   -2.6362    3.3079 C   0  0  0  0  0  0  0  0  0  0  0  0
    0.0360   -1.4942    3.7565 C   0  0  0  0  0  0  0  0  0  0  0  0
   -0.1897   -1.2974    5.1280 C   0  0  0  0  0  0  0  0  0  0  0  0
   -0.8663   -0.1595    5.5726 C   0  0  0  0  0  0  0  0  0  0  0  0
   -1.3223    0.7893    4.6557 C   0  0  0  0  0  0  0  0  0  0  0  0
   -1.1049    0.6077    3.2874 C   0  0  0  0  0  0  0  0  0  0  0  0
   -0.4245   -0.5328    2.8198 C   0  0  0  0  0  0  0  0  0  0  0  0
    0.8422    0.2486   -1.2334 O   0  0  0  0  0  0  0  0  0  0  0  0
    1.0247    0.0531   -2.6264 C   0  0  2  0  0  0  0  0  0  0  0  0
    2.5318   -0.0378   -2.9143 C   0  0  0  0  0  0  0  0  0  0  0  0
    3.1844    1.1633   -2.5977 O   0  0  0  0  0  0  0  0  0  0  0  0
    0.3539    1.1990   -3.4257 C   0  0  1  0  0  0  0  0  0  0  0  0
    0.4703    0.9646   -4.8067 O   0  0  0  0  0  0  0  0  0  0  0  0
   -1.1397    1.2726   -3.0567 C   0  0  2  0  0  0  0  0  0  0  0  0
   -1.7528    2.3839   -3.6629 O   0  0  0  0  0  0  0  0  0  0  0  0
   -4.8611    0.5661    0.4508 H   0  0  0  0  0  0  0  0  0  0  0  0
   -4.9593    2.1650    1.2820 H   0  0  0  0  0  0  0  0  0  0  0  0
   -5.4353    2.0231   -0.4579 H   0  0  0  0  0  0  0  0  0  0  0  0
   -3.2996    0.4422   -1.6167 H   0  0  0  0  0  0  0  0  0  0  0  0
   -0.8944    2.2703   -1.1463 H   0  0  0  0  0  0  0  0  0  0  0  0
   -0.9638   -0.8190   -1.2312 H   0  0  0  0  0  0  0  0  0  0  0  0
    0.6693   -2.0776   -0.0319 H   0  0  0  0  0  0  0  0  0  0  0  0
    1.4551   -3.7151    1.6047 H   0  0  0  0  0  0  0  0  0  0  0  0
    1.0710   -3.3787    4.0112 H   0  0  0  0  0  0  0  0  0  0  0  0
    0.1566   -2.0228    5.8547 H   0  0  0  0  0  0  0  0  0  0  0  0
   -1.0381   -0.0127    6.6312 H   0  0  0  0  0  0  0  0  0  0  0  0
   -1.8465    1.6691    5.0063 H   0  0  0  0  0  0  0  0  0  0  0  0
   -1.4710    1.3609    2.6012 H   0  0  0  0  0  0  0  0  0  0  0  0
    0.5828   -0.9224   -2.9402 H   0  0  0  0  0  0  0  0  0  0  0  0
    2.6981   -0.2632   -3.9888 H   0  0  0  0  0  0  0  0  0  0  0  0
    2.9728   -0.8809   -2.3344 H   0  0  0  0  0  0  0  0  0  0  0  0
    3.2984    1.1759   -1.6116 H   0  0  0  0  0  0  0  0  0  0  0  0
    0.8324    2.1695   -3.1490 H   0  0  0  0  0  0  0  0  0  0  0  0
    1.2907    1.4313   -5.1141 H   0  0  0  0  0  0  0  0  0  0  0  0
   -1.6382    0.3564   -3.4467 H   0  0  0  0  0  0  0  0  0  0  0  0
   -1.3150    3.2017   -3.3085 H   0  0  0  0  0  0  0  0  0  0  0  0
  1  2  1  0
  2  3  2  0
  2  4  1  0
  4  5  1  0
  5  6  1  0
  6  7  1  0
  7  8  1  0
  8  9  2  0
  9 10  1  0
 10 11  2  0
 11 12  1  0
 12 13  2  0
 13 14  1  0
 14 15  2  0
 15 16  1  0
 16 17  2  0
  6 18  1  0
 18 19  1  0
 19 20  1  0
 20 21  1  0
 19 22  1  0
 22 23  1  0
 22 24  1  0
 24 25  1  0
 24  5  1  0
 17  8  1  0
 17 12  1  0
  1 26  1  0
  1 27  1  0
  1 28  1  0
  4 29  1  0
  5 30  1  1
  6 31  1  6
  9 32  1  0
 10 33  1  0
 11 34  1  0
 13 35  1  0
 14 36  1  0
 15 37  1  0
 16 38  1  0
 19 39  1  6
 20 40  1  0
 20 41  1  0
 21 42  1  0
 22 43  1  6
 23 44  1  0
 24 45  1  6
 25 46  1  0
M  END
>  <UniqueID>  (254) 
253

>  <SMILES>  (254) 
CC(=O)N[C@H]1[C@H](Oc2cccc3ccccc23)O[C@H](CO)[C@@H](O)[C@@H]1O

>  <Energy>  (254) 
47.44340627773158

>  <Genealogy>  (254) 
CC(=O)N[C@H]1[C@H](Oc2cccc3ccccc23)O[C@H](CO)[C@@H](O)[C@@H]1O (3D coordinates assigned)
CC(=O)N[C@H]1[C@H](Oc2cccc3ccccc23)O[C@H](CO)[C@@H](O)[C@@H]1O (nonaromatic ring conformer: 47.44340627773158 kcal/mol)

$$$$
112106
     RDKit          3D

 46 48  0  0  0  0  0  0  0  0999 V2000
   -2.7778   -2.4990    1.8929 H   0  0  0  0  0  0  0  0  0  0  0  0
   -2.5556   -3.2854    1.2987 O   0  0  0  0  0  0  0  0  0  0  0  0
   -1.8944   -3.1727    0.0723 C   0  0  0  0  0  0  0  0  0  0  0  0
   -1.5161   -2.0268   -0.4188 N   0  0  0  0  0  0  0  0  0  0  0  0
   -1.7330   -0.6995    0.1632 C   0  0  1  0  0  0  0  0  0  0  0  0
   -1.6325   -0.7341    1.2702 H   0  0  0  0  0  0  0  0  0  0  0  0
   -0.6481    0.2555   -0.3624 C   0  0  2  0  0  0  0  0  0  0  0  0
   -0.6776    0.2735   -1.4780 H   0  0  0  0  0  0  0  0  0  0  0  0
    0.6284   -0.2353    0.0452 O   0  0  0  0  0  0  0  0  0  0  0  0
    1.8671    0.3070   -0.3404 C   0  0  0  0  0  0  0  0  0  0  0  0
    1.9544    1.4146   -1.2075 C   0  0  0  0  0  0  0  0  0  0  0  0
    1.0667    1.8842   -1.6073 H   0  0  0  0  0  0  0  0  0  0  0  0
    3.1971    1.9344   -1.5733 C   0  0  0  0  0  0  0  0  0  0  0  0
    3.2494    2.7860   -2.2395 H   0  0  0  0  0  0  0  0  0  0  0  0
    4.3718    1.3627   -1.0861 C   0  0  0  0  0  0  0  0  0  0  0  0
    5.3257    1.7823   -1.3832 H   0  0  0  0  0  0  0  0  0  0  0  0
    4.3133    0.2592   -0.2245 C   0  0  0  0  0  0  0  0  0  0  0  0
    5.4942   -0.3197    0.2664 C   0  0  0  0  0  0  0  0  0  0  0  0
    6.4625    0.0782   -0.0133 H   0  0  0  0  0  0  0  0  0  0  0  0
    5.4335   -1.4202    1.1241 C   0  0  0  0  0  0  0  0  0  0  0  0
    6.3470   -1.8629    1.4995 H   0  0  0  0  0  0  0  0  0  0  0  0
    4.1979   -1.9512    1.4984 C   0  0  0  0  0  0  0  0  0  0  0  0
    4.1575   -2.8044    2.1632 H   0  0  0  0  0  0  0  0  0  0  0  0
    3.0136   -1.3858    1.0184 C   0  0  0  0  0  0  0  0  0  0  0  0
    2.0706   -1.8204    1.3264 H   0  0  0  0  0  0  0  0  0  0  0  0
    3.0543   -0.2757    0.1531 C   0  0  0  0  0  0  0  0  0  0  0  0
   -0.8364    1.5514    0.1785 O   0  0  0  0  0  0  0  0  0  0  0  0
   -2.0386    2.1221   -0.3088 C   0  0  2  0  0  0  0  0  0  0  0  0
   -2.0377    2.1341   -1.4247 H   0  0  0  0  0  0  0  0  0  0  0  0
   -2.0987    3.5861    0.1455 C   0  0  0  0  0  0  0  0  0  0  0  0
   -3.0140    4.0743   -0.2570 H   0  0  0  0  0  0  0  0  0  0  0  0
   -1.2147    4.1250   -0.2636 H   0  0  0  0  0  0  0  0  0  0  0  0
   -2.0873    3.6658    1.5447 O   0  0  0  0  0  0  0  0  0  0  0  0
   -2.1306    4.6323    1.7655 H   0  0  0  0  0  0  0  0  0  0  0  0
   -3.2607    1.3137    0.1934 C   0  0  1  0  0  0  0  0  0  0  0  0
   -3.2930    1.3450    1.3098 H   0  0  0  0  0  0  0  0  0  0  0  0
   -4.4455    1.8380   -0.3521 O   0  0  0  0  0  0  0  0  0  0  0  0
   -4.8105    2.4841    0.3072 H   0  0  0  0  0  0  0  0  0  0  0  0
   -3.1205   -0.1580   -0.2361 C   0  0  2  0  0  0  0  0  0  0  0  0
   -3.2147   -0.2239   -1.3474 H   0  0  0  0  0  0  0  0  0  0  0  0
   -4.1253   -0.9276    0.3717 O   0  0  0  0  0  0  0  0  0  0  0  0
   -4.9548   -0.7898   -0.1562 H   0  0  0  0  0  0  0  0  0  0  0  0
   -1.5815   -4.4175   -0.6877 C   0  0  0  0  0  0  0  0  0  0  0  0
   -1.8775   -4.2973   -1.7513 H   0  0  0  0  0  0  0  0  0  0  0  0
   -2.1356   -5.2785   -0.2582 H   0  0  0  0  0  0  0  0  0  0  0  0
   -0.4922   -4.6236   -0.6307 H   0  0  0  0  0  0  0  0  0  0  0  0
  1  2  1  0
  2  3  1  0
  3  4  2  0
  4  5  1  0
  5  6  1  1
  5  7  1  0
  7  8  1  6
  7  9  1  0
  9 10  1  0
 10 11  2  0
 11 12  1  0
 11 13  1  0
 13 14  1  0
 13 15  2  0
 15 16  1  0
 15 17  1  0
 17 18  2  0
 18 19  1  0
 18 20  1  0
 20 21  1  0
 20 22  2  0
 22 23  1  0
 22 24  1  0
 24 25  1  0
 24 26  2  0
  7 27  1  0
 27 28  1  0
 28 29  1  6
 28 30  1  0
 30 31  1  0
 30 32  1  0
 30 33  1  0
 33 34  1  0
 28 35  1  0
 35 36  1  1
 35 37  1  0
 37 38  1  0
 35 39  1  0
 39 40  1  6
 39 41  1  0
 41 42  1  0
  3 43  1  0
 43 44  1  0
 43 45  1  0
 43 46  1  0
 39  5  1  0
 26 10  1  0
 26 17  1  0
M  END
>  <UniqueID>  (255) 
254

>  <SMILES>  (255) 
C/C(O)=N/[C@H]1[C@H](Oc2cccc3ccccc23)O[C@H](CO)[C@@H](O)[C@@H]1O

>  <Energy>  (255) 
49.362319994034266

>  <Genealogy>  (255) 
CC(O)=N[C@H]1[C@H](Oc2cccc3ccccc23)O[C@H](CO)[C@@H](O)[C@@H]1O (tautomer)
C/C(O)=N/[C@H]1[C@H](Oc2cccc3ccccc23)O[C@H](CO)[C@@H](O)[C@@H]1O (cis-trans isomerization)
C/C(O)=N/[C@H]1[C@H](Oc2cccc3ccccc23)O[C@H](CO)[C@@H](O)[C@@H]1O (3D coordinates assigned)
C/C(O)=N/[C@H]1[C@H](Oc2cccc3ccccc23)O[C@H](CO)[C@@H](O)[C@@H]1O (nonaromatic ring conformer: 49.362319994034266 kcal/mol)

$$$$
112106
     RDKit          3D

 46 48  0  0  0  0  0  0  0  0999 V2000
   -1.4600   -4.3596   -1.3670 H   0  0  0  0  0  0  0  0  0  0  0  0
   -1.7348   -4.3075   -0.3931 O   0  0  0  0  0  0  0  0  0  0  0  0
   -1.8954   -3.0806    0.2445 C   0  0  0  0  0  0  0  0  0  0  0  0
   -1.6756   -1.9850   -0.4268 N   0  0  0  0  0  0  0  0  0  0  0  0
   -1.8041   -0.6086    0.0645 C   0  0  1  0  0  0  0  0  0  0  0  0
   -1.7421   -0.5695    1.1746 H   0  0  0  0  0  0  0  0  0  0  0  0
   -0.6448    0.2342   -0.4936 C   0  0  2  0  0  0  0  0  0  0  0  0
   -0.6496    0.1809   -1.6084 H   0  0  0  0  0  0  0  0  0  0  0  0
    0.5841   -0.3163   -0.0219 O   0  0  0  0  0  0  0  0  0  0  0  0
    1.8667    0.1123   -0.4065 C   0  0  0  0  0  0  0  0  0  0  0  0
    2.0527    1.1505   -1.3412 C   0  0  0  0  0  0  0  0  0  0  0  0
    1.2101    1.6521   -1.7960 H   0  0  0  0  0  0  0  0  0  0  0  0
    3.3375    1.5575   -1.7045 C   0  0  0  0  0  0  0  0  0  0  0  0
    3.4659    2.3568   -2.4230 H   0  0  0  0  0  0  0  0  0  0  0  0
    4.4568    0.9401   -1.1474 C   0  0  0  0  0  0  0  0  0  0  0  0
    5.4449    1.2719   -1.4439 H   0  0  0  0  0  0  0  0  0  0  0  0
    4.2997   -0.0963   -0.2176 C   0  0  0  0  0  0  0  0  0  0  0  0
    5.4244   -0.7211    0.3439 C   0  0  0  0  0  0  0  0  0  0  0  0
    6.4249   -0.4107    0.0668 H   0  0  0  0  0  0  0  0  0  0  0  0
    5.2653   -1.7545    1.2697 C   0  0  0  0  0  0  0  0  0  0  0  0
    6.1358   -2.2330    1.6995 H   0  0  0  0  0  0  0  0  0  0  0  0
    3.9865   -2.1725    1.6423 C   0  0  0  0  0  0  0  0  0  0  0  0
    3.8697   -2.9742    2.3602 H   0  0  0  0  0  0  0  0  0  0  0  0
    2.8571   -1.5603    1.0925 C   0  0  0  0  0  0  0  0  0  0  0  0
    1.8784   -1.9069    1.4011 H   0  0  0  0  0  0  0  0  0  0  0  0
    2.9973   -0.5165    0.1578 C   0  0  0  0  0  0  0  0  0  0  0  0
   -0.7521    1.5734   -0.0417 O   0  0  0  0  0  0  0  0  0  0  0  0
   -1.9020    2.1923   -0.5926 C   0  0  2  0  0  0  0  0  0  0  0  0
   -1.8724    2.1367   -1.7067 H   0  0  0  0  0  0  0  0  0  0  0  0
   -1.8792    3.6811   -0.2248 C   0  0  0  0  0  0  0  0  0  0  0  0
   -2.7694    4.1929   -0.6542 H   0  0  0  0  0  0  0  0  0  0  0  0
   -0.9679    4.1455   -0.6642 H   0  0  0  0  0  0  0  0  0  0  0  0
   -1.8599    3.8414    1.1674 O   0  0  0  0  0  0  0  0  0  0  0  0
   -1.8464    4.8200    1.3315 H   0  0  0  0  0  0  0  0  0  0  0  0
   -3.1875    1.4977   -0.0728 C   0  0  1  0  0  0  0  0  0  0  0  0
   -3.2316    1.6098    1.0333 H   0  0  0  0  0  0  0  0  0  0  0  0
   -4.3425    2.0896   -0.6157 O   0  0  0  0  0  0  0  0  0  0  0  0
   -4.2898    2.0016   -1.6034 H   0  0  0  0  0  0  0  0  0  0  0  0
   -3.1440   -0.0097   -0.3991 C   0  0  2  0  0  0  0  0  0  0  0  0
   -3.2254   -0.1514   -1.5041 H   0  0  0  0  0  0  0  0  0  0  0  0
   -4.2029   -0.6693    0.2446 O   0  0  0  0  0  0  0  0  0  0  0  0
   -5.0176   -0.5044   -0.2981 H   0  0  0  0  0  0  0  0  0  0  0  0
   -2.2910   -3.0767    1.6919 C   0  0  0  0  0  0  0  0  0  0  0  0
   -1.4640   -2.6653    2.3077 H   0  0  0  0  0  0  0  0  0  0  0  0
   -3.2096   -2.4748    1.8439 H   0  0  0  0  0  0  0  0  0  0  0  0
   -2.4963   -4.1137    2.0309 H   0  0  0  0  0  0  0  0  0  0  0  0
  1  2  1  0
  2  3  1  0
  3  4  2  0
  4  5  1  0
  5  6  1  1
  5  7  1  0
  7  8  1  6
  7  9  1  0
  9 10  1  0
 10 11  2  0
 11 12  1  0
 11 13  1  0
 13 14  1  0
 13 15  2  0
 15 16  1  0
 15 17  1  0
 17 18  2  0
 18 19  1  0
 18 20  1  0
 20 21  1  0
 20 22  2  0
 22 23  1  0
 22 24  1  0
 24 25  1  0
 24 26  2  0
  7 27  1  0
 27 28  1  0
 28 29  1  6
 28 30  1  0
 30 31  1  0
 30 32  1  0
 30 33  1  0
 33 34  1  0
 28 35  1  0
 35 36  1  1
 35 37  1  0
 37 38  1  0
 35 39  1  0
 39 40  1  6
 39 41  1  0
 41 42  1  0
  3 43  1  0
 43 44  1  0
 43 45  1  0
 43 46  1  0
 39  5  1  0
 26 10  1  0
 26 17  1  0
M  END
>  <UniqueID>  (256) 
255

>  <SMILES>  (256) 
C/C(O)=N\[C@H]1[C@H](Oc2cccc3ccccc23)O[C@H](CO)[C@@H](O)[C@@H]1O

>  <Energy>  (256) 
50.010677639363095

>  <Genealogy>  (256) 
CC(O)=N[C@H]1[C@H](Oc2cccc3ccccc23)O[C@H](CO)[C@@H](O)[C@@H]1O (tautomer)
C/C(O)=N\[C@H]1[C@H](Oc2cccc3ccccc23)O[C@H](CO)[C@@H](O)[C@@H]1O (cis-trans isomerization)
C/C(O)=N\[C@H]1[C@H](Oc2cccc3ccccc23)O[C@H](CO)[C@@H](O)[C@@H]1O (3D coordinates assigned)
C/C(O)=N\[C@H]1[C@H](Oc2cccc3ccccc23)O[C@H](CO)[C@@H](O)[C@@H]1O (nonaromatic ring conformer: 50.010677639363095 kcal/mol)

$$$$
102416
     RDKit          3D

 42 43  0  0  0  0  0  0  0  0999 V2000
    4.2426    0.3418   -1.9015 H   0  0  0  0  0  0  0  0  0  0  0  0
    3.6283   -0.0893   -1.2212 O   0  0  0  0  0  0  0  0  0  0  0  0
    3.4344   -1.4702   -1.1966 C   0  0  0  0  0  0  0  0  0  0  0  0
    2.6267   -2.0126   -0.3346 N   0  0  0  0  0  0  0  0  0  0  0  0
    1.8504   -1.2713    0.6625 C   0  0  1  0  0  0  0  0  0  0  0  0
    2.4351   -0.3988    1.0346 H   0  0  0  0  0  0  0  0  0  0  0  0
    0.5246   -0.7722    0.0518 C   0  0  2  0  0  0  0  0  0  0  0  0
   -0.0356   -1.6403   -0.3698 H   0  0  0  0  0  0  0  0  0  0  0  0
    0.8101    0.1353   -1.0110 O   0  0  0  0  0  0  0  0  0  0  0  0
   -0.1470    0.6902   -1.8739 C   0  0  0  0  0  0  0  0  0  0  0  0
   -1.5187    0.3896   -1.7797 C   0  0  0  0  0  0  0  0  0  0  0  0
   -1.8924   -0.2909   -1.0272 H   0  0  0  0  0  0  0  0  0  0  0  0
   -2.4308    0.9709   -2.6657 C   0  0  0  0  0  0  0  0  0  0  0  0
   -3.4800    0.7230   -2.5708 H   0  0  0  0  0  0  0  0  0  0  0  0
   -1.9924    1.8604   -3.6615 C   0  0  0  0  0  0  0  0  0  0  0  0
   -2.9345    2.4567   -4.5718 N   0  0  0  0  0  4  0  0  0  0  0  0
   -2.5505    3.2474   -5.4586 O   0  0  0  0  0  0  0  0  0  0  0  0
   -4.2763    2.1650   -4.4800 O   0  0  0  0  0  1  0  0  0  0  0  0
   -0.6203    2.1559   -3.7520 C   0  0  0  0  0  0  0  0  0  0  0  0
   -0.2506    2.8365   -4.5082 H   0  0  0  0  0  0  0  0  0  0  0  0
    0.2900    1.5743   -2.8653 C   0  0  0  0  0  0  0  0  0  0  0  0
    1.3432    1.8120   -2.9489 H   0  0  0  0  0  0  0  0  0  0  0  0
   -0.2411   -0.0960    1.0347 O   0  0  0  0  0  0  0  0  0  0  0  0
   -0.6605   -0.9943    2.0481 C   0  0  2  0  0  0  0  0  0  0  0  0
   -1.2154   -1.8527    1.6005 H   0  0  0  0  0  0  0  0  0  0  0  0
   -1.6495   -0.2631    2.9649 C   0  0  0  0  0  0  0  0  0  0  0  0
   -2.5190    0.0747    2.3574 H   0  0  0  0  0  0  0  0  0  0  0  0
   -2.0279   -0.9559    3.7492 H   0  0  0  0  0  0  0  0  0  0  0  0
   -1.0365    0.8478    3.5603 O   0  0  0  0  0  0  0  0  0  0  0  0
   -1.7272    1.2672    4.1364 H   0  0  0  0  0  0  0  0  0  0  0  0
    0.5638   -1.5276    2.8320 C   0  0  1  0  0  0  0  0  0  0  0  0
    1.0897   -0.6716    3.3203 H   0  0  0  0  0  0  0  0  0  0  0  0
    0.1570   -2.4723    3.7899 O   0  0  0  0  0  0  0  0  0  0  0  0
    0.0241   -1.9841    4.6440 H   0  0  0  0  0  0  0  0  0  0  0  0
    1.5411   -2.2015    1.8513 C   0  0  2  0  0  0  0  0  0  0  0  0
    1.0569   -3.1238    1.4573 H   0  0  0  0  0  0  0  0  0  0  0  0
    2.7230   -2.5883    2.5086 O   0  0  0  0  0  0  0  0  0  0  0  0
    3.1594   -1.7665    2.8555 H   0  0  0  0  0  0  0  0  0  0  0  0
    4.1441   -2.3364   -2.1863 C   0  0  0  0  0  0  0  0  0  0  0  0
    4.1384   -3.3975   -1.8568 H   0  0  0  0  0  0  0  0  0  0  0  0
    3.6391   -2.2589   -3.1714 H   0  0  0  0  0  0  0  0  0  0  0  0
    5.1977   -2.0026   -2.2894 H   0  0  0  0  0  0  0  0  0  0  0  0
  1  2  1  0
  2  3  1  0
  3  4  2  0
  4  5  1  0
  5  6  1  1
  5  7  1  0
  7  8  1  6
  7  9  1  0
  9 10  1  0
 10 11  2  0
 11 12  1  0
 11 13  1  0
 13 14  1  0
 13 15  2  0
 15 16  1  0
 16 17  2  0
 16 18  1  0
 15 19  1  0
 19 20  1  0
 19 21  2  0
 21 22  1  0
  7 23  1  0
 23 24  1  0
 24 25  1  6
 24 26  1  0
 26 27  1  0
 26 28  1  0
 26 29  1  0
 29 30  1  0
 24 31  1  0
 31 32  1  1
 31 33  1  0
 33 34  1  0
 31 35  1  0
 35 36  1  6
 35 37  1  0
 37 38  1  0
  3 39  1  0
 39 40  1  0
 39 41  1  0
 39 42  1  0
 35  5  1  0
 21 10  1  0
M  CHG  2  16   1  18  -1
M  END
>  <UniqueID>  (257) 
256

>  <SMILES>  (257) 
C/C(O)=N/[C@H]1[C@H](Oc2ccc([N+](=O)[O-])cc2)O[C@H](CO)[C@@H](O)[C@@H]1O

>  <Energy>  (257) 
39.271393574767764

>  <Genealogy>  (257) 
CC(O)=N[C@H]1[C@H](Oc2ccc([N+](=O)[O-])cc2)O[C@H](CO)[C@@H](O)[C@@H]1O (tautomer)
C/C(O)=N/[C@H]1[C@H](Oc2ccc([N+](=O)[O-])cc2)O[C@H](CO)[C@@H](O)[C@@H]1O (cis-trans isomerization)
C/C(O)=N/[C@H]1[C@H](Oc2ccc([N+](=O)[O-])cc2)O[C@H](CO)[C@@H](O)[C@@H]1O (3D coordinates assigned)
C/C(O)=N/[C@H]1[C@H](Oc2ccc([N+](=O)[O-])cc2)O[C@H](CO)[C@@H](O)[C@@H]1O (nonaromatic ring conformer: 39.271393574767764 kcal/mol)

$$$$
102416
     RDKit          3D

 42 43  0  0  0  0  0  0  0  0999 V2000
    3.1829   -2.2916    3.5632 C   0  0  0  0  0  0  0  0  0  0  0  0
    3.0896   -1.3621    2.3976 C   0  0  0  0  0  0  0  0  0  0  0  0
    3.8561   -1.5251    1.4100 O   0  0  0  0  0  0  0  0  0  0  0  0
    2.1059   -0.3177    2.3937 N   0  0  0  0  0  0  0  0  0  0  0  0
    1.8809    0.5555    1.2372 C   0  0  1  0  0  0  0  0  0  0  0  0
    0.7005    0.0299    0.4014 C   0  0  2  0  0  0  0  0  0  0  0  0
    1.0168   -1.2797   -0.0685 O   0  0  0  0  0  0  0  0  0  0  0  0
    0.1324   -2.1192   -0.7627 C   0  0  0  0  0  0  0  0  0  0  0  0
   -1.1922   -1.7469   -1.0587 C   0  0  0  0  0  0  0  0  0  0  0  0
   -2.0323   -2.6221   -1.7536 C   0  0  0  0  0  0  0  0  0  0  0  0
   -1.5674   -3.8843   -2.1648 C   0  0  0  0  0  0  0  0  0  0  0  0
   -2.4294   -4.7881   -2.8804 N   0  0  0  0  0  4  0  0  0  0  0  0
   -3.6058   -4.4676   -3.1494 O   0  0  0  0  0  0  0  0  0  0  0  0
   -1.9707   -6.0223   -3.2808 O   0  0  0  0  0  1  0  0  0  0  0  0
   -0.2443   -4.2509   -1.8650 C   0  0  0  0  0  0  0  0  0  0  0  0
    0.5943   -3.3746   -1.1705 C   0  0  0  0  0  0  0  0  0  0  0  0
    0.4800    0.8772   -0.7137 O   0  0  0  0  0  0  0  0  0  0  0  0
    0.0288    2.1542   -0.2932 C   0  0  2  0  0  0  0  0  0  0  0  0
   -0.3582    2.9539   -1.5480 C   0  0  0  0  0  0  0  0  0  0  0  0
   -0.9820    4.1635   -1.2094 O   0  0  0  0  0  0  0  0  0  0  0  0
    1.1442    2.8703    0.5154 C   0  0  1  0  0  0  0  0  0  0  0  0
    0.7280    4.1359    0.9660 O   0  0  0  0  0  0  0  0  0  0  0  0
    1.5759    1.9911    1.7092 C   0  0  2  0  0  0  0  0  0  0  0  0
    2.6837    2.5503    2.3708 O   0  0  0  0  0  0  0  0  0  0  0  0
    4.1232   -2.8811    3.5175 H   0  0  0  0  0  0  0  0  0  0  0  0
    3.1716   -1.7101    4.5087 H   0  0  0  0  0  0  0  0  0  0  0  0
    2.3177   -2.9864    3.5507 H   0  0  0  0  0  0  0  0  0  0  0  0
    1.4302   -0.2749    3.1906 H   0  0  0  0  0  0  0  0  0  0  0  0
    2.7874    0.5809    0.5912 H   0  0  0  0  0  0  0  0  0  0  0  0
   -0.2083   -0.0372    1.0455 H   0  0  0  0  0  0  0  0  0  0  0  0
   -1.5843   -0.7855   -0.7574 H   0  0  0  0  0  0  0  0  0  0  0  0
   -3.0465   -2.3109   -1.9690 H   0  0  0  0  0  0  0  0  0  0  0  0
    0.1436   -5.2151   -2.1670 H   0  0  0  0  0  0  0  0  0  0  0  0
    1.6110   -3.6730   -0.9473 H   0  0  0  0  0  0  0  0  0  0  0  0
   -0.8888    2.0488    0.3327 H   0  0  0  0  0  0  0  0  0  0  0  0
    0.5488    3.1731   -2.1511 H   0  0  0  0  0  0  0  0  0  0  0  0
   -1.0397    2.3443   -2.1848 H   0  0  0  0  0  0  0  0  0  0  0  0
   -1.9014    3.9361   -0.9118 H   0  0  0  0  0  0  0  0  0  0  0  0
    2.0217    3.0147   -0.1533 H   0  0  0  0  0  0  0  0  0  0  0  0
   -0.0762    4.0040    1.5335 H   0  0  0  0  0  0  0  0  0  0  0  0
    0.7329    1.9494    2.4350 H   0  0  0  0  0  0  0  0  0  0  0  0
    3.4373    2.5821    1.7250 H   0  0  0  0  0  0  0  0  0  0  0  0
  1  2  1  0
  2  3  2  0
  2  4  1  0
  4  5  1  0
  5  6  1  0
  6  7  1  0
  7  8  1  0
  8  9  2  0
  9 10  1  0
 10 11  2  0
 11 12  1  0
 12 13  2  0
 12 14  1  0
 11 15  1  0
 15 16  2  0
  6 17  1  0
 17 18  1  0
 18 19  1  0
 19 20  1  0
 18 21  1  0
 21 22  1  0
 21 23  1  0
 23 24  1  0
 23  5  1  0
 16  8  1  0
  1 25  1  0
  1 26  1  0
  1 27  1  0
  4 28  1  0
  5 29  1  6
  6 30  1  1
  9 31  1  0
 10 32  1  0
 15 33  1  0
 16 34  1  0
 18 35  1  1
 19 36  1  0
 19 37  1  0
 20 38  1  0
 21 39  1  6
 22 40  1  0
 23 41  1  1
 24 42  1  0
M  CHG  2  12   1  14  -1
M  END
>  <UniqueID>  (258) 
257

>  <SMILES>  (258) 
CC(=O)N[C@H]1[C@H](Oc2ccc([N+](=O)[O-])cc2)O[C@H](CO)[C@@H](O)[C@@H]1O

>  <Energy>  (258) 
39.90982295271113

>  <Genealogy>  (258) 
CC(=O)N[C@H]1[C@H](Oc2ccc([N+](=O)[O-])cc2)O[C@H](CO)[C@@H](O)[C@@H]1O (3D coordinates assigned)
CC(=O)N[C@H]1[C@H](Oc2ccc([N+](=O)[O-])cc2)O[C@H](CO)[C@@H](O)[C@@H]1O (nonaromatic ring conformer: 39.90982295271113 kcal/mol)

$$$$
102416
     RDKit          3D

 42 43  0  0  0  0  0  0  0  0999 V2000
    2.8803   -4.5459   -1.6744 H   0  0  0  0  0  0  0  0  0  0  0  0
    2.2150   -4.3612   -0.9330 O   0  0  0  0  0  0  0  0  0  0  0  0
    1.1703   -3.4545   -1.0954 C   0  0  0  0  0  0  0  0  0  0  0  0
    0.3816   -3.2502   -0.0757 N   0  0  0  0  0  0  0  0  0  0  0  0
   -0.7965   -2.3849    0.1007 C   0  0  1  0  0  0  0  0  0  0  0  0
   -1.0265   -2.3991    1.1900 H   0  0  0  0  0  0  0  0  0  0  0  0
   -0.5510   -0.9095   -0.2684 C   0  0  2  0  0  0  0  0  0  0  0  0
   -0.3505   -0.7996   -1.3535 H   0  0  0  0  0  0  0  0  0  0  0  0
    0.5835   -0.4337    0.4541 O   0  0  0  0  0  0  0  0  0  0  0  0
    1.1653    0.8329    0.2896 C   0  0  0  0  0  0  0  0  0  0  0  0
    2.2735    1.1597    1.0777 C   0  0  0  0  0  0  0  0  0  0  0  0
    2.6579    0.4416    1.7910 H   0  0  0  0  0  0  0  0  0  0  0  0
    2.8924    2.4069    0.9544 C   0  0  0  0  0  0  0  0  0  0  0  0
    3.7478    2.6289    1.5790 H   0  0  0  0  0  0  0  0  0  0  0  0
    2.4106    3.3542    0.0350 C   0  0  0  0  0  0  0  0  0  0  0  0
    3.0492    4.6380   -0.0903 N   0  0  0  0  0  4  0  0  0  0  0  0
    2.6253    5.4835   -0.9055 O   0  0  0  0  0  0  0  0  0  0  0  0
    4.1393    4.9557    0.6874 O   0  0  0  0  0  1  0  0  0  0  0  0
    1.2965    3.0254   -0.7581 C   0  0  0  0  0  0  0  0  0  0  0  0
    0.9020    3.7336   -1.4755 H   0  0  0  0  0  0  0  0  0  0  0  0
    0.6789    1.7774   -0.6338 C   0  0  0  0  0  0  0  0  0  0  0  0
   -0.1748    1.5605   -1.2606 H   0  0  0  0  0  0  0  0  0  0  0  0
   -1.6860   -0.1425    0.0926 O   0  0  0  0  0  0  0  0  0  0  0  0
   -2.8046   -0.5125   -0.6998 C   0  0  2  0  0  0  0  0  0  0  0  0
   -2.5643   -0.4216   -1.7859 H   0  0  0  0  0  0  0  0  0  0  0  0
   -3.9511    0.4654   -0.4048 C   0  0  0  0  0  0  0  0  0  0  0  0
   -4.8476    0.2150   -1.0165 H   0  0  0  0  0  0  0  0  0  0  0  0
   -4.2385    0.3907    0.6659 H   0  0  0  0  0  0  0  0  0  0  0  0
   -3.5490    1.7835   -0.6647 O   0  0  0  0  0  0  0  0  0  0  0  0
   -3.5376    1.8879   -1.6520 H   0  0  0  0  0  0  0  0  0  0  0  0
   -3.2311   -1.9688   -0.3888 C   0  0  1  0  0  0  0  0  0  0  0  0
   -3.5424   -2.0223    0.6824 H   0  0  0  0  0  0  0  0  0  0  0  0
   -4.3036   -2.3342   -1.2199 O   0  0  0  0  0  0  0  0  0  0  0  0
   -4.7538   -3.1057   -0.7868 H   0  0  0  0  0  0  0  0  0  0  0  0
   -2.0469   -2.9299   -0.6177 C   0  0  2  0  0  0  0  0  0  0  0  0
   -1.8742   -2.9978   -1.7129 H   0  0  0  0  0  0  0  0  0  0  0  0
   -2.3770   -4.1978   -0.1112 O   0  0  0  0  0  0  0  0  0  0  0  0
   -1.7811   -4.8520   -0.5615 H   0  0  0  0  0  0  0  0  0  0  0  0
    1.0496   -2.7316   -2.4083 C   0  0  0  0  0  0  0  0  0  0  0  0
    1.5899   -3.2925   -3.1990 H   0  0  0  0  0  0  0  0  0  0  0  0
    0.0019   -2.6404   -2.7433 H   0  0  0  0  0  0  0  0  0  0  0  0
    1.5180   -1.7291   -2.3256 H   0  0  0  0  0  0  0  0  0  0  0  0
  1  2  1  0
  2  3  1  0
  3  4  2  0
  4  5  1  0
  5  6  1  1
  5  7  1  0
  7  8  1  6
  7  9  1  0
  9 10  1  0
 10 11  2  0
 11 12  1  0
 11 13  1  0
 13 14  1  0
 13 15  2  0
 15 16  1  0
 16 17  2  0
 16 18  1  0
 15 19  1  0
 19 20  1  0
 19 21  2  0
 21 22  1  0
  7 23  1  0
 23 24  1  0
 24 25  1  6
 24 26  1  0
 26 27  1  0
 26 28  1  0
 26 29  1  0
 29 30  1  0
 24 31  1  0
 31 32  1  1
 31 33  1  0
 33 34  1  0
 31 35  1  0
 35 36  1  6
 35 37  1  0
 37 38  1  0
  3 39  1  0
 39 40  1  0
 39 41  1  0
 39 42  1  0
 35  5  1  0
 21 10  1  0
M  CHG  2  16   1  18  -1
M  END
>  <UniqueID>  (259) 
258

>  <SMILES>  (259) 
C/C(O)=N\[C@H]1[C@H](Oc2ccc([N+](=O)[O-])cc2)O[C@H](CO)[C@@H](O)[C@@H]1O

>  <Energy>  (259) 
45.91974172792962

>  <Genealogy>  (259) 
CC(O)=N[C@H]1[C@H](Oc2ccc([N+](=O)[O-])cc2)O[C@H](CO)[C@@H](O)[C@@H]1O (tautomer)
C/C(O)=N\[C@H]1[C@H](Oc2ccc([N+](=O)[O-])cc2)O[C@H](CO)[C@@H](O)[C@@H]1O (cis-trans isomerization)
C/C(O)=N\[C@H]1[C@H](Oc2ccc([N+](=O)[O-])cc2)O[C@H](CO)[C@@H](O)[C@@H]1O (3D coordinates assigned)
C/C(O)=N\[C@H]1[C@H](Oc2ccc([N+](=O)[O-])cc2)O[C@H](CO)[C@@H](O)[C@@H]1O (nonaromatic ring conformer: 45.91974172792962 kcal/mol)

$$$$
99461
     RDKit          3D

 50 50  0  0  0  0  0  0  0  0999 V2000
   -0.0635    0.4608   -4.8071 C   0  0  0  0  0  0  0  0  0  0  0  0
   -0.5161   -0.0283   -3.4704 C   0  0  0  0  0  0  0  0  0  0  0  0
   -1.6570   -0.5521   -3.3553 O   0  0  0  0  0  0  0  0  0  0  0  0
    0.3270    0.1470   -2.3226 N   0  0  0  0  0  0  0  0  0  0  0  0
   -0.0843   -0.2220   -0.9646 C   0  0  1  0  0  0  0  0  0  0  0  0
    1.0269   -1.0464   -0.2908 C   0  0  2  0  0  0  0  0  0  0  0  0
    1.2371   -2.2373   -1.0459 O   0  0  0  0  0  0  0  0  0  0  0  0
    2.2572   -3.1497   -0.7597 C   0  0  0  0  0  0  0  0  0  0  0  0
    2.4140   -4.3654   -1.6080 C   0  0  0  0  0  0  0  0  0  0  0  0
    3.0715   -2.9338    0.1789 O   0  0  0  0  0  0  0  0  0  0  0  0
    0.6448   -1.3998    1.0269 O   0  0  0  0  0  0  0  0  0  0  0  0
    0.5329   -0.2426    1.8377 C   0  0  2  0  0  0  0  0  0  0  0  0
    0.3063   -0.6848    3.2883 C   0  0  0  0  0  0  0  0  0  0  0  0
   -0.8841   -1.4619    3.3896 O   0  0  0  0  0  0  0  0  0  0  0  0
   -1.3385   -1.9912    4.6001 C   0  0  0  0  0  0  0  0  0  0  0  0
   -2.6081   -2.7718    4.6297 C   0  0  0  0  0  0  0  0  0  0  0  0
   -0.7092   -1.7806    5.6725 O   0  0  0  0  0  0  0  0  0  0  0  0
   -0.6204    0.6587    1.3380 C   0  0  1  0  0  0  0  0  0  0  0  0
   -0.6821    1.8383    2.1438 O   0  0  0  0  0  0  0  0  0  0  0  0
   -1.8357    2.6148    2.3001 C   0  0  0  0  0  0  0  0  0  0  0  0
   -1.7736    3.8611    3.1150 C   0  0  0  0  0  0  0  0  0  0  0  0
   -2.9365    2.2469    1.8073 O   0  0  0  0  0  0  0  0  0  0  0  0
   -0.3757    1.0423   -0.1330 C   0  0  2  0  0  0  0  0  0  0  0  0
   -1.5335    1.7065   -0.6435 O   0  0  0  0  0  0  0  0  0  0  0  0
   -1.4970    2.6726   -1.6552 C   0  0  0  0  0  0  0  0  0  0  0  0
   -2.7736    3.2528   -2.1586 C   0  0  0  0  0  0  0  0  0  0  0  0
   -0.3992    3.0924   -2.1119 O   0  0  0  0  0  0  0  0  0  0  0  0
   -0.1677    1.5649   -4.8495 H   0  0  0  0  0  0  0  0  0  0  0  0
   -0.6751    0.0061   -5.6151 H   0  0  0  0  0  0  0  0  0  0  0  0
    1.0002    0.1869   -4.9682 H   0  0  0  0  0  0  0  0  0  0  0  0
    1.2403    0.6409   -2.4480 H   0  0  0  0  0  0  0  0  0  0  0  0
   -1.0038   -0.8489   -0.9929 H   0  0  0  0  0  0  0  0  0  0  0  0
    1.9788   -0.4634   -0.2855 H   0  0  0  0  0  0  0  0  0  0  0  0
    1.4496   -4.6119   -2.0994 H   0  0  0  0  0  0  0  0  0  0  0  0
    2.7291   -5.2279   -0.9835 H   0  0  0  0  0  0  0  0  0  0  0  0
    3.1817   -4.1761   -2.3868 H   0  0  0  0  0  0  0  0  0  0  0  0
    1.4871    0.3358    1.8243 H   0  0  0  0  0  0  0  0  0  0  0  0
    0.2334    0.2045    3.9520 H   0  0  0  0  0  0  0  0  0  0  0  0
    1.1741   -1.2955    3.6207 H   0  0  0  0  0  0  0  0  0  0  0  0
   -2.5234   -3.6099    5.3533 H   0  0  0  0  0  0  0  0  0  0  0  0
   -3.4435   -2.1073    4.9334 H   0  0  0  0  0  0  0  0  0  0  0  0
   -2.8212   -3.1877    3.6227 H   0  0  0  0  0  0  0  0  0  0  0  0
   -1.5754    0.0904    1.4160 H   0  0  0  0  0  0  0  0  0  0  0  0
   -2.0810    3.6367    4.1574 H   0  0  0  0  0  0  0  0  0  0  0  0
   -0.7376    4.2600    3.1180 H   0  0  0  0  0  0  0  0  0  0  0  0
   -2.4523    4.6298    2.6888 H   0  0  0  0  0  0  0  0  0  0  0  0
    0.5048    1.7248   -0.1669 H   0  0  0  0  0  0  0  0  0  0  0  0
   -2.9706    4.2157   -1.6435 H   0  0  0  0  0  0  0  0  0  0  0  0
   -3.6124    2.5537   -1.9581 H   0  0  0  0  0  0  0  0  0  0  0  0
   -2.7064    3.4271   -3.2533 H   0  0  0  0  0  0  0  0  0  0  0  0
  1  2  1  0
  2  3  2  0
  2  4  1  0
  4  5  1  0
  5  6  1  0
  6  7  1  0
  7  8  1  0
  8  9  1  0
  8 10  2  0
  6 11  1  0
 11 12  1  0
 12 13  1  0
 13 14  1  0
 14 15  1  0
 15 16  1  0
 15 17  2  0
 12 18  1  0
 18 19  1  0
 19 20  1  0
 20 21  1  0
 20 22  2  0
 18 23  1  0
 23 24  1  0
 24 25  1  0
 25 26  1  0
 25 27  2  0
 23  5  1  0
  1 28  1  0
  1 29  1  0
  1 30  1  0
  4 31  1  0
  5 32  1  6
  6 33  1  1
  9 34  1  0
  9 35  1  0
  9 36  1  0
 12 37  1  1
 13 38  1  0
 13 39  1  0
 16 40  1  0
 16 41  1  0
 16 42  1  0
 18 43  1  6
 21 44  1  0
 21 45  1  0
 21 46  1  0
 23 47  1  1
 26 48  1  0
 26 49  1  0
 26 50  1  0
M  END
>  <UniqueID>  (260) 
259

>  <SMILES>  (260) 
CC(=O)N[C@H]1[C@H](OC(C)=O)O[C@H](COC(C)=O)[C@@H](OC(C)=O)[C@@H]1OC(C)=O

>  <Energy>  (260) 
28.868587458382756

>  <Genealogy>  (260) 
CC(=O)N[C@H]1[C@H](OC(C)=O)O[C@H](COC(C)=O)[C@@H](OC(C)=O)[C@@H]1OC(C)=O (3D coordinates assigned)
CC(=O)N[C@H]1[C@H](OC(C)=O)O[C@H](COC(C)=O)[C@@H](OC(C)=O)[C@@H]1OC(C)=O (nonaromatic ring conformer: 28.868587458382756 kcal/mol)

$$$$
99461
     RDKit          3D

 50 50  0  0  0  0  0  0  0  0999 V2000
   -3.9415   -3.5363   -2.6535 H   0  0  0  0  0  0  0  0  0  0  0  0
   -3.3997   -2.8159   -2.1916 O   0  0  0  0  0  0  0  0  0  0  0  0
   -2.4187   -3.1393   -1.2544 C   0  0  0  0  0  0  0  0  0  0  0  0
   -1.7508   -2.2068   -0.6431 N   0  0  0  0  0  0  0  0  0  0  0  0
   -1.9309   -0.7702   -0.8632 C   0  0  1  0  0  0  0  0  0  0  0  0
   -2.3041   -0.5796   -1.8955 H   0  0  0  0  0  0  0  0  0  0  0  0
   -2.9336   -0.1856    0.1556 C   0  0  2  0  0  0  0  0  0  0  0  0
   -2.5758   -0.3664    1.1973 H   0  0  0  0  0  0  0  0  0  0  0  0
   -4.2149   -0.7942   -0.0141 O   0  0  0  0  0  0  0  0  0  0  0  0
   -4.6580   -1.9051    0.7149 C   0  0  0  0  0  0  0  0  0  0  0  0
   -3.9382   -2.4222    1.6120 O   0  0  0  0  0  0  0  0  0  0  0  0
   -5.9768   -2.5170    0.3873 C   0  0  0  0  0  0  0  0  0  0  0  0
   -5.8223   -3.3892   -0.2814 H   0  0  0  0  0  0  0  0  0  0  0  0
   -6.4830   -2.8519    1.3171 H   0  0  0  0  0  0  0  0  0  0  0  0
   -6.6230   -1.7745   -0.1260 H   0  0  0  0  0  0  0  0  0  0  0  0
   -3.0827    1.2040   -0.0669 O   0  0  0  0  0  0  0  0  0  0  0  0
   -1.8794    1.8950    0.2244 C   0  0  2  0  0  0  0  0  0  0  0  0
   -1.5557    1.6816    1.2696 H   0  0  0  0  0  0  0  0  0  0  0  0
   -2.1712    3.4031    0.1240 C   0  0  0  0  0  0  0  0  0  0  0  0
   -2.4773    3.6499   -0.9151 H   0  0  0  0  0  0  0  0  0  0  0  0
   -3.0186    3.6712    0.7925 H   0  0  0  0  0  0  0  0  0  0  0  0
   -1.0277    4.1888    0.4585 O   0  0  0  0  0  0  0  0  0  0  0  0
   -0.5564    4.3525    1.7654 C   0  0  0  0  0  0  0  0  0  0  0  0
   -1.1854    3.8692    2.7456 O   0  0  0  0  0  0  0  0  0  0  0  0
    0.7281    5.0726    1.9959 C   0  0  0  0  0  0  0  0  0  0  0  0
    1.5369    4.3351    2.1801 H   0  0  0  0  0  0  0  0  0  0  0  0
    0.9886    5.6809    1.1045 H   0  0  0  0  0  0  0  0  0  0  0  0
    0.6347    5.7442    2.8753 H   0  0  0  0  0  0  0  0  0  0  0  0
   -0.7640    1.4692   -0.7610 C   0  0  1  0  0  0  0  0  0  0  0  0
   -1.0686    1.7730   -1.7889 H   0  0  0  0  0  0  0  0  0  0  0  0
    0.4605    2.1113   -0.3976 O   0  0  0  0  0  0  0  0  0  0  0  0
    1.5016    2.3758   -1.2935 C   0  0  0  0  0  0  0  0  0  0  0  0
    1.3818    2.1172   -2.5218 O   0  0  0  0  0  0  0  0  0  0  0  0
    2.7408    3.0365   -0.7948 C   0  0  0  0  0  0  0  0  0  0  0  0
    2.6255    4.1380   -0.8658 H   0  0  0  0  0  0  0  0  0  0  0  0
    3.6159    2.7179   -1.3997 H   0  0  0  0  0  0  0  0  0  0  0  0
    2.9162    2.7568    0.2651 H   0  0  0  0  0  0  0  0  0  0  0  0
   -0.5748   -0.0580   -0.7108 C   0  0  2  0  0  0  0  0  0  0  0  0
   -0.1269   -0.3153    0.2771 H   0  0  0  0  0  0  0  0  0  0  0  0
    0.3053   -0.4534   -1.7654 O   0  0  0  0  0  0  0  0  0  0  0  0
    1.1388   -1.5762   -1.7092 C   0  0  0  0  0  0  0  0  0  0  0  0
    1.1893   -2.2963   -0.6753 O   0  0  0  0  0  0  0  0  0  0  0  0
    1.9501   -1.9443   -2.9038 C   0  0  0  0  0  0  0  0  0  0  0  0
    2.9249   -2.3715   -2.5871 H   0  0  0  0  0  0  0  0  0  0  0  0
    1.3986   -2.6947   -3.5073 H   0  0  0  0  0  0  0  0  0  0  0  0
    2.1386   -1.0437   -3.5249 H   0  0  0  0  0  0  0  0  0  0  0  0
   -2.1559   -4.5711   -0.9180 C   0  0  0  0  0  0  0  0  0  0  0  0
   -1.1470   -4.6889   -0.4676 H   0  0  0  0  0  0  0  0  0  0  0  0
   -2.9211   -4.9251   -0.1963 H   0  0  0  0  0  0  0  0  0  0  0  0
   -2.2076   -5.1899   -1.8380 H   0  0  0  0  0  0  0  0  0  0  0  0
  1  2  1  0
  2  3  1  0
  3  4  2  0
  4  5  1  0
  5  6  1  6
  5  7  1  0
  7  8  1  1
  7  9  1  0
  9 10  1  0
 10 11  2  0
 10 12  1  0
 12 13  1  0
 12 14  1  0
 12 15  1  0
  7 16  1  0
 16 17  1  0
 17 18  1  1
 17 19  1  0
 19 20  1  0
 19 21  1  0
 19 22  1  0
 22 23  1  0
 23 24  2  0
 23 25  1  0
 25 26  1  0
 25 27  1  0
 25 28  1  0
 17 29  1  0
 29 30  1  6
 29 31  1  0
 31 32  1  0
 32 33  2  0
 32 34  1  0
 34 35  1  0
 34 36  1  0
 34 37  1  0
 29 38  1  0
 38 39  1  1
 38 40  1  0
 40 41  1  0
 41 42  2  0
 41 43  1  0
 43 44  1  0
 43 45  1  0
 43 46  1  0
  3 47  1  0
 47 48  1  0
 47 49  1  0
 47 50  1  0
 38  5  1  0
M  END
>  <UniqueID>  (261) 
260

>  <SMILES>  (261) 
CC(=O)OC[C@H]1O[C@@H](OC(C)=O)[C@H](/N=C(\C)O)[C@@H](OC(C)=O)[C@@H]1OC(C)=O

>  <Energy>  (261) 
32.210562716847406

>  <Genealogy>  (261) 
CC(=O)OC[C@H]1O[C@@H](OC(C)=O)[C@H](N=C(C)O)[C@@H](OC(C)=O)[C@@H]1OC(C)=O (tautomer)
CC(=O)OC[C@H]1O[C@@H](OC(C)=O)[C@H](/N=C(\C)O)[C@@H](OC(C)=O)[C@@H]1OC(C)=O (cis-trans isomerization)
CC(=O)OC[C@H]1O[C@@H](OC(C)=O)[C@H](/N=C(\C)O)[C@@H](OC(C)=O)[C@@H]1OC(C)=O (3D coordinates assigned)
CC(=O)OC[C@H]1O[C@@H](OC(C)=O)[C@H](/N=C(\C)O)[C@@H](OC(C)=O)[C@@H]1OC(C)=O (nonaromatic ring conformer: 32.210562716847406 kcal/mol)

$$$$
99461
     RDKit          3D

 50 50  0  0  0  0  0  0  0  0999 V2000
    3.8976    4.4665   -2.8678 H   0  0  0  0  0  0  0  0  0  0  0  0
    3.6041    3.5152   -2.6811 O   0  0  0  0  0  0  0  0  0  0  0  0
    2.5655    3.2303   -1.7981 C   0  0  0  0  0  0  0  0  0  0  0  0
    2.2545    1.9820   -1.5944 N   0  0  0  0  0  0  0  0  0  0  0  0
    1.1953    1.4654   -0.7209 C   0  0  1  0  0  0  0  0  0  0  0  0
    0.9084    2.2136    0.0503 H   0  0  0  0  0  0  0  0  0  0  0  0
   -0.0424    1.1053   -1.5648 C   0  0  2  0  0  0  0  0  0  0  0  0
    0.2477    0.3798   -2.3620 H   0  0  0  0  0  0  0  0  0  0  0  0
   -0.5360    2.2832   -2.1967 O   0  0  0  0  0  0  0  0  0  0  0  0
   -1.5853    2.2712   -3.1202 C   0  0  0  0  0  0  0  0  0  0  0  0
   -2.1308    1.1872   -3.4633 O   0  0  0  0  0  0  0  0  0  0  0  0
   -2.0271    3.5507   -3.7440 C   0  0  0  0  0  0  0  0  0  0  0  0
   -3.1267    3.5403   -3.8982 H   0  0  0  0  0  0  0  0  0  0  0  0
   -1.7657    4.4040   -3.0834 H   0  0  0  0  0  0  0  0  0  0  0  0
   -1.5200    3.6791   -4.7227 H   0  0  0  0  0  0  0  0  0  0  0  0
   -1.0611    0.5681   -0.7396 O   0  0  0  0  0  0  0  0  0  0  0  0
   -0.6527   -0.6719   -0.1878 C   0  0  2  0  0  0  0  0  0  0  0  0
   -0.3577   -1.3798   -0.9983 H   0  0  0  0  0  0  0  0  0  0  0  0
   -1.8553   -1.2997    0.5251 C   0  0  0  0  0  0  0  0  0  0  0  0
   -1.5877   -2.3048    0.9159 H   0  0  0  0  0  0  0  0  0  0  0  0
   -2.6837   -1.4268   -0.2056 H   0  0  0  0  0  0  0  0  0  0  0  0
   -2.2926   -0.4616    1.5914 O   0  0  0  0  0  0  0  0  0  0  0  0
   -3.3573   -0.8014    2.4297 C   0  0  0  0  0  0  0  0  0  0  0  0
   -3.9755   -1.8900    2.2777 O   0  0  0  0  0  0  0  0  0  0  0  0
   -3.7284    0.1095    3.5496 C   0  0  0  0  0  0  0  0  0  0  0  0
   -3.4272    1.1501    3.3066 H   0  0  0  0  0  0  0  0  0  0  0  0
   -3.2087   -0.2132    4.4755 H   0  0  0  0  0  0  0  0  0  0  0  0
   -4.8261    0.0834    3.7160 H   0  0  0  0  0  0  0  0  0  0  0  0
    0.5465   -0.4623    0.7703 C   0  0  1  0  0  0  0  0  0  0  0  0
    0.2475    0.2171    1.6009 H   0  0  0  0  0  0  0  0  0  0  0  0
    1.0069   -1.7164    1.2819 O   0  0  0  0  0  0  0  0  0  0  0  0
    0.6713   -2.2190    2.5448 C   0  0  0  0  0  0  0  0  0  0  0  0
   -0.0293   -1.5446    3.3475 O   0  0  0  0  0  0  0  0  0  0  0  0
    1.1860   -3.5539    2.9623 C   0  0  0  0  0  0  0  0  0  0  0  0
    1.5364   -4.1215    2.0751 H   0  0  0  0  0  0  0  0  0  0  0  0
    2.0331   -3.4205    3.6667 H   0  0  0  0  0  0  0  0  0  0  0  0
    0.3795   -4.1306    3.4619 H   0  0  0  0  0  0  0  0  0  0  0  0
    1.7008    0.2065    0.0095 C   0  0  2  0  0  0  0  0  0  0  0  0
    2.0971   -0.5249   -0.7327 H   0  0  0  0  0  0  0  0  0  0  0  0
    2.7231    0.5555    0.9462 O   0  0  0  0  0  0  0  0  0  0  0  0
    4.0757    0.6894    0.6127 C   0  0  0  0  0  0  0  0  0  0  0  0
    4.4923    0.3899   -0.5391 O   0  0  0  0  0  0  0  0  0  0  0  0
    5.0454    1.1357    1.6527 C   0  0  0  0  0  0  0  0  0  0  0  0
    5.7979    1.8170    1.2029 H   0  0  0  0  0  0  0  0  0  0  0  0
    4.5116    1.6760    2.4624 H   0  0  0  0  0  0  0  0  0  0  0  0
    5.5602    0.2515    2.0824 H   0  0  0  0  0  0  0  0  0  0  0  0
    1.8651    4.3608   -1.0940 C   0  0  0  0  0  0  0  0  0  0  0  0
    2.2221    5.3393   -1.4770 H   0  0  0  0  0  0  0  0  0  0  0  0
    0.7707    4.3080   -1.2629 H   0  0  0  0  0  0  0  0  0  0  0  0
    2.0790    4.3146   -0.0057 H   0  0  0  0  0  0  0  0  0  0  0  0
  1  2  1  0
  2  3  1  0
  3  4  2  0
  4  5  1  0
  5  6  1  1
  5  7  1  0
  7  8  1  6
  7  9  1  0
  9 10  1  0
 10 11  2  0
 10 12  1  0
 12 13  1  0
 12 14  1  0
 12 15  1  0
  7 16  1  0
 16 17  1  0
 17 18  1  6
 17 19  1  0
 19 20  1  0
 19 21  1  0
 19 22  1  0
 22 23  1  0
 23 24  2  0
 23 25  1  0
 25 26  1  0
 25 27  1  0
 25 28  1  0
 17 29  1  0
 29 30  1  1
 29 31  1  0
 31 32  1  0
 32 33  2  0
 32 34  1  0
 34 35  1  0
 34 36  1  0
 34 37  1  0
 29 38  1  0
 38 39  1  6
 38 40  1  0
 40 41  1  0
 41 42  2  0
 41 43  1  0
 43 44  1  0
 43 45  1  0
 43 46  1  0
  3 47  1  0
 47 48  1  0
 47 49  1  0
 47 50  1  0
 38  5  1  0
M  END
>  <UniqueID>  (262) 
261

>  <SMILES>  (262) 
CC(=O)OC[C@H]1O[C@@H](OC(C)=O)[C@H](/N=C(/C)O)[C@@H](OC(C)=O)[C@@H]1OC(C)=O

>  <Energy>  (262) 
33.25353098664272

>  <Genealogy>  (262) 
CC(=O)OC[C@H]1O[C@@H](OC(C)=O)[C@H](N=C(C)O)[C@@H](OC(C)=O)[C@@H]1OC(C)=O (tautomer)
CC(=O)OC[C@H]1O[C@@H](OC(C)=O)[C@H](/N=C(/C)O)[C@@H](OC(C)=O)[C@@H]1OC(C)=O (cis-trans isomerization)
CC(=O)OC[C@H]1O[C@@H](OC(C)=O)[C@H](/N=C(/C)O)[C@@H](OC(C)=O)[C@@H]1OC(C)=O (3D coordinates assigned)
CC(=O)OC[C@H]1O[C@@H](OC(C)=O)[C@H](/N=C(/C)O)[C@@H](OC(C)=O)[C@@H]1OC(C)=O (nonaromatic ring conformer: 33.25353098664272 kcal/mol)

$$$$
96523
     RDKit          3D

 33 33  0  0  0  0  0  0  0  0999 V2000
    1.6471    3.2949   -2.8825 H   0  0  0  0  0  0  0  0  0  0  0  0
    1.2878    2.4847   -2.3922 O   0  0  0  0  0  0  0  0  0  0  0  0
    2.0952    1.7485   -1.5254 C   0  0  0  0  0  0  0  0  0  0  0  0
    1.6312    0.6978   -0.9173 N   0  0  0  0  0  0  0  0  0  0  0  0
    0.2562    0.2047   -1.0334 C   0  0  1  0  0  0  0  0  0  0  0  0
   -0.1246    0.3801   -2.0660 H   0  0  0  0  0  0  0  0  0  0  0  0
    0.2424   -1.3153   -0.7868 C   0  0  1  0  0  0  0  0  0  0  0  0
    0.8239   -1.7651   -1.6261 H   0  0  0  0  0  0  0  0  0  0  0  0
    0.8545   -1.6209    0.4577 O   0  0  0  0  0  0  0  0  0  0  0  0
    1.1683   -2.9950    0.5188 C   0  0  0  0  0  0  0  0  0  0  0  0
    1.9393   -3.2621   -0.2371 H   0  0  0  0  0  0  0  0  0  0  0  0
    1.5907   -3.2160    1.5203 H   0  0  0  0  0  0  0  0  0  0  0  0
    0.2619   -3.6272    0.3906 H   0  0  0  0  0  0  0  0  0  0  0  0
   -1.0830   -1.8230   -0.8579 O   0  0  0  0  0  0  0  0  0  0  0  0
   -1.9136   -1.2746    0.1546 C   0  0  2  0  0  0  0  0  0  0  0  0
   -1.4925   -1.4950    1.1627 H   0  0  0  0  0  0  0  0  0  0  0  0
   -3.2794   -1.9772    0.0695 C   0  0  0  0  0  0  0  0  0  0  0  0
   -3.1314   -3.0813    0.0442 H   0  0  0  0  0  0  0  0  0  0  0  0
   -3.7931   -1.6921   -0.8736 H   0  0  0  0  0  0  0  0  0  0  0  0
   -4.0990   -1.6345    1.1549 O   0  0  0  0  0  0  0  0  0  0  0  0
   -3.7514   -2.1303    1.9417 H   0  0  0  0  0  0  0  0  0  0  0  0
   -2.0546    0.2557   -0.0274 C   0  0  1  0  0  0  0  0  0  0  0  0
   -2.5472    0.4514   -1.0104 H   0  0  0  0  0  0  0  0  0  0  0  0
   -2.8279    0.7909    1.0167 O   0  0  0  0  0  0  0  0  0  0  0  0
   -3.1927    1.6554    0.6924 H   0  0  0  0  0  0  0  0  0  0  0  0
   -0.6647    0.9134   -0.0212 C   0  0  2  0  0  0  0  0  0  0  0  0
   -0.2330    0.8098    1.0045 H   0  0  0  0  0  0  0  0  0  0  0  0
   -0.7998    2.2711   -0.3570 O   0  0  0  0  0  0  0  0  0  0  0  0
   -0.0813    2.7627    0.1201 H   0  0  0  0  0  0  0  0  0  0  0  0
    3.5219    2.1450   -1.3227 C   0  0  0  0  0  0  0  0  0  0  0  0
    4.1306    1.7797   -2.1757 H   0  0  0  0  0  0  0  0  0  0  0  0
    3.9192    1.7123   -0.3796 H   0  0  0  0  0  0  0  0  0  0  0  0
    3.6006    3.2507   -1.2654 H   0  0  0  0  0  0  0  0  0  0  0  0
  1  2  1  0
  2  3  1  0
  3  4  2  0
  4  5  1  0
  5  6  1  6
  5  7  1  0
  7  8  1  6
  7  9  1  0
  9 10  1  0
 10 11  1  0
 10 12  1  0
 10 13  1  0
  7 14  1  0
 14 15  1  0
 15 16  1  1
 15 17  1  0
 17 18  1  0
 17 19  1  0
 17 20  1  0
 20 21  1  0
 15 22  1  0
 22 23  1  6
 22 24  1  0
 24 25  1  0
 22 26  1  0
 26 27  1  1
 26 28  1  0
 28 29  1  0
  3 30  1  0
 30 31  1  0
 30 32  1  0
 30 33  1  0
 26  5  1  0
M  END
>  <UniqueID>  (263) 
262

>  <SMILES>  (263) 
CO[C@H]1O[C@H](CO)[C@@H](O)[C@H](O)[C@H]1/N=C(/C)O

>  <Energy>  (263) 
30.39028444245364

>  <Genealogy>  (263) 
CO[C@H]1O[C@H](CO)[C@@H](O)[C@H](O)[C@H]1N=C(C)O (tautomer)
CO[C@H]1O[C@H](CO)[C@@H](O)[C@H](O)[C@H]1/N=C(/C)O (cis-trans isomerization)
CO[C@H]1O[C@H](CO)[C@@H](O)[C@H](O)[C@H]1/N=C(/C)O (3D coordinates assigned)
CO[C@H]1O[C@H](CO)[C@@H](O)[C@H](O)[C@H]1/N=C(/C)O (nonaromatic ring conformer: 30.39028444245364 kcal/mol)

$$$$
96523
     RDKit          3D

 33 33  0  0  0  0  0  0  0  0999 V2000
   -5.0768   -0.6286    2.6191 H   0  0  0  0  0  0  0  0  0  0  0  0
   -4.0737   -0.7530    2.5534 O   0  0  0  0  0  0  0  0  0  0  0  0
   -3.3588   -0.3508    1.4279 C   0  0  0  0  0  0  0  0  0  0  0  0
   -2.0726   -0.5549    1.4086 N   0  0  0  0  0  0  0  0  0  0  0  0
   -1.1392   -0.1914    0.3367 C   0  0  1  0  0  0  0  0  0  0  0  0
   -1.6409   -0.2577   -0.6547 H   0  0  0  0  0  0  0  0  0  0  0  0
   -0.6198    1.2471    0.5429 C   0  0  1  0  0  0  0  0  0  0  0  0
   -1.4959    1.9204    0.4081 H   0  0  0  0  0  0  0  0  0  0  0  0
   -0.0823    1.3948    1.8491 O   0  0  0  0  0  0  0  0  0  0  0  0
    0.0522    2.7628    2.1667 C   0  0  0  0  0  0  0  0  0  0  0  0
    0.5305    2.8479    3.1639 H   0  0  0  0  0  0  0  0  0  0  0  0
   -0.9422    3.2573    2.2279 H   0  0  0  0  0  0  0  0  0  0  0  0
    0.7049    3.2898    1.4360 H   0  0  0  0  0  0  0  0  0  0  0  0
    0.3334    1.5832   -0.4566 O   0  0  0  0  0  0  0  0  0  0  0  0
    1.4842    0.7538   -0.3912 C   0  0  2  0  0  0  0  0  0  0  0  0
    1.9633    0.8346    0.6122 H   0  0  0  0  0  0  0  0  0  0  0  0
    2.4985    1.2786   -1.4172 C   0  0  0  0  0  0  0  0  0  0  0  0
    2.1399    1.0687   -2.4503 H   0  0  0  0  0  0  0  0  0  0  0  0
    2.5938    2.3815   -1.2981 H   0  0  0  0  0  0  0  0  0  0  0  0
    3.7532    0.6896   -1.2123 O   0  0  0  0  0  0  0  0  0  0  0  0
    4.3483    1.0568   -1.9165 H   0  0  0  0  0  0  0  0  0  0  0  0
    1.1059   -0.7217   -0.6710 C   0  0  1  0  0  0  0  0  0  0  0  0
    0.6755   -0.8002   -1.6997 H   0  0  0  0  0  0  0  0  0  0  0  0
    2.2353   -1.5484   -0.5371 O   0  0  0  0  0  0  0  0  0  0  0  0
    2.5791   -1.7274   -1.4510 H   0  0  0  0  0  0  0  0  0  0  0  0
    0.0356   -1.1794    0.3332 C   0  0  2  0  0  0  0  0  0  0  0  0
    0.4808   -1.2093    1.3574 H   0  0  0  0  0  0  0  0  0  0  0  0
   -0.4365   -2.4552   -0.0181 O   0  0  0  0  0  0  0  0  0  0  0  0
    0.2343   -3.1111    0.3067 H   0  0  0  0  0  0  0  0  0  0  0  0
   -4.0926    0.2744    0.2720 C   0  0  0  0  0  0  0  0  0  0  0  0
   -5.1673    0.4028    0.5171 H   0  0  0  0  0  0  0  0  0  0  0  0
   -4.0187   -0.3806   -0.6209 H   0  0  0  0  0  0  0  0  0  0  0  0
   -3.6759    1.2742    0.0390 H   0  0  0  0  0  0  0  0  0  0  0  0
  1  2  1  0
  2  3  1  0
  3  4  2  0
  4  5  1  0
  5  6  1  6
  5  7  1  0
  7  8  1  1
  7  9  1  0
  9 10  1  0
 10 11  1  0
 10 12  1  0
 10 13  1  0
  7 14  1  0
 14 15  1  0
 15 16  1  1
 15 17  1  0
 17 18  1  0
 17 19  1  0
 17 20  1  0
 20 21  1  0
 15 22  1  0
 22 23  1  6
 22 24  1  0
 24 25  1  0
 22 26  1  0
 26 27  1  1
 26 28  1  0
 28 29  1  0
  3 30  1  0
 30 31  1  0
 30 32  1  0
 30 33  1  0
 26  5  1  0
M  END
>  <UniqueID>  (264) 
263

>  <SMILES>  (264) 
CO[C@H]1O[C@H](CO)[C@@H](O)[C@H](O)[C@H]1/N=C(\C)O

>  <Energy>  (264) 
32.04337113203077

>  <Genealogy>  (264) 
CO[C@H]1O[C@H](CO)[C@@H](O)[C@H](O)[C@H]1N=C(C)O (tautomer)
CO[C@H]1O[C@H](CO)[C@@H](O)[C@H](O)[C@H]1/N=C(\C)O (cis-trans isomerization)
CO[C@H]1O[C@H](CO)[C@@H](O)[C@H](O)[C@H]1/N=C(\C)O (3D coordinates assigned)
CO[C@H]1O[C@H](CO)[C@@H](O)[C@H](O)[C@H]1/N=C(\C)O (nonaromatic ring conformer: 32.04337113203077 kcal/mol)

$$$$
96523
     RDKit          3D

 33 33  0  0  0  0  0  0  0  0999 V2000
    2.6272   -0.5071   -0.2737 C   0  0  0  0  0  0  0  0  0  0  0  0
    1.3042   -0.1841   -0.6451 O   0  0  0  0  0  0  0  0  0  0  0  0
    0.8657    1.0014   -0.0001 C   0  0  1  0  0  0  0  0  0  0  0  0
    0.0425    1.7073   -0.9147 O   0  0  0  0  0  0  0  0  0  0  0  0
   -0.4302    2.9457   -0.3976 C   0  0  2  0  0  0  0  0  0  0  0  0
    0.6701    4.0282   -0.3321 C   0  0  0  0  0  0  0  0  0  0  0  0
    1.3871    4.0733   -1.5362 O   0  0  0  0  0  0  0  0  0  0  0  0
   -1.2216    2.7821    0.9284 C   0  0  1  0  0  0  0  0  0  0  0  0
   -2.4762    2.2077    0.6585 O   0  0  0  0  0  0  0  0  0  0  0  0
   -0.4784    1.8965    1.9448 C   0  0  2  0  0  0  0  0  0  0  0  0
    0.5710    2.6252    2.5294 O   0  0  0  0  0  0  0  0  0  0  0  0
    0.0687    0.6227    1.2690 C   0  0  1  0  0  0  0  0  0  0  0  0
   -1.0273   -0.2998    0.9426 N   0  0  0  0  0  0  0  0  0  0  0  0
   -1.6830   -1.0956    1.9395 C   0  0  0  0  0  0  0  0  0  0  0  0
   -2.8126   -1.9926    1.5515 C   0  0  0  0  0  0  0  0  0  0  0  0
   -1.2939   -1.0670    3.1386 O   0  0  0  0  0  0  0  0  0  0  0  0
    3.3414    0.2492   -0.6673 H   0  0  0  0  0  0  0  0  0  0  0  0
    2.7316   -0.6019    0.8293 H   0  0  0  0  0  0  0  0  0  0  0  0
    2.8918   -1.4864   -0.7223 H   0  0  0  0  0  0  0  0  0  0  0  0
    1.7292    1.6468    0.2904 H   0  0  0  0  0  0  0  0  0  0  0  0
   -1.1580    3.3305   -1.1457 H   0  0  0  0  0  0  0  0  0  0  0  0
    0.2073    5.0211   -0.1285 H   0  0  0  0  0  0  0  0  0  0  0  0
    1.3827    3.8382    0.4932 H   0  0  0  0  0  0  0  0  0  0  0  0
    0.7980    4.5155   -2.2018 H   0  0  0  0  0  0  0  0  0  0  0  0
   -1.3790    3.7847    1.3933 H   0  0  0  0  0  0  0  0  0  0  0  0
   -3.0550    2.9294    0.2976 H   0  0  0  0  0  0  0  0  0  0  0  0
   -1.2000    1.6135    2.7469 H   0  0  0  0  0  0  0  0  0  0  0  0
    0.8399    2.1365    3.3509 H   0  0  0  0  0  0  0  0  0  0  0  0
    0.7620    0.1124    1.9733 H   0  0  0  0  0  0  0  0  0  0  0  0
   -1.3344   -0.4076   -0.0512 H   0  0  0  0  0  0  0  0  0  0  0  0
   -2.4201   -2.8468    0.9616 H   0  0  0  0  0  0  0  0  0  0  0  0
   -3.5438   -1.4281    0.9359 H   0  0  0  0  0  0  0  0  0  0  0  0
   -3.3301   -2.3816    2.4541 H   0  0  0  0  0  0  0  0  0  0  0  0
  1  2  1  0
  2  3  1  0
  3  4  1  0
  4  5  1  0
  5  6  1  0
  6  7  1  0
  5  8  1  0
  8  9  1  0
  8 10  1  0
 10 11  1  0
 10 12  1  0
 12 13  1  0
 13 14  1  0
 14 15  1  0
 14 16  2  0
 12  3  1  0
  1 17  1  0
  1 18  1  0
  1 19  1  0
  3 20  1  1
  5 21  1  6
  6 22  1  0
  6 23  1  0
  7 24  1  0
  8 25  1  1
  9 26  1  0
 10 27  1  1
 11 28  1  0
 12 29  1  1
 13 30  1  0
 15 31  1  0
 15 32  1  0
 15 33  1  0
M  END
>  <UniqueID>  (265) 
264

>  <SMILES>  (265) 
CO[C@H]1O[C@H](CO)[C@@H](O)[C@H](O)[C@H]1NC(C)=O

>  <Energy>  (265) 
34.572492335151296

>  <Genealogy>  (265) 
CO[C@H]1O[C@H](CO)[C@@H](O)[C@H](O)[C@H]1NC(C)=O (3D coordinates assigned)
CO[C@H]1O[C@H](CO)[C@@H](O)[C@H](O)[C@H]1NC(C)=O (nonaromatic ring conformer: 34.572492335151296 kcal/mol)

$$$$
90220
     RDKit          3D

 42 43  0  0  0  0  0  0  0  0999 V2000
    0.3264   -2.2069   -3.5971 H   0  0  0  0  0  0  0  0  0  0  0  0
    0.3178   -1.3816   -3.0098 O   0  0  0  0  0  0  0  0  0  0  0  0
    1.4553   -0.9826   -2.3085 C   0  0  0  0  0  0  0  0  0  0  0  0
    1.4395    0.0901   -1.5753 N   0  0  0  0  0  0  0  0  0  0  0  0
    0.2650    0.9432   -1.3815 C   0  0  1  0  0  0  0  0  0  0  0  0
   -0.2348    1.1158   -2.3620 H   0  0  0  0  0  0  0  0  0  0  0  0
   -0.7448    0.2708   -0.4233 C   0  0  1  0  0  0  0  0  0  0  0  0
   -1.1438   -0.6290   -0.9382 H   0  0  0  0  0  0  0  0  0  0  0  0
   -0.0932   -0.1523    0.7798 O   0  0  0  0  0  0  0  0  0  0  0  0
   -0.6988   -0.8946    1.8052 C   0  0  0  0  0  0  0  0  0  0  0  0
   -2.0262   -1.3548    1.7264 C   0  0  0  0  0  0  0  0  0  0  0  0
   -2.6370   -1.1568    0.8569 H   0  0  0  0  0  0  0  0  0  0  0  0
   -2.5836   -2.0844    2.7806 C   0  0  0  0  0  0  0  0  0  0  0  0
   -3.6074   -2.4255    2.6951 H   0  0  0  0  0  0  0  0  0  0  0  0
   -1.8268   -2.3703    3.9312 C   0  0  0  0  0  0  0  0  0  0  0  0
   -2.3973   -3.1208    5.0189 N   0  0  0  0  0  4  0  0  0  0  0  0
   -3.5752   -3.5310    4.9610 O   0  0  0  0  0  0  0  0  0  0  0  0
   -1.6533   -3.3988    6.1427 O   0  0  0  0  0  1  0  0  0  0  0  0
   -0.5006   -1.9111    4.0025 C   0  0  0  0  0  0  0  0  0  0  0  0
    0.1084   -2.1148    4.8736 H   0  0  0  0  0  0  0  0  0  0  0  0
    0.0547   -1.1814    2.9477 C   0  0  0  0  0  0  0  0  0  0  0  0
    1.0774   -0.8333    3.0198 H   0  0  0  0  0  0  0  0  0  0  0  0
   -1.8416    1.1306   -0.1430 O   0  0  0  0  0  0  0  0  0  0  0  0
   -1.4193    2.3187    0.5093 C   0  0  2  0  0  0  0  0  0  0  0  0
   -0.8548    2.0799    1.4404 H   0  0  0  0  0  0  0  0  0  0  0  0
   -2.6578    3.1135    0.9458 C   0  0  0  0  0  0  0  0  0  0  0  0
   -2.3543    4.0807    1.4082 H   0  0  0  0  0  0  0  0  0  0  0  0
   -3.2914    3.3413    0.0625 H   0  0  0  0  0  0  0  0  0  0  0  0
   -3.4223    2.3654    1.8528 O   0  0  0  0  0  0  0  0  0  0  0  0
   -2.9454    2.3985    2.7230 H   0  0  0  0  0  0  0  0  0  0  0  0
   -0.5111    3.1550   -0.4194 C   0  0  2  0  0  0  0  0  0  0  0  0
   -0.1438    4.0544    0.1311 H   0  0  0  0  0  0  0  0  0  0  0  0
   -1.2151    3.5360   -1.5769 O   0  0  0  0  0  0  0  0  0  0  0  0
   -1.5988    4.4349   -1.4032 H   0  0  0  0  0  0  0  0  0  0  0  0
    0.7110    2.3034   -0.8079 C   0  0  2  0  0  0  0  0  0  0  0  0
    1.3035    2.1157    0.1159 H   0  0  0  0  0  0  0  0  0  0  0  0
    1.5464    2.9938   -1.7054 O   0  0  0  0  0  0  0  0  0  0  0  0
    1.0631    3.0851   -2.5676 H   0  0  0  0  0  0  0  0  0  0  0  0
    2.7189   -1.7713   -2.4307 C   0  0  0  0  0  0  0  0  0  0  0  0
    3.3943   -1.5650   -1.5730 H   0  0  0  0  0  0  0  0  0  0  0  0
    2.4855   -2.8564   -2.4440 H   0  0  0  0  0  0  0  0  0  0  0  0
    3.2344   -1.4975   -3.3745 H   0  0  0  0  0  0  0  0  0  0  0  0
  1  2  1  0
  2  3  1  0
  3  4  2  0
  4  5  1  0
  5  6  1  6
  5  7  1  0
  7  8  1  6
  7  9  1  0
  9 10  1  0
 10 11  2  0
 11 12  1  0
 11 13  1  0
 13 14  1  0
 13 15  2  0
 15 16  1  0
 16 17  2  0
 16 18  1  0
 15 19  1  0
 19 20  1  0
 19 21  2  0
 21 22  1  0
  7 23  1  0
 23 24  1  0
 24 25  1  1
 24 26  1  0
 26 27  1  0
 26 28  1  0
 26 29  1  0
 29 30  1  0
 24 31  1  0
 31 32  1  1
 31 33  1  0
 33 34  1  0
 31 35  1  0
 35 36  1  1
 35 37  1  0
 37 38  1  0
  3 39  1  0
 39 40  1  0
 39 41  1  0
 39 42  1  0
 35  5  1  0
 21 10  1  0
M  CHG  2  16   1  18  -1
M  END
>  <UniqueID>  (266) 
265

>  <SMILES>  (266) 
C/C(O)=N\[C@H]1[C@@H](Oc2ccc([N+](=O)[O-])cc2)O[C@H](CO)[C@H](O)[C@@H]1O

>  <Energy>  (266) 
40.8277981138933

>  <Genealogy>  (266) 
CC(O)=N[C@H]1[C@@H](Oc2ccc([N+](=O)[O-])cc2)O[C@H](CO)[C@H](O)[C@@H]1O (tautomer)
C/C(O)=N\[C@H]1[C@@H](Oc2ccc([N+](=O)[O-])cc2)O[C@H](CO)[C@H](O)[C@@H]1O (cis-trans isomerization)
C/C(O)=N\[C@H]1[C@@H](Oc2ccc([N+](=O)[O-])cc2)O[C@H](CO)[C@H](O)[C@@H]1O (3D coordinates assigned)
C/C(O)=N\[C@H]1[C@@H](Oc2ccc([N+](=O)[O-])cc2)O[C@H](CO)[C@H](O)[C@@H]1O (nonaromatic ring conformer: 40.8277981138933 kcal/mol)

$$$$
90220
     RDKit          3D

 42 43  0  0  0  0  0  0  0  0999 V2000
   -3.8580   -1.2173   -0.4677 H   0  0  0  0  0  0  0  0  0  0  0  0
   -3.0841   -0.5926   -0.6591 O   0  0  0  0  0  0  0  0  0  0  0  0
   -1.8612   -1.0789   -1.1206 C   0  0  0  0  0  0  0  0  0  0  0  0
   -0.8784   -0.2675   -1.3730 N   0  0  0  0  0  0  0  0  0  0  0  0
   -0.9335    1.1827   -1.1795 C   0  0  1  0  0  0  0  0  0  0  0  0
   -1.9272    1.5614   -1.5119 H   0  0  0  0  0  0  0  0  0  0  0  0
   -0.7310    1.5573    0.3117 C   0  0  1  0  0  0  0  0  0  0  0  0
   -1.5972    1.1802    0.8884 H   0  0  0  0  0  0  0  0  0  0  0  0
    0.4872    1.0070    0.8369 O   0  0  0  0  0  0  0  0  0  0  0  0
    0.6876   -0.3100    1.2819 C   0  0  0  0  0  0  0  0  0  0  0  0
   -0.3598   -1.1371    1.7286 C   0  0  0  0  0  0  0  0  0  0  0  0
   -1.3796   -0.7871    1.7692 H   0  0  0  0  0  0  0  0  0  0  0  0
   -0.0979   -2.4459    2.1442 C   0  0  0  0  0  0  0  0  0  0  0  0
   -0.9237   -3.0628    2.4744 H   0  0  0  0  0  0  0  0  0  0  0  0
    1.2134   -2.9498    2.1368 C   0  0  0  0  0  0  0  0  0  0  0  0
    1.4780   -4.2992    2.5621 N   0  0  0  0  0  4  0  0  0  0  0  0
    2.6421   -4.7507    2.5611 O   0  0  0  0  0  0  0  0  0  0  0  0
    0.4504   -5.1166    2.9742 O   0  0  0  0  0  1  0  0  0  0  0  0
    2.2597   -2.1121    1.7123 C   0  0  0  0  0  0  0  0  0  0  0  0
    3.2820   -2.4677    1.7004 H   0  0  0  0  0  0  0  0  0  0  0  0
    1.9956   -0.8048    1.2951 C   0  0  0  0  0  0  0  0  0  0  0  0
    2.8125   -0.1750    0.9658 H   0  0  0  0  0  0  0  0  0  0  0  0
   -0.7380    2.9678    0.4772 O   0  0  0  0  0  0  0  0  0  0  0  0
    0.3318    3.5834   -0.2266 C   0  0  2  0  0  0  0  0  0  0  0  0
    1.3128    3.1677    0.1017 H   0  0  0  0  0  0  0  0  0  0  0  0
    0.3590    5.0769    0.1169 C   0  0  0  0  0  0  0  0  0  0  0  0
    1.1664    5.5785   -0.4630 H   0  0  0  0  0  0  0  0  0  0  0  0
   -0.6164    5.5449   -0.1458 H   0  0  0  0  0  0  0  0  0  0  0  0
    0.6011    5.2400    1.4870 O   0  0  0  0  0  0  0  0  0  0  0  0
    0.6085    6.2188    1.6509 H   0  0  0  0  0  0  0  0  0  0  0  0
    0.1823    3.3683   -1.7482 C   0  0  2  0  0  0  0  0  0  0  0  0
    1.0686    3.8138   -2.2598 H   0  0  0  0  0  0  0  0  0  0  0  0
   -0.9995    3.9823   -2.2025 O   0  0  0  0  0  0  0  0  0  0  0  0
   -0.8733    4.1753   -3.1680 H   0  0  0  0  0  0  0  0  0  0  0  0
    0.1464    1.8591   -2.0430 C   0  0  2  0  0  0  0  0  0  0  0  0
    1.1463    1.4321   -1.7867 H   0  0  0  0  0  0  0  0  0  0  0  0
   -0.1186    1.6532   -3.4075 O   0  0  0  0  0  0  0  0  0  0  0  0
    0.2083    0.7431   -3.6323 H   0  0  0  0  0  0  0  0  0  0  0  0
   -1.6813   -2.5447   -1.3501 C   0  0  0  0  0  0  0  0  0  0  0  0
   -2.1881   -3.1160   -0.5446 H   0  0  0  0  0  0  0  0  0  0  0  0
   -0.6027   -2.8117   -1.3456 H   0  0  0  0  0  0  0  0  0  0  0  0
   -2.1229   -2.8221   -2.3295 H   0  0  0  0  0  0  0  0  0  0  0  0
  1  2  1  0
  2  3  1  0
  3  4  2  0
  4  5  1  0
  5  6  1  6
  5  7  1  0
  7  8  1  1
  7  9  1  0
  9 10  1  0
 10 11  2  0
 11 12  1  0
 11 13  1  0
 13 14  1  0
 13 15  2  0
 15 16  1  0
 16 17  2  0
 16 18  1  0
 15 19  1  0
 19 20  1  0
 19 21  2  0
 21 22  1  0
  7 23  1  0
 23 24  1  0
 24 25  1  1
 24 26  1  0
 26 27  1  0
 26 28  1  0
 26 29  1  0
 29 30  1  0
 24 31  1  0
 31 32  1  6
 31 33  1  0
 33 34  1  0
 31 35  1  0
 35 36  1  1
 35 37  1  0
 37 38  1  0
  3 39  1  0
 39 40  1  0
 39 41  1  0
 39 42  1  0
 35  5  1  0
 21 10  1  0
M  CHG  2  16   1  18  -1
M  END
>  <UniqueID>  (267) 
266

>  <SMILES>  (267) 
C/C(O)=N/[C@H]1[C@@H](Oc2ccc([N+](=O)[O-])cc2)O[C@H](CO)[C@H](O)[C@@H]1O

>  <Energy>  (267) 
42.006368287484946

>  <Genealogy>  (267) 
CC(O)=N[C@H]1[C@@H](Oc2ccc([N+](=O)[O-])cc2)O[C@H](CO)[C@H](O)[C@@H]1O (tautomer)
C/C(O)=N/[C@H]1[C@@H](Oc2ccc([N+](=O)[O-])cc2)O[C@H](CO)[C@H](O)[C@@H]1O (cis-trans isomerization)
C/C(O)=N/[C@H]1[C@@H](Oc2ccc([N+](=O)[O-])cc2)O[C@H](CO)[C@H](O)[C@@H]1O (3D coordinates assigned)
C/C(O)=N/[C@H]1[C@@H](Oc2ccc([N+](=O)[O-])cc2)O[C@H](CO)[C@H](O)[C@@H]1O (nonaromatic ring conformer: 42.006368287484946 kcal/mol)

$$$$
90220
     RDKit          3D

 42 43  0  0  0  0  0  0  0  0999 V2000
    2.2260   -1.3109   -2.9822 H   0  0  0  0  0  0  0  0  0  0  0  0
    1.5450   -0.8067   -2.4273 O   0  0  0  0  0  0  0  0  0  0  0  0
    1.1747   -1.2538   -1.1594 C   0  0  0  0  0  0  0  0  0  0  0  0
    0.3123   -0.5928   -0.4475 N   0  0  0  0  0  0  0  0  0  0  0  0
   -0.3460    0.6472   -0.8615 C   0  0  1  0  0  0  0  0  0  0  0  0
   -0.5413    0.6186   -1.9580 H   0  0  0  0  0  0  0  0  0  0  0  0
   -1.7175    0.7790   -0.1541 C   0  0  1  0  0  0  0  0  0  0  0  0
   -2.3856   -0.0212   -0.5320 H   0  0  0  0  0  0  0  0  0  0  0  0
   -1.6007    0.6718    1.2729 O   0  0  0  0  0  0  0  0  0  0  0  0
   -1.5004   -0.5131    2.0229 C   0  0  0  0  0  0  0  0  0  0  0  0
   -1.2073   -0.3992    3.3859 C   0  0  0  0  0  0  0  0  0  0  0  0
   -1.0655    0.5801    3.8256 H   0  0  0  0  0  0  0  0  0  0  0  0
   -1.0872   -1.5369    4.1886 C   0  0  0  0  0  0  0  0  0  0  0  0
   -0.8552   -1.4127    5.2384 H   0  0  0  0  0  0  0  0  0  0  0  0
   -1.2631   -2.8179    3.6399 C   0  0  0  0  0  0  0  0  0  0  0  0
   -1.1354   -3.9889    4.4671 N   0  0  0  0  0  4  0  0  0  0  0  0
   -1.2895   -5.1299    3.9841 O   0  0  0  0  0  0  0  0  0  0  0  0
   -0.8396   -3.8704    5.8059 O   0  0  0  0  0  1  0  0  0  0  0  0
   -1.5663   -2.9342    2.2719 C   0  0  0  0  0  0  0  0  0  0  0  0
   -1.7091   -3.9075    1.8199 H   0  0  0  0  0  0  0  0  0  0  0  0
   -1.6885   -1.7952    1.4706 C   0  0  0  0  0  0  0  0  0  0  0  0
   -1.9224   -1.9337    0.4259 H   0  0  0  0  0  0  0  0  0  0  0  0
   -2.3465    2.0039   -0.5010 O   0  0  0  0  0  0  0  0  0  0  0  0
   -1.5834    3.1229   -0.0744 C   0  0  2  0  0  0  0  0  0  0  0  0
   -1.3964    3.0800    1.0238 H   0  0  0  0  0  0  0  0  0  0  0  0
   -2.3914    4.4045   -0.3250 C   0  0  0  0  0  0  0  0  0  0  0  0
   -1.7683    5.2903   -0.0767 H   0  0  0  0  0  0  0  0  0  0  0  0
   -2.6833    4.4830   -1.3974 H   0  0  0  0  0  0  0  0  0  0  0  0
   -3.5316    4.4298    0.4911 O   0  0  0  0  0  0  0  0  0  0  0  0
   -4.2071    3.8458    0.0572 H   0  0  0  0  0  0  0  0  0  0  0  0
   -0.2245    3.1668   -0.8078 C   0  0  2  0  0  0  0  0  0  0  0  0
    0.3827    4.0144   -0.4080 H   0  0  0  0  0  0  0  0  0  0  0  0
   -0.4178    3.3098   -2.1944 O   0  0  0  0  0  0  0  0  0  0  0  0
   -0.3932    4.2818   -2.3945 H   0  0  0  0  0  0  0  0  0  0  0  0
    0.5414    1.8626   -0.5290 C   0  0  2  0  0  0  0  0  0  0  0  0
    0.8046    1.8210    0.5553 H   0  0  0  0  0  0  0  0  0  0  0  0
    1.7167    1.8230   -1.2965 O   0  0  0  0  0  0  0  0  0  0  0  0
    2.3571    2.4521   -0.8724 H   0  0  0  0  0  0  0  0  0  0  0  0
    1.7881   -2.4968   -0.6007 C   0  0  0  0  0  0  0  0  0  0  0  0
    1.8246   -3.2818   -1.3845 H   0  0  0  0  0  0  0  0  0  0  0  0
    1.1931   -2.8786    0.2569 H   0  0  0  0  0  0  0  0  0  0  0  0
    2.8198   -2.2758   -0.2570 H   0  0  0  0  0  0  0  0  0  0  0  0
  1  2  1  0
  2  3  1  0
  3  4  2  0
  4  5  1  0
  5  6  1  6
  5  7  1  0
  7  8  1  6
  7  9  1  0
  9 10  1  0
 10 11  2  0
 11 12  1  0
 11 13  1  0
 13 14  1  0
 13 15  2  0
 15 16  1  0
 16 17  2  0
 16 18  1  0
 15 19  1  0
 19 20  1  0
 19 21  2  0
 21 22  1  0
  7 23  1  0
 23 24  1  0
 24 25  1  1
 24 26  1  0
 26 27  1  0
 26 28  1  0
 26 29  1  0
 29 30  1  0
 24 31  1  0
 31 32  1  1
 31 33  1  0
 33 34  1  0
 31 35  1  0
 35 36  1  1
 35 37  1  0
 37 38  1  0
  3 39  1  0
 39 40  1  0
 39 41  1  0
 39 42  1  0
 35  5  1  0
 21 10  1  0
M  CHG  2  16   1  18  -1
M  END
>  <UniqueID>  (268) 
267

>  <SMILES>  (268) 
C/C(O)=N\[C@H]1[C@@H](Oc2ccc([N+](=O)[O-])cc2)O[C@H](CO)[C@H](O)[C@@H]1O

>  <Energy>  (268) 
43.0574442712791

>  <Genealogy>  (268) 
CC(O)=N[C@H]1[C@@H](Oc2ccc([N+](=O)[O-])cc2)O[C@H](CO)[C@H](O)[C@@H]1O (tautomer)
C/C(O)=N\[C@H]1[C@@H](Oc2ccc([N+](=O)[O-])cc2)O[C@H](CO)[C@H](O)[C@@H]1O (cis-trans isomerization)
C/C(O)=N\[C@H]1[C@@H](Oc2ccc([N+](=O)[O-])cc2)O[C@H](CO)[C@H](O)[C@@H]1O (3D coordinates assigned)
C/C(O)=N\[C@H]1[C@@H](Oc2ccc([N+](=O)[O-])cc2)O[C@H](CO)[C@H](O)[C@@H]1O (nonaromatic ring conformer: 43.0574442712791 kcal/mol)

$$$$
84265
     RDKit          3D

 30 30  0  0  0  0  0  0  0  0999 V2000
    1.2497    0.4258   -3.4830 C   0  0  0  0  0  0  0  0  0  0  0  0
    0.3546   -0.3501   -2.5729 C   0  0  0  0  0  0  0  0  0  0  0  0
   -0.2854   -1.3384   -3.0238 O   0  0  0  0  0  0  0  0  0  0  0  0
    0.1979    0.0566   -1.2064 N   0  0  0  0  0  0  0  0  0  0  0  0
   -0.6476   -0.6798   -0.2588 C   0  0  1  0  0  0  0  0  0  0  0  0
    0.0488   -1.9869    0.1825 C   0  0  1  0  0  0  0  0  0  0  0  0
    1.3457   -1.7262    0.6601 O   0  0  0  0  0  0  0  0  0  0  0  0
   -0.7231   -2.6887    1.1483 O   0  0  0  0  0  0  0  0  0  0  0  0
   -0.9109   -1.9184    2.3264 C   0  0  2  0  0  0  0  0  0  0  0  0
   -1.6150   -2.7821    3.3788 C   0  0  0  0  0  0  0  0  0  0  0  0
   -0.8055   -3.8774    3.7064 O   0  0  0  0  0  0  0  0  0  0  0  0
   -1.7265   -0.6436    2.0222 C   0  0  2  0  0  0  0  0  0  0  0  0
   -3.0029   -0.9951    1.5465 O   0  0  0  0  0  0  0  0  0  0  0  0
   -0.9746    0.1916    0.9688 C   0  0  2  0  0  0  0  0  0  0  0  0
   -1.7494    1.2932    0.5706 O   0  0  0  0  0  0  0  0  0  0  0  0
    2.2235    0.6104   -2.9832 H   0  0  0  0  0  0  0  0  0  0  0  0
    0.7741    1.3982   -3.7279 H   0  0  0  0  0  0  0  0  0  0  0  0
    1.4321   -0.1367   -4.4233 H   0  0  0  0  0  0  0  0  0  0  0  0
    0.6875    0.9258   -0.8927 H   0  0  0  0  0  0  0  0  0  0  0  0
   -1.6071   -0.9414   -0.7601 H   0  0  0  0  0  0  0  0  0  0  0  0
    0.1311   -2.6405   -0.7143 H   0  0  0  0  0  0  0  0  0  0  0  0
    1.7688   -2.6103    0.8168 H   0  0  0  0  0  0  0  0  0  0  0  0
    0.0713   -1.6235    2.7643 H   0  0  0  0  0  0  0  0  0  0  0  0
   -2.5891   -3.1460    2.9812 H   0  0  0  0  0  0  0  0  0  0  0  0
   -1.8037   -2.1757    4.2934 H   0  0  0  0  0  0  0  0  0  0  0  0
   -1.3076   -4.3974    4.3865 H   0  0  0  0  0  0  0  0  0  0  0  0
   -1.8164   -0.0459    2.9603 H   0  0  0  0  0  0  0  0  0  0  0  0
   -3.6000   -0.2217    1.7222 H   0  0  0  0  0  0  0  0  0  0  0  0
   -0.0180    0.5536    1.4164 H   0  0  0  0  0  0  0  0  0  0  0  0
   -1.7319    1.9413    1.3225 H   0  0  0  0  0  0  0  0  0  0  0  0
  1  2  1  0
  2  3  2  0
  2  4  1  0
  4  5  1  0
  5  6  1  0
  6  7  1  0
  6  8  1  0
  8  9  1  0
  9 10  1  0
 10 11  1  0
  9 12  1  0
 12 13  1  0
 12 14  1  0
 14 15  1  0
 14  5  1  0
  1 16  1  0
  1 17  1  0
  1 18  1  0
  4 19  1  0
  5 20  1  6
  6 21  1  6
  7 22  1  0
  9 23  1  1
 10 24  1  0
 10 25  1  0
 11 26  1  0
 12 27  1  1
 13 28  1  0
 14 29  1  1
 15 30  1  0
M  END
>  <UniqueID>  (269) 
268

>  <SMILES>  (269) 
CC(=O)N[C@H]1[C@@H](O)O[C@H](CO)[C@H](O)[C@@H]1O

>  <Energy>  (269) 
24.37179873411539

>  <Genealogy>  (269) 
CC(=O)N[C@H]1[C@@H](O)O[C@H](CO)[C@H](O)[C@@H]1O (3D coordinates assigned)
CC(=O)N[C@H]1[C@@H](O)O[C@H](CO)[C@H](O)[C@@H]1O (nonaromatic ring conformer: 24.37179873411539 kcal/mol)

$$$$
84265
     RDKit          3D

 30 30  0  0  0  0  0  0  0  0999 V2000
   -0.7091   -0.8395   -3.3309 C   0  0  0  0  0  0  0  0  0  0  0  0
    0.3387   -0.0646   -2.5911 C   0  0  0  0  0  0  0  0  0  0  0  0
    1.2072    0.5678   -3.2495 O   0  0  0  0  0  0  0  0  0  0  0  0
    0.3704   -0.0060   -1.1558 N   0  0  0  0  0  0  0  0  0  0  0  0
   -0.5033   -0.7990   -0.2823 C   0  0  1  0  0  0  0  0  0  0  0  0
    0.1761   -2.1386    0.0735 C   0  0  1  0  0  0  0  0  0  0  0  0
    1.4681   -1.9268    0.5871 O   0  0  0  0  0  0  0  0  0  0  0  0
   -0.6166   -2.8996    0.9753 O   0  0  0  0  0  0  0  0  0  0  0  0
   -0.8115   -2.2151    2.2041 C   0  0  2  0  0  0  0  0  0  0  0  0
   -1.5239   -3.1597    3.1802 C   0  0  0  0  0  0  0  0  0  0  0  0
   -1.6809   -2.5412    4.4278 O   0  0  0  0  0  0  0  0  0  0  0  0
   -1.6096   -0.9078    1.9812 C   0  0  2  0  0  0  0  0  0  0  0  0
   -2.8850   -1.1934    1.4591 O   0  0  0  0  0  0  0  0  0  0  0  0
   -0.8417   -0.0107    0.9993 C   0  0  2  0  0  0  0  0  0  0  0  0
   -1.6232    1.1146    0.6876 O   0  0  0  0  0  0  0  0  0  0  0  0
   -1.7097   -0.4043   -3.1280 H   0  0  0  0  0  0  0  0  0  0  0  0
   -0.5224   -0.7984   -4.4251 H   0  0  0  0  0  0  0  0  0  0  0  0
   -0.6921   -1.9023   -3.0134 H   0  0  0  0  0  0  0  0  0  0  0  0
    1.1535    0.5293   -0.7155 H   0  0  0  0  0  0  0  0  0  0  0  0
   -1.4609   -1.0205   -0.8016 H   0  0  0  0  0  0  0  0  0  0  0  0
    0.2662   -2.7235   -0.8691 H   0  0  0  0  0  0  0  0  0  0  0  0
    1.8814   -2.8241    0.6829 H   0  0  0  0  0  0  0  0  0  0  0  0
    0.1701   -1.9663    2.6706 H   0  0  0  0  0  0  0  0  0  0  0  0
   -2.5161   -3.4574    2.7733 H   0  0  0  0  0  0  0  0  0  0  0  0
   -0.9097   -4.0801    3.3013 H   0  0  0  0  0  0  0  0  0  0  0  0
   -2.1523   -3.1981    5.0032 H   0  0  0  0  0  0  0  0  0  0  0  0
   -1.6975   -0.3548    2.9471 H   0  0  0  0  0  0  0  0  0  0  0  0
   -3.5084   -1.2587    2.2289 H   0  0  0  0  0  0  0  0  0  0  0  0
    0.1028    0.3148    1.4983 H   0  0  0  0  0  0  0  0  0  0  0  0
   -1.0039    1.8109    0.3455 H   0  0  0  0  0  0  0  0  0  0  0  0
  1  2  1  0
  2  3  2  0
  2  4  1  0
  4  5  1  0
  5  6  1  0
  6  7  1  0
  6  8  1  0
  8  9  1  0
  9 10  1  0
 10 11  1  0
  9 12  1  0
 12 13  1  0
 12 14  1  0
 14 15  1  0
 14  5  1  0
  1 16  1  0
  1 17  1  0
  1 18  1  0
  4 19  1  0
  5 20  1  6
  6 21  1  6
  7 22  1  0
  9 23  1  1
 10 24  1  0
 10 25  1  0
 11 26  1  0
 12 27  1  1
 13 28  1  0
 14 29  1  1
 15 30  1  0
M  END
>  <UniqueID>  (270) 
269

>  <SMILES>  (270) 
CC(=O)N[C@H]1[C@@H](O)O[C@H](CO)[C@H](O)[C@@H]1O

>  <Energy>  (270) 
26.073296034015424

>  <Genealogy>  (270) 
CC(=O)N[C@H]1[C@@H](O)O[C@H](CO)[C@H](O)[C@@H]1O (3D coordinates assigned)
CC(=O)N[C@H]1[C@@H](O)O[C@H](CO)[C@H](O)[C@@H]1O (nonaromatic ring conformer: 26.073296034015424 kcal/mol)

$$$$
84265
     RDKit          3D

 30 30  0  0  0  0  0  0  0  0999 V2000
    4.5289   -1.1447   -0.8196 H   0  0  0  0  0  0  0  0  0  0  0  0
    4.4455   -0.2285   -0.3948 O   0  0  0  0  0  0  0  0  0  0  0  0
    3.2054    0.2804   -0.0195 C   0  0  0  0  0  0  0  0  0  0  0  0
    2.1395   -0.4451   -0.2110 N   0  0  0  0  0  0  0  0  0  0  0  0
    0.7551   -0.0714    0.0984 C   0  0  1  0  0  0  0  0  0  0  0  0
    0.7249    0.5692    1.0075 H   0  0  0  0  0  0  0  0  0  0  0  0
    0.1207    0.7046   -1.0833 C   0  0  1  0  0  0  0  0  0  0  0  0
    0.6396    1.6845   -1.1728 H   0  0  0  0  0  0  0  0  0  0  0  0
    0.2618    0.0041   -2.2970 O   0  0  0  0  0  0  0  0  0  0  0  0
    1.1837    0.1710   -2.6256 H   0  0  0  0  0  0  0  0  0  0  0  0
   -1.2471    0.9966   -0.8349 O   0  0  0  0  0  0  0  0  0  0  0  0
   -2.0145   -0.1877   -0.6730 C   0  0  2  0  0  0  0  0  0  0  0  0
   -1.9152   -0.8395   -1.5719 H   0  0  0  0  0  0  0  0  0  0  0  0
   -3.5064    0.1775   -0.5905 C   0  0  0  0  0  0  0  0  0  0  0  0
   -3.8421    0.5965   -1.5670 H   0  0  0  0  0  0  0  0  0  0  0  0
   -4.1054   -0.7397   -0.4055 H   0  0  0  0  0  0  0  0  0  0  0  0
   -3.7561    1.0955    0.4410 O   0  0  0  0  0  0  0  0  0  0  0  0
   -3.5095    1.9920    0.0933 H   0  0  0  0  0  0  0  0  0  0  0  0
   -1.5467   -0.9861    0.5643 C   0  0  2  0  0  0  0  0  0  0  0  0
   -2.1401   -1.9295    0.6238 H   0  0  0  0  0  0  0  0  0  0  0  0
   -1.7308   -0.2225    1.7310 O   0  0  0  0  0  0  0  0  0  0  0  0
   -1.7929   -0.8613    2.4883 H   0  0  0  0  0  0  0  0  0  0  0  0
   -0.0578   -1.3422    0.3927 C   0  0  2  0  0  0  0  0  0  0  0  0
    0.0496   -2.0421   -0.4705 H   0  0  0  0  0  0  0  0  0  0  0  0
    0.4368   -1.9580    1.5541 O   0  0  0  0  0  0  0  0  0  0  0  0
    0.0576   -2.8754    1.5744 H   0  0  0  0  0  0  0  0  0  0  0  0
    3.1553    1.6402    0.6136 C   0  0  0  0  0  0  0  0  0  0  0  0
    4.1747    2.0789    0.6464 H   0  0  0  0  0  0  0  0  0  0  0  0
    2.7786    1.5615    1.6546 H   0  0  0  0  0  0  0  0  0  0  0  0
    2.5068    2.3211    0.0276 H   0  0  0  0  0  0  0  0  0  0  0  0
  1  2  1  0
  2  3  1  0
  3  4  2  0
  4  5  1  0
  5  6  1  1
  5  7  1  0
  7  8  1  6
  7  9  1  0
  9 10  1  0
  7 11  1  0
 11 12  1  0
 12 13  1  6
 12 14  1  0
 14 15  1  0
 14 16  1  0
 14 17  1  0
 17 18  1  0
 12 19  1  0
 19 20  1  1
 19 21  1  0
 21 22  1  0
 19 23  1  0
 23 24  1  6
 23 25  1  0
 25 26  1  0
  3 27  1  0
 27 28  1  0
 27 29  1  0
 27 30  1  0
 23  5  1  0
M  END
>  <UniqueID>  (271) 
270

>  <SMILES>  (271) 
C/C(O)=N/[C@H]1[C@@H](O)O[C@H](CO)[C@H](O)[C@@H]1O

>  <Energy>  (271) 
28.83387517431936

>  <Genealogy>  (271) 
CC(O)=N[C@H]1[C@@H](O)O[C@H](CO)[C@H](O)[C@@H]1O (tautomer)
C/C(O)=N/[C@H]1[C@@H](O)O[C@H](CO)[C@H](O)[C@@H]1O (cis-trans isomerization)
C/C(O)=N/[C@H]1[C@@H](O)O[C@H](CO)[C@H](O)[C@@H]1O (3D coordinates assigned)
C/C(O)=N/[C@H]1[C@@H](O)O[C@H](CO)[C@H](O)[C@@H]1O (nonaromatic ring conformer: 28.83387517431936 kcal/mol)

$$$$
82398
     RDKit          3D

 42 43  0  0  0  0  0  0  0  0999 V2000
   -2.5677    2.5174    3.6001 C   0  0  0  0  0  0  0  0  0  0  0  0
   -2.6245    1.6228    2.4053 C   0  0  0  0  0  0  0  0  0  0  0  0
   -3.4205    1.8889    1.4644 O   0  0  0  0  0  0  0  0  0  0  0  0
   -1.7863    0.4607    2.3429 N   0  0  0  0  0  0  0  0  0  0  0  0
   -1.7559   -0.4239    1.1722 C   0  0  1  0  0  0  0  0  0  0  0  0
   -0.9326    0.2235    0.0406 C   0  0  1  0  0  0  0  0  0  0  0  0
    0.3698    0.5894    0.5106 O   0  0  0  0  0  0  0  0  0  0  0  0
    1.3240    1.2997   -0.2338 C   0  0  0  0  0  0  0  0  0  0  0  0
    1.0711    1.7767   -1.5332 C   0  0  0  0  0  0  0  0  0  0  0  0
    2.0605    2.4719   -2.2347 C   0  0  0  0  0  0  0  0  0  0  0  0
    3.3180    2.7068   -1.6528 C   0  0  0  0  0  0  0  0  0  0  0  0
    4.3344    3.4226   -2.3784 N   0  0  0  0  0  4  0  0  0  0  0  0
    5.4537    3.6333   -1.8666 O   0  0  0  0  0  0  0  0  0  0  0  0
    4.0885    3.8896   -3.6494 O   0  0  0  0  0  1  0  0  0  0  0  0
    3.5640    2.2313   -0.3524 C   0  0  0  0  0  0  0  0  0  0  0  0
    2.5740    1.5354    0.3469 C   0  0  0  0  0  0  0  0  0  0  0  0
   -0.8547   -0.6337   -1.0880 O   0  0  0  0  0  0  0  0  0  0  0  0
   -0.1866   -1.8472   -0.7789 C   0  0  2  0  0  0  0  0  0  0  0  0
   -0.0249   -2.6505   -2.0778 C   0  0  0  0  0  0  0  0  0  0  0  0
    0.6447   -1.8871   -3.0453 O   0  0  0  0  0  0  0  0  0  0  0  0
   -0.9840   -2.6499    0.2749 C   0  0  1  0  0  0  0  0  0  0  0  0
   -0.2947   -3.8271    0.6153 O   0  0  0  0  0  0  0  0  0  0  0  0
   -1.1653   -1.8001    1.5402 C   0  0  2  0  0  0  0  0  0  0  0  0
   -2.0268   -2.4726    2.4232 O   0  0  0  0  0  0  0  0  0  0  0  0
   -2.9056    1.9582    4.4978 H   0  0  0  0  0  0  0  0  0  0  0  0
   -3.2230    3.4035    3.4575 H   0  0  0  0  0  0  0  0  0  0  0  0
   -1.5242    2.8638    3.7556 H   0  0  0  0  0  0  0  0  0  0  0  0
   -1.1657    0.2569    3.1595 H   0  0  0  0  0  0  0  0  0  0  0  0
   -2.7965   -0.5842    0.8086 H   0  0  0  0  0  0  0  0  0  0  0  0
   -1.4644    1.1479   -0.2711 H   0  0  0  0  0  0  0  0  0  0  0  0
    0.1152    1.6175   -2.0119 H   0  0  0  0  0  0  0  0  0  0  0  0
    1.8403    2.8260   -3.2334 H   0  0  0  0  0  0  0  0  0  0  0  0
    4.5219    2.3961    0.1241 H   0  0  0  0  0  0  0  0  0  0  0  0
    2.7806    1.1736    1.3463 H   0  0  0  0  0  0  0  0  0  0  0  0
    0.8392   -1.6469   -0.3917 H   0  0  0  0  0  0  0  0  0  0  0  0
    0.5358   -3.5939   -1.8892 H   0  0  0  0  0  0  0  0  0  0  0  0
   -1.0261   -2.9220   -2.4759 H   0  0  0  0  0  0  0  0  0  0  0  0
    1.5990   -1.8558   -2.7728 H   0  0  0  0  0  0  0  0  0  0  0  0
   -1.9958   -2.8897   -0.1354 H   0  0  0  0  0  0  0  0  0  0  0  0
   -0.6552   -4.5538    0.0430 H   0  0  0  0  0  0  0  0  0  0  0  0
   -0.1633   -1.6614    2.0144 H   0  0  0  0  0  0  0  0  0  0  0  0
   -1.8314   -2.1332    3.3352 H   0  0  0  0  0  0  0  0  0  0  0  0
  1  2  1  0
  2  3  2  0
  2  4  1  0
  4  5  1  0
  5  6  1  0
  6  7  1  0
  7  8  1  0
  8  9  2  0
  9 10  1  0
 10 11  2  0
 11 12  1  0
 12 13  2  0
 12 14  1  0
 11 15  1  0
 15 16  2  0
  6 17  1  0
 17 18  1  0
 18 19  1  0
 19 20  1  0
 18 21  1  0
 21 22  1  0
 21 23  1  0
 23 24  1  0
 23  5  1  0
 16  8  1  0
  1 25  1  0
  1 26  1  0
  1 27  1  0
  4 28  1  0
  5 29  1  6
  6 30  1  6
  9 31  1  0
 10 32  1  0
 15 33  1  0
 16 34  1  0
 18 35  1  1
 19 36  1  0
 19 37  1  0
 20 38  1  0
 21 39  1  6
 22 40  1  0
 23 41  1  1
 24 42  1  0
M  CHG  2  12   1  14  -1
M  END
>  <UniqueID>  (272) 
271

>  <SMILES>  (272) 
CC(=O)N[C@H]1[C@@H](Oc2ccc([N+](=O)[O-])cc2)O[C@H](CO)[C@@H](O)[C@@H]1O

>  <Energy>  (272) 
39.00161098360572

>  <Genealogy>  (272) 
CC(=O)N[C@H]1[C@@H](Oc2ccc([N+](=O)[O-])cc2)O[C@H](CO)[C@@H](O)[C@@H]1O (3D coordinates assigned)
CC(=O)N[C@H]1[C@@H](Oc2ccc([N+](=O)[O-])cc2)O[C@H](CO)[C@@H](O)[C@@H]1O (nonaromatic ring conformer: 39.00161098360572 kcal/mol)

$$$$
82398
     RDKit          3D

 42 43  0  0  0  0  0  0  0  0999 V2000
   -1.7429    1.6071    3.6699 C   0  0  0  0  0  0  0  0  0  0  0  0
   -1.7553    1.3177    2.2047 C   0  0  0  0  0  0  0  0  0  0  0  0
   -2.4747    2.0140    1.4383 O   0  0  0  0  0  0  0  0  0  0  0  0
   -0.9249    0.2751    1.6753 N   0  0  0  0  0  0  0  0  0  0  0  0
   -0.9094   -0.0696    0.2472 C   0  0  1  0  0  0  0  0  0  0  0  0
    0.3618   -0.8746   -0.1075 C   0  0  1  0  0  0  0  0  0  0  0  0
    1.5231   -0.1412    0.2888 O   0  0  0  0  0  0  0  0  0  0  0  0
    2.0308    1.0070   -0.3425 C   0  0  0  0  0  0  0  0  0  0  0  0
    1.5347    1.4906   -1.5683 C   0  0  0  0  0  0  0  0  0  0  0  0
    2.0811    2.6402   -2.1468 C   0  0  0  0  0  0  0  0  0  0  0  0
    3.1343    3.3268   -1.5170 C   0  0  0  0  0  0  0  0  0  0  0  0
    3.6987    4.5109   -2.1097 N   0  0  0  0  0  4  0  0  0  0  0  0
    3.2620    4.9510   -3.1935 O   0  0  0  0  0  0  0  0  0  0  0  0
    4.7301    5.1793   -1.4904 O   0  0  0  0  0  1  0  0  0  0  0  0
    3.6300    2.8365   -0.2973 C   0  0  0  0  0  0  0  0  0  0  0  0
    3.0827    1.6874    0.2798 C   0  0  0  0  0  0  0  0  0  0  0  0
    0.3780   -2.1163    0.5773 O   0  0  0  0  0  0  0  0  0  0  0  0
   -0.7002   -2.9655    0.2044 C   0  0  2  0  0  0  0  0  0  0  0  0
   -0.5197   -3.5594   -1.2083 C   0  0  0  0  0  0  0  0  0  0  0  0
   -1.3764   -4.6555   -1.3780 O   0  0  0  0  0  0  0  0  0  0  0  0
   -2.0857   -2.3116    0.4464 C   0  0  1  0  0  0  0  0  0  0  0  0
   -2.3298   -2.2773    1.8304 O   0  0  0  0  0  0  0  0  0  0  0  0
   -2.1622   -0.8791   -0.1295 C   0  0  2  0  0  0  0  0  0  0  0  0
   -2.2879   -0.9157   -1.5283 O   0  0  0  0  0  0  0  0  0  0  0  0
   -2.5701    2.2980    3.9386 H   0  0  0  0  0  0  0  0  0  0  0  0
   -1.8678    0.6620    4.2386 H   0  0  0  0  0  0  0  0  0  0  0  0
   -0.7750    2.0748    3.9458 H   0  0  0  0  0  0  0  0  0  0  0  0
   -0.2894   -0.2284    2.3357 H   0  0  0  0  0  0  0  0  0  0  0  0
   -0.9075    0.8723   -0.3426 H   0  0  0  0  0  0  0  0  0  0  0  0
    0.4226   -1.0502   -1.2019 H   0  0  0  0  0  0  0  0  0  0  0  0
    0.7316    0.9897   -2.0889 H   0  0  0  0  0  0  0  0  0  0  0  0
    1.6798    2.9911   -3.0890 H   0  0  0  0  0  0  0  0  0  0  0  0
    4.4410    3.3407    0.2119 H   0  0  0  0  0  0  0  0  0  0  0  0
    3.4765    1.3245    1.2208 H   0  0  0  0  0  0  0  0  0  0  0  0
   -0.6465   -3.8391    0.8918 H   0  0  0  0  0  0  0  0  0  0  0  0
   -0.7283   -2.8072   -1.9966 H   0  0  0  0  0  0  0  0  0  0  0  0
    0.5345   -3.8983   -1.3215 H   0  0  0  0  0  0  0  0  0  0  0  0
   -1.2026   -5.0037   -2.2910 H   0  0  0  0  0  0  0  0  0  0  0  0
   -2.8690   -2.9421   -0.0362 H   0  0  0  0  0  0  0  0  0  0  0  0
   -3.3057   -2.1375    1.9498 H   0  0  0  0  0  0  0  0  0  0  0  0
   -3.0585   -0.3650    0.2897 H   0  0  0  0  0  0  0  0  0  0  0  0
   -3.2160   -1.2069   -1.7277 H   0  0  0  0  0  0  0  0  0  0  0  0
  1  2  1  0
  2  3  2  0
  2  4  1  0
  4  5  1  0
  5  6  1  0
  6  7  1  0
  7  8  1  0
  8  9  2  0
  9 10  1  0
 10 11  2  0
 11 12  1  0
 12 13  2  0
 12 14  1  0
 11 15  1  0
 15 16  2  0
  6 17  1  0
 17 18  1  0
 18 19  1  0
 19 20  1  0
 18 21  1  0
 21 22  1  0
 21 23  1  0
 23 24  1  0
 23  5  1  0
 16  8  1  0
  1 25  1  0
  1 26  1  0
  1 27  1  0
  4 28  1  0
  5 29  1  6
  6 30  1  6
  9 31  1  0
 10 32  1  0
 15 33  1  0
 16 34  1  0
 18 35  1  1
 19 36  1  0
 19 37  1  0
 20 38  1  0
 21 39  1  6
 22 40  1  0
 23 41  1  1
 24 42  1  0
M  CHG  2  12   1  14  -1
M  END
>  <UniqueID>  (273) 
272

>  <SMILES>  (273) 
CC(=O)N[C@H]1[C@@H](Oc2ccc([N+](=O)[O-])cc2)O[C@H](CO)[C@@H](O)[C@@H]1O

>  <Energy>  (273) 
44.63244150517894

>  <Genealogy>  (273) 
CC(=O)N[C@H]1[C@@H](Oc2ccc([N+](=O)[O-])cc2)O[C@H](CO)[C@@H](O)[C@@H]1O (3D coordinates assigned)
CC(=O)N[C@H]1[C@@H](Oc2ccc([N+](=O)[O-])cc2)O[C@H](CO)[C@@H](O)[C@@H]1O (nonaromatic ring conformer: 44.63244150517894 kcal/mol)

$$$$
82398
     RDKit          3D

 42 43  0  0  0  0  0  0  0  0999 V2000
   -0.1039   -3.7925    1.1178 H   0  0  0  0  0  0  0  0  0  0  0  0
   -1.1068   -3.7980    0.9733 O   0  0  0  0  0  0  0  0  0  0  0  0
   -1.7305   -2.8043    0.2243 C   0  0  0  0  0  0  0  0  0  0  0  0
   -1.0029   -1.8653   -0.3123 N   0  0  0  0  0  0  0  0  0  0  0  0
   -1.4835   -0.7338   -1.1110 C   0  0  1  0  0  0  0  0  0  0  0  0
   -2.3953   -1.0228   -1.6794 H   0  0  0  0  0  0  0  0  0  0  0  0
   -1.8244    0.4818   -0.2155 C   0  0  1  0  0  0  0  0  0  0  0  0
   -2.6861    0.2235    0.4284 H   0  0  0  0  0  0  0  0  0  0  0  0
   -0.7098    0.8757    0.5996 O   0  0  0  0  0  0  0  0  0  0  0  0
   -0.2979    0.2822    1.8045 C   0  0  0  0  0  0  0  0  0  0  0  0
   -1.1252   -0.5610    2.5702 C   0  0  0  0  0  0  0  0  0  0  0  0
   -2.1369   -0.7862    2.2710 H   0  0  0  0  0  0  0  0  0  0  0  0
   -0.6508   -1.1283    3.7565 C   0  0  0  0  0  0  0  0  0  0  0  0
   -1.3061   -1.7781    4.3223 H   0  0  0  0  0  0  0  0  0  0  0  0
    0.6527   -0.8568    4.2084 C   0  0  0  0  0  0  0  0  0  0  0  0
    1.1447   -1.4405    5.4286 N   0  0  0  0  0  4  0  0  0  0  0  0
    0.4240   -2.2025    6.1061 O   0  0  0  0  0  0  0  0  0  0  0  0
    2.4203   -1.1699    5.8686 O   0  0  0  0  0  1  0  0  0  0  0  0
    1.4684   -0.0009    3.4499 C   0  0  0  0  0  0  0  0  0  0  0  0
    2.4750    0.2320    3.7722 H   0  0  0  0  0  0  0  0  0  0  0  0
    0.9931    0.5636    2.2632 C   0  0  0  0  0  0  0  0  0  0  0  0
    1.6371    1.2181    1.6893 H   0  0  0  0  0  0  0  0  0  0  0  0
   -2.2540    1.5731   -1.0151 O   0  0  0  0  0  0  0  0  0  0  0  0
   -1.2279    2.0356   -1.8834 C   0  0  2  0  0  0  0  0  0  0  0  0
   -0.3337    2.3482   -1.2959 H   0  0  0  0  0  0  0  0  0  0  0  0
   -1.7511    3.2875   -2.6018 C   0  0  0  0  0  0  0  0  0  0  0  0
   -2.5454    3.0061   -3.3298 H   0  0  0  0  0  0  0  0  0  0  0  0
   -2.1965    3.9759   -1.8487 H   0  0  0  0  0  0  0  0  0  0  0  0
   -0.7056    3.9488   -3.2597 O   0  0  0  0  0  0  0  0  0  0  0  0
   -1.1161    4.7297   -3.7142 H   0  0  0  0  0  0  0  0  0  0  0  0
   -0.8280    0.9303   -2.8926 C   0  0  1  0  0  0  0  0  0  0  0  0
   -1.7155    0.6788   -3.5240 H   0  0  0  0  0  0  0  0  0  0  0  0
    0.2477    1.3594   -3.6895 O   0  0  0  0  0  0  0  0  0  0  0  0
   -0.1300    1.6597   -4.5571 H   0  0  0  0  0  0  0  0  0  0  0  0
   -0.4009   -0.3341   -2.1275 C   0  0  2  0  0  0  0  0  0  0  0  0
    0.5399   -0.1110   -1.5752 H   0  0  0  0  0  0  0  0  0  0  0  0
   -0.1316   -1.3899   -3.0175 O   0  0  0  0  0  0  0  0  0  0  0  0
   -0.9705   -1.5951   -3.5078 H   0  0  0  0  0  0  0  0  0  0  0  0
   -3.2199   -2.8667    0.0551 C   0  0  0  0  0  0  0  0  0  0  0  0
   -3.6905   -1.9195    0.3875 H   0  0  0  0  0  0  0  0  0  0  0  0
   -3.4717   -3.0595   -1.0085 H   0  0  0  0  0  0  0  0  0  0  0  0
   -3.6357   -3.6934    0.6684 H   0  0  0  0  0  0  0  0  0  0  0  0
  1  2  1  0
  2  3  1  0
  3  4  2  0
  4  5  1  0
  5  6  1  6
  5  7  1  0
  7  8  1  1
  7  9  1  0
  9 10  1  0
 10 11  2  0
 11 12  1  0
 11 13  1  0
 13 14  1  0
 13 15  2  0
 15 16  1  0
 16 17  2  0
 16 18  1  0
 15 19  1  0
 19 20  1  0
 19 21  2  0
 21 22  1  0
  7 23  1  0
 23 24  1  0
 24 25  1  1
 24 26  1  0
 26 27  1  0
 26 28  1  0
 26 29  1  0
 29 30  1  0
 24 31  1  0
 31 32  1  6
 31 33  1  0
 33 34  1  0
 31 35  1  0
 35 36  1  1
 35 37  1  0
 37 38  1  0
  3 39  1  0
 39 40  1  0
 39 41  1  0
 39 42  1  0
 35  5  1  0
 21 10  1  0
M  CHG  2  16   1  18  -1
M  END
>  <UniqueID>  (274) 
273

>  <SMILES>  (274) 
C/C(O)=N\[C@H]1[C@@H](Oc2ccc([N+](=O)[O-])cc2)O[C@H](CO)[C@@H](O)[C@@H]1O

>  <Energy>  (274) 
45.29965750368525

>  <Genealogy>  (274) 
CC(O)=N[C@H]1[C@@H](Oc2ccc([N+](=O)[O-])cc2)O[C@H](CO)[C@@H](O)[C@@H]1O (tautomer)
C/C(O)=N\[C@H]1[C@@H](Oc2ccc([N+](=O)[O-])cc2)O[C@H](CO)[C@@H](O)[C@@H]1O (cis-trans isomerization)
C/C(O)=N\[C@H]1[C@@H](Oc2ccc([N+](=O)[O-])cc2)O[C@H](CO)[C@@H](O)[C@@H]1O (3D coordinates assigned)
C/C(O)=N\[C@H]1[C@@H](Oc2ccc([N+](=O)[O-])cc2)O[C@H](CO)[C@@H](O)[C@@H]1O (nonaromatic ring conformer: 45.29965750368525 kcal/mol)

$$$$
82313
     RDKit          3D

 30 30  0  0  0  0  0  0  0  0999 V2000
    1.5118   -4.3599   -1.9983 C   0  0  0  0  0  0  0  0  0  0  0  0
    1.4267   -3.0095   -1.3650 C   0  0  0  0  0  0  0  0  0  0  0  0
    2.2908   -2.6675   -0.5130 O   0  0  0  0  0  0  0  0  0  0  0  0
    0.3464   -2.1285   -1.7048 N   0  0  0  0  0  0  0  0  0  0  0  0
    0.1475   -0.8268   -1.0580 C   0  0  1  0  0  0  0  0  0  0  0  0
   -0.2049    0.2496   -2.1041 C   0  0  1  0  0  0  0  0  0  0  0  0
   -1.3067   -0.1395   -2.8871 O   0  0  0  0  0  0  0  0  0  0  0  0
   -0.4366    1.5054   -1.4818 O   0  0  0  0  0  0  0  0  0  0  0  0
   -1.5483    1.4586   -0.5971 C   0  0  2  0  0  0  0  0  0  0  0  0
   -1.8026    2.8766   -0.0641 C   0  0  0  0  0  0  0  0  0  0  0  0
   -2.0823    3.7533   -1.1228 O   0  0  0  0  0  0  0  0  0  0  0  0
   -1.2811    0.4736    0.5672 C   0  0  1  0  0  0  0  0  0  0  0  0
   -2.4128    0.3795    1.3961 O   0  0  0  0  0  0  0  0  0  0  0  0
   -0.9669   -0.9215   -0.0008 C   0  0  2  0  0  0  0  0  0  0  0  0
   -0.6115   -1.8123    1.0282 O   0  0  0  0  0  0  0  0  0  0  0  0
    1.3771   -4.2681   -3.0963 H   0  0  0  0  0  0  0  0  0  0  0  0
    0.7145   -5.0121   -1.5853 H   0  0  0  0  0  0  0  0  0  0  0  0
    2.5009   -4.8237   -1.7973 H   0  0  0  0  0  0  0  0  0  0  0  0
   -0.3980   -2.4902   -2.3436 H   0  0  0  0  0  0  0  0  0  0  0  0
    1.0882   -0.5000   -0.5602 H   0  0  0  0  0  0  0  0  0  0  0  0
    0.6797    0.3606   -2.7714 H   0  0  0  0  0  0  0  0  0  0  0  0
   -1.3975    0.5443   -3.6008 H   0  0  0  0  0  0  0  0  0  0  0  0
   -2.4701    1.1467   -1.1409 H   0  0  0  0  0  0  0  0  0  0  0  0
   -2.6808    2.8715    0.6153 H   0  0  0  0  0  0  0  0  0  0  0  0
   -0.9236    3.2364    0.5195 H   0  0  0  0  0  0  0  0  0  0  0  0
   -1.2086    4.0378   -1.4988 H   0  0  0  0  0  0  0  0  0  0  0  0
   -0.3941    0.8296    1.1466 H   0  0  0  0  0  0  0  0  0  0  0  0
   -2.2719    1.0008    2.1574 H   0  0  0  0  0  0  0  0  0  0  0  0
   -1.8857   -1.3179   -0.4885 H   0  0  0  0  0  0  0  0  0  0  0  0
    0.2127   -1.4642    1.4592 H   0  0  0  0  0  0  0  0  0  0  0  0
  1  2  1  0
  2  3  2  0
  2  4  1  0
  4  5  1  0
  5  6  1  0
  6  7  1  0
  6  8  1  0
  8  9  1  0
  9 10  1  0
 10 11  1  0
  9 12  1  0
 12 13  1  0
 12 14  1  0
 14 15  1  0
 14  5  1  0
  1 16  1  0
  1 17  1  0
  1 18  1  0
  4 19  1  0
  5 20  1  1
  6 21  1  6
  7 22  1  0
  9 23  1  6
 10 24  1  0
 10 25  1  0
 11 26  1  0
 12 27  1  1
 13 28  1  0
 14 29  1  6
 15 30  1  0
M  END
>  <UniqueID>  (275) 
274

>  <SMILES>  (275) 
CC(=O)N[C@H]1[C@@H](O)O[C@H](CO)[C@@H](O)[C@@H]1O

>  <Energy>  (275) 
26.06256576449316

>  <Genealogy>  (275) 
CC(=O)N[C@H]1[C@@H](O)O[C@H](CO)[C@@H](O)[C@@H]1O (3D coordinates assigned)
CC(=O)N[C@H]1[C@@H](O)O[C@H](CO)[C@@H](O)[C@@H]1O (nonaromatic ring conformer: 26.06256576449316 kcal/mol)

$$$$
82313
     RDKit          3D

 30 30  0  0  0  0  0  0  0  0999 V2000
    0.1025   -4.3030   -1.7313 C   0  0  0  0  0  0  0  0  0  0  0  0
    0.6912   -3.0165   -1.2533 C   0  0  0  0  0  0  0  0  0  0  0  0
    1.7264   -3.0372   -0.5345 O   0  0  0  0  0  0  0  0  0  0  0  0
    0.0574   -1.7738   -1.5757 N   0  0  0  0  0  0  0  0  0  0  0  0
    0.4982   -0.4958   -1.0019 C   0  0  1  0  0  0  0  0  0  0  0  0
   -0.0440    0.6919   -1.8249 C   0  0  1  0  0  0  0  0  0  0  0  0
    0.3495    0.5540   -3.1646 O   0  0  0  0  0  0  0  0  0  0  0  0
   -1.4597    0.7389   -1.7826 O   0  0  0  0  0  0  0  0  0  0  0  0
   -1.9646    0.9460   -0.4696 C   0  0  2  0  0  0  0  0  0  0  0  0
   -1.7564    2.3907    0.0285 C   0  0  0  0  0  0  0  0  0  0  0  0
   -2.2022    3.2963   -0.9442 O   0  0  0  0  0  0  0  0  0  0  0  0
   -1.4917   -0.1367    0.5340 C   0  0  1  0  0  0  0  0  0  0  0  0
   -2.1718   -1.3353    0.2537 O   0  0  0  0  0  0  0  0  0  0  0  0
    0.0313   -0.3723    0.4621 C   0  0  2  0  0  0  0  0  0  0  0  0
    0.7034    0.6839    1.0989 O   0  0  0  0  0  0  0  0  0  0  0  0
   -0.3212   -4.1743   -2.7490 H   0  0  0  0  0  0  0  0  0  0  0  0
   -0.7035   -4.6171   -1.0365 H   0  0  0  0  0  0  0  0  0  0  0  0
    0.8814   -5.0947   -1.7709 H   0  0  0  0  0  0  0  0  0  0  0  0
   -0.7604   -1.7939   -2.2265 H   0  0  0  0  0  0  0  0  0  0  0  0
    1.6099   -0.4539   -1.0346 H   0  0  0  0  0  0  0  0  0  0  0  0
    0.3853    1.6449   -1.4387 H   0  0  0  0  0  0  0  0  0  0  0  0
    1.3212    0.7651   -3.2067 H   0  0  0  0  0  0  0  0  0  0  0  0
   -3.0687    0.8305   -0.5449 H   0  0  0  0  0  0  0  0  0  0  0  0
   -2.3468    2.5394    0.9622 H   0  0  0  0  0  0  0  0  0  0  0  0
   -0.6929    2.5919    0.2711 H   0  0  0  0  0  0  0  0  0  0  0  0
   -1.9864    4.2009   -0.5998 H   0  0  0  0  0  0  0  0  0  0  0  0
   -1.7603    0.1922    1.5653 H   0  0  0  0  0  0  0  0  0  0  0  0
   -2.0803   -1.9137    1.0554 H   0  0  0  0  0  0  0  0  0  0  0  0
    0.2629   -1.3179    1.0086 H   0  0  0  0  0  0  0  0  0  0  0  0
    1.6228    0.3648    1.2914 H   0  0  0  0  0  0  0  0  0  0  0  0
  1  2  1  0
  2  3  2  0
  2  4  1  0
  4  5  1  0
  5  6  1  0
  6  7  1  0
  6  8  1  0
  8  9  1  0
  9 10  1  0
 10 11  1  0
  9 12  1  0
 12 13  1  0
 12 14  1  0
 14 15  1  0
 14  5  1  0
  1 16  1  0
  1 17  1  0
  1 18  1  0
  4 19  1  0
  5 20  1  1
  6 21  1  1
  7 22  1  0
  9 23  1  6
 10 24  1  0
 10 25  1  0
 11 26  1  0
 12 27  1  1
 13 28  1  0
 14 29  1  1
 15 30  1  0
M  END
>  <UniqueID>  (276) 
275

>  <SMILES>  (276) 
CC(=O)N[C@H]1[C@@H](O)O[C@H](CO)[C@@H](O)[C@@H]1O

>  <Energy>  (276) 
28.558957465516485

>  <Genealogy>  (276) 
CC(=O)N[C@H]1[C@@H](O)O[C@H](CO)[C@@H](O)[C@@H]1O (3D coordinates assigned)
CC(=O)N[C@H]1[C@@H](O)O[C@H](CO)[C@@H](O)[C@@H]1O (nonaromatic ring conformer: 28.558957465516485 kcal/mol)

$$$$
82313
     RDKit          3D

 30 30  0  0  0  0  0  0  0  0999 V2000
    0.9613   -4.2483   -2.1907 C   0  0  0  0  0  0  0  0  0  0  0  0
    1.0492   -3.0222   -1.3419 C   0  0  0  0  0  0  0  0  0  0  0  0
    1.7307   -3.0463   -0.2814 O   0  0  0  0  0  0  0  0  0  0  0  0
    0.3400   -1.8360   -1.7246 N   0  0  0  0  0  0  0  0  0  0  0  0
    0.3200   -0.6285   -0.8896 C   0  0  1  0  0  0  0  0  0  0  0  0
    0.0416    0.6296   -1.7478 C   0  0  1  0  0  0  0  0  0  0  0  0
    0.7485    0.5499   -2.9567 O   0  0  0  0  0  0  0  0  0  0  0  0
   -1.3438    0.7467   -2.0188 O   0  0  0  0  0  0  0  0  0  0  0  0
   -2.1131    1.0216   -0.8485 C   0  0  2  0  0  0  0  0  0  0  0  0
   -2.4936    2.5085   -0.7958 C   0  0  0  0  0  0  0  0  0  0  0  0
   -1.3511    3.3107   -0.6808 O   0  0  0  0  0  0  0  0  0  0  0  0
   -1.4852    0.5261    0.4875 C   0  0  1  0  0  0  0  0  0  0  0  0
   -2.5044    0.3319    1.4359 O   0  0  0  0  0  0  0  0  0  0  0  0
   -0.7350   -0.7937    0.2352 C   0  0  2  0  0  0  0  0  0  0  0  0
   -0.0957   -1.2188    1.4125 O   0  0  0  0  0  0  0  0  0  0  0  0
   -0.0641   -4.6681   -2.1279 H   0  0  0  0  0  0  0  0  0  0  0  0
    1.6886   -5.0145   -1.8473 H   0  0  0  0  0  0  0  0  0  0  0  0
    1.1863   -3.9890   -3.2463 H   0  0  0  0  0  0  0  0  0  0  0  0
   -0.2560   -1.8713   -2.5832 H   0  0  0  0  0  0  0  0  0  0  0  0
    1.3289   -0.4836   -0.4401 H   0  0  0  0  0  0  0  0  0  0  0  0
    0.4096    1.5286   -1.1988 H   0  0  0  0  0  0  0  0  0  0  0  0
    0.6049    1.4142   -3.4235 H   0  0  0  0  0  0  0  0  0  0  0  0
   -3.0668    0.4627   -0.9766 H   0  0  0  0  0  0  0  0  0  0  0  0
   -3.0421    2.7744   -1.7271 H   0  0  0  0  0  0  0  0  0  0  0  0
   -3.1692    2.6891    0.0705 H   0  0  0  0  0  0  0  0  0  0  0  0
   -1.6746    4.2484   -0.6521 H   0  0  0  0  0  0  0  0  0  0  0  0
   -0.7581    1.2852    0.8641 H   0  0  0  0  0  0  0  0  0  0  0  0
   -2.0855    0.4078    2.3328 H   0  0  0  0  0  0  0  0  0  0  0  0
   -1.4870   -1.5566   -0.0843 H   0  0  0  0  0  0  0  0  0  0  0  0
   -0.7676   -1.7188    1.9456 H   0  0  0  0  0  0  0  0  0  0  0  0
  1  2  1  0
  2  3  2  0
  2  4  1  0
  4  5  1  0
  5  6  1  0
  6  7  1  0
  6  8  1  0
  8  9  1  0
  9 10  1  0
 10 11  1  0
  9 12  1  0
 12 13  1  0
 12 14  1  0
 14 15  1  0
 14  5  1  0
  1 16  1  0
  1 17  1  0
  1 18  1  0
  4 19  1  0
  5 20  1  1
  6 21  1  1
  7 22  1  0
  9 23  1  6
 10 24  1  0
 10 25  1  0
 11 26  1  0
 12 27  1  1
 13 28  1  0
 14 29  1  6
 15 30  1  0
M  END
>  <UniqueID>  (277) 
276

>  <SMILES>  (277) 
CC(=O)N[C@H]1[C@@H](O)O[C@H](CO)[C@@H](O)[C@@H]1O

>  <Energy>  (277) 
33.213812413900605

>  <Genealogy>  (277) 
CC(=O)N[C@H]1[C@@H](O)O[C@H](CO)[C@@H](O)[C@@H]1O (3D coordinates assigned)
CC(=O)N[C@H]1[C@@H](O)O[C@H](CO)[C@@H](O)[C@@H]1O (nonaromatic ring conformer: 33.213812413900605 kcal/mol)

$$$$
35717
     RDKit          3D

 30 30  0  0  0  0  0  0  0  0999 V2000
   -1.6149   -2.5696    3.3140 C   0  0  0  0  0  0  0  0  0  0  0  0
   -1.5444   -2.1827    1.8729 C   0  0  0  0  0  0  0  0  0  0  0  0
   -2.5916   -2.2038    1.1711 O   0  0  0  0  0  0  0  0  0  0  0  0
   -0.2831   -1.8298    1.2880 N   0  0  0  0  0  0  0  0  0  0  0  0
   -0.1547   -1.4192   -0.1153 C   0  0  1  0  0  0  0  0  0  0  0  0
   -0.6756    0.0223   -0.3073 C   0  0  1  0  0  0  0  0  0  0  0  0
   -0.0640    0.9017    0.6039 O   0  0  0  0  0  0  0  0  0  0  0  0
   -0.4998    0.4648   -1.6472 O   0  0  0  0  0  0  0  0  0  0  0  0
    0.8716    0.4945   -2.0166 C   0  0  2  0  0  0  0  0  0  0  0  0
    0.9856    1.1388   -3.4063 C   0  0  0  0  0  0  0  0  0  0  0  0
    2.3304    1.3176   -3.7650 O   0  0  0  0  0  0  0  0  0  0  0  0
    1.4734   -0.9293   -1.9955 C   0  0  2  0  0  0  0  0  0  0  0  0
    0.8122   -1.7375   -2.9384 O   0  0  0  0  0  0  0  0  0  0  0  0
    1.3160   -1.5141   -0.5793 C   0  0  2  0  0  0  0  0  0  0  0  0
    1.7960   -2.8355   -0.5177 O   0  0  0  0  0  0  0  0  0  0  0  0
   -1.0562   -1.8324    3.9278 H   0  0  0  0  0  0  0  0  0  0  0  0
   -2.6702   -2.5951    3.6597 H   0  0  0  0  0  0  0  0  0  0  0  0
   -1.1640   -3.5745    3.4491 H   0  0  0  0  0  0  0  0  0  0  0  0
    0.5725   -1.8982    1.8853 H   0  0  0  0  0  0  0  0  0  0  0  0
   -0.7671   -2.0997   -0.7490 H   0  0  0  0  0  0  0  0  0  0  0  0
   -1.7694    0.0118   -0.1027 H   0  0  0  0  0  0  0  0  0  0  0  0
   -0.5242    1.7751    0.5013 H   0  0  0  0  0  0  0  0  0  0  0  0
    1.4478    1.1461   -1.3192 H   0  0  0  0  0  0  0  0  0  0  0  0
    0.5015    2.1382   -3.3755 H   0  0  0  0  0  0  0  0  0  0  0  0
    0.4407    0.5358   -4.1696 H   0  0  0  0  0  0  0  0  0  0  0  0
    2.6032    0.5104   -4.2742 H   0  0  0  0  0  0  0  0  0  0  0  0
    2.5625   -0.8649   -2.2305 H   0  0  0  0  0  0  0  0  0  0  0  0
    1.4681   -2.4125   -3.2542 H   0  0  0  0  0  0  0  0  0  0  0  0
    1.9422   -0.9033    0.1091 H   0  0  0  0  0  0  0  0  0  0  0  0
    1.1671   -3.4158   -1.0204 H   0  0  0  0  0  0  0  0  0  0  0  0
  1  2  1  0
  2  3  2  0
  2  4  1  0
  4  5  1  0
  5  6  1  0
  6  7  1  0
  6  8  1  0
  8  9  1  0
  9 10  1  0
 10 11  1  0
  9 12  1  0
 12 13  1  0
 12 14  1  0
 14 15  1  0
 14  5  1  0
  1 16  1  0
  1 17  1  0
  1 18  1  0
  4 19  1  0
  5 20  1  6
  6 21  1  1
  7 22  1  0
  9 23  1  1
 10 24  1  0
 10 25  1  0
 11 26  1  0
 12 27  1  6
 13 28  1  0
 14 29  1  1
 15 30  1  0
M  END
>  <UniqueID>  (278) 
277

>  <SMILES>  (278) 
CC(=O)N[C@H]1[C@@H](O)O[C@H](CO)[C@H](O)[C@@H]1O

>  <Energy>  (278) 
26.736496817338143

>  <Genealogy>  (278) 
CC(=O)N[C@H]1[C@@H](O)O[C@H](CO)[C@H](O)[C@@H]1O (chirality)
CC(=O)N[C@H]1[C@@H](O)O[C@H](CO)[C@H](O)[C@@H]1O (3D coordinates assigned)
CC(=O)N[C@H]1[C@@H](O)O[C@H](CO)[C@H](O)[C@@H]1O (nonaromatic ring conformer: 26.736496817338143 kcal/mol)

$$$$
35717
     RDKit          3D

 30 30  0  0  0  0  0  0  0  0999 V2000
   -0.5141   -2.3398    3.3329 C   0  0  0  0  0  0  0  0  0  0  0  0
   -0.8859   -2.2909    1.8870 C   0  0  0  0  0  0  0  0  0  0  0  0
   -1.5020   -3.2616    1.3692 O   0  0  0  0  0  0  0  0  0  0  0  0
   -0.5716   -1.1292    1.1068 N   0  0  0  0  0  0  0  0  0  0  0  0
   -0.8880   -1.0354   -0.3251 C   0  0  1  0  0  0  0  0  0  0  0  0
   -0.8563    0.4316   -0.7981 C   0  0  1  0  0  0  0  0  0  0  0  0
   -1.7569    1.1774   -0.0243 O   0  0  0  0  0  0  0  0  0  0  0  0
    0.4430    0.9881   -0.6590 O   0  0  0  0  0  0  0  0  0  0  0  0
    1.4056    0.3302   -1.4733 C   0  0  2  0  0  0  0  0  0  0  0  0
    1.2343    0.6874   -2.9685 C   0  0  0  0  0  0  0  0  0  0  0  0
    2.4366    0.4815   -3.6645 O   0  0  0  0  0  0  0  0  0  0  0  0
    1.4937   -1.1877   -1.1550 C   0  0  2  0  0  0  0  0  0  0  0  0
    2.3617   -1.8331   -2.0508 O   0  0  0  0  0  0  0  0  0  0  0  0
    0.1115   -1.8692   -1.1502 C   0  0  2  0  0  0  0  0  0  0  0  0
   -0.3545   -2.0311   -2.4657 O   0  0  0  0  0  0  0  0  0  0  0  0
   -1.1610   -1.6423    3.9045 H   0  0  0  0  0  0  0  0  0  0  0  0
    0.5472   -2.0390    3.4567 H   0  0  0  0  0  0  0  0  0  0  0  0
   -0.6435   -3.3672    3.7348 H   0  0  0  0  0  0  0  0  0  0  0  0
   -0.1204   -0.3197    1.5913 H   0  0  0  0  0  0  0  0  0  0  0  0
   -1.9176   -1.4252   -0.4902 H   0  0  0  0  0  0  0  0  0  0  0  0
   -1.2003    0.4799   -1.8566 H   0  0  0  0  0  0  0  0  0  0  0  0
   -1.7801    2.0880   -0.4192 H   0  0  0  0  0  0  0  0  0  0  0  0
    2.3895    0.7573   -1.1772 H   0  0  0  0  0  0  0  0  0  0  0  0
    0.3970    0.1257   -3.4374 H   0  0  0  0  0  0  0  0  0  0  0  0
    0.9797    1.7659   -3.0464 H   0  0  0  0  0  0  0  0  0  0  0  0
    2.3167   -0.3261   -4.2291 H   0  0  0  0  0  0  0  0  0  0  0  0
    1.9152   -1.2738   -0.1250 H   0  0  0  0  0  0  0  0  0  0  0  0
    2.5893   -2.7120   -1.6485 H   0  0  0  0  0  0  0  0  0  0  0  0
    0.2287   -2.8760   -0.6854 H   0  0  0  0  0  0  0  0  0  0  0  0
   -1.0890   -2.6984   -2.4310 H   0  0  0  0  0  0  0  0  0  0  0  0
  1  2  1  0
  2  3  2  0
  2  4  1  0
  4  5  1  0
  5  6  1  0
  6  7  1  0
  6  8  1  0
  8  9  1  0
  9 10  1  0
 10 11  1  0
  9 12  1  0
 12 13  1  0
 12 14  1  0
 14 15  1  0
 14  5  1  0
  1 16  1  0
  1 17  1  0
  1 18  1  0
  4 19  1  0
  5 20  1  1
  6 21  1  6
  7 22  1  0
  9 23  1  1
 10 24  1  0
 10 25  1  0
 11 26  1  0
 12 27  1  1
 13 28  1  0
 14 29  1  1
 15 30  1  0
M  END
>  <UniqueID>  (279) 
278

>  <SMILES>  (279) 
CC(=O)N[C@H]1[C@@H](O)O[C@H](CO)[C@H](O)[C@@H]1O

>  <Energy>  (279) 
29.734900029943017

>  <Genealogy>  (279) 
CC(=O)N[C@H]1[C@@H](O)O[C@H](CO)[C@H](O)[C@@H]1O (chirality)
CC(=O)N[C@H]1[C@@H](O)O[C@H](CO)[C@H](O)[C@@H]1O (3D coordinates assigned)
CC(=O)N[C@H]1[C@@H](O)O[C@H](CO)[C@H](O)[C@@H]1O (nonaromatic ring conformer: 29.734900029943017 kcal/mol)

$$$$
35717
     RDKit          3D

 30 30  0  0  0  0  0  0  0  0999 V2000
   -1.9593    4.1582   -0.0822 C   0  0  0  0  0  0  0  0  0  0  0  0
   -1.7293    2.9000   -0.8553 C   0  0  0  0  0  0  0  0  0  0  0  0
   -2.1082    2.8311   -2.1956 O   0  0  0  0  0  0  0  0  0  0  0  0
   -1.2115    1.8687   -0.2575 N   0  0  0  0  0  0  0  0  0  0  0  0
   -0.9353    0.5789   -0.8988 C   0  0  1  0  0  0  0  0  0  0  0  0
    0.4559    0.5916   -1.5723 C   0  0  1  0  0  0  0  0  0  0  0  0
    0.5166    1.6145   -2.5304 O   0  0  0  0  0  0  0  0  0  0  0  0
    1.4813    0.8175   -0.6182 O   0  0  0  0  0  0  0  0  0  0  0  0
    1.5600   -0.2159    0.3573 C   0  0  2  0  0  0  0  0  0  0  0  0
    2.1733   -1.5198   -0.2046 C   0  0  0  0  0  0  0  0  0  0  0  0
    3.3835   -1.2476   -0.8584 O   0  0  0  0  0  0  0  0  0  0  0  0
    0.2212   -0.4068    1.1172 C   0  0  2  0  0  0  0  0  0  0  0  0
    0.2970   -1.5163    1.9760 O   0  0  0  0  0  0  0  0  0  0  0  0
   -0.9828   -0.5328    0.1587 C   0  0  2  0  0  0  0  0  0  0  0  0
   -0.9916   -1.7863   -0.4775 O   0  0  0  0  0  0  0  0  0  0  0  0
   -1.3057    4.1917    0.8157 H   0  0  0  0  0  0  0  0  0  0  0  0
   -1.7311    5.0384   -0.7189 H   0  0  0  0  0  0  0  0  0  0  0  0
   -3.0207    4.2051    0.2380 H   0  0  0  0  0  0  0  0  0  0  0  0
   -2.5286    3.6251   -2.6633 H   0  0  0  0  0  0  0  0  0  0  0  0
   -1.7188    0.3607   -1.6597 H   0  0  0  0  0  0  0  0  0  0  0  0
    0.6247   -0.3766   -2.0973 H   0  0  0  0  0  0  0  0  0  0  0  0
   -0.0165    1.3119   -3.3120 H   0  0  0  0  0  0  0  0  0  0  0  0
    2.2872    0.1393    1.1208 H   0  0  0  0  0  0  0  0  0  0  0  0
    2.3904   -2.2110    0.6371 H   0  0  0  0  0  0  0  0  0  0  0  0
    1.4779   -2.0575   -0.8833 H   0  0  0  0  0  0  0  0  0  0  0  0
    3.1520   -0.9495   -1.7764 H   0  0  0  0  0  0  0  0  0  0  0  0
    0.0684    0.5108    1.7338 H   0  0  0  0  0  0  0  0  0  0  0  0
   -0.4619   -1.4396    2.6117 H   0  0  0  0  0  0  0  0  0  0  0  0
   -1.9253   -0.4128    0.7450 H   0  0  0  0  0  0  0  0  0  0  0  0
   -1.3750   -2.4370    0.1668 H   0  0  0  0  0  0  0  0  0  0  0  0
  1  2  1  0
  2  3  1  0
  2  4  2  3
  4  5  1  0
  5  6  1  0
  6  7  1  0
  6  8  1  0
  8  9  1  0
  9 10  1  0
 10 11  1  0
  9 12  1  0
 12 13  1  0
 12 14  1  0
 14 15  1  0
 14  5  1  0
  1 16  1  0
  1 17  1  0
  1 18  1  0
  3 19  1  0
  5 20  1  6
  6 21  1  6
  7 22  1  0
  9 23  1  1
 10 24  1  0
 10 25  1  0
 11 26  1  0
 12 27  1  1
 13 28  1  0
 14 29  1  1
 15 30  1  0
M  END
>  <UniqueID>  (280) 
279

>  <SMILES>  (280) 
CC(O)=N[C@H]1[C@@H](O)O[C@H](CO)[C@H](O)[C@@H]1O

>  <Energy>  (280) 
30.19457177313616

>  <Genealogy>  (280) 
CC(O)=N[C@H]1C(O)O[C@H](CO)[C@H](O)[C@@H]1O (tautomer)
CC(O)=N[C@H]1[C@@H](O)O[C@H](CO)[C@H](O)[C@@H]1O (chirality)
CC(O)=N[C@H]1[C@@H](O)O[C@H](CO)[C@H](O)[C@@H]1O (3D coordinates assigned)
CC(O)=N[C@H]1[C@@H](O)O[C@H](CO)[C@H](O)[C@@H]1O (nonaromatic ring conformer: 30.19457177313616 kcal/mol)

$$$$
29327
     RDKit          3D

 33 33  0  0  0  0  0  0  0  0999 V2000
    0.1720   -0.4217    5.2473 C   0  0  0  0  0  0  0  0  0  0  0  0
    0.8822   -0.1823    3.9870 N   0  0  0  0  0  0  0  0  0  0  0  0
    2.2883   -0.1508    3.9618 N   0  0  0  0  0  0  0  0  0  0  0  0
    2.9656   -0.2922    5.0013 O   0  0  0  0  0  0  0  0  0  0  0  0
    0.1567   -0.1246    2.7443 C   0  0  0  0  0  0  0  0  0  0  0  0
   -1.0942   -0.2907    2.7413 O   0  0  0  0  0  0  0  0  0  0  0  0
    0.8476    0.1182    1.5063 N   0  0  0  0  0  0  0  0  0  0  0  0
    0.1657    0.1329    0.2066 C   0  0  1  0  0  0  0  0  0  0  0  0
    0.6536    1.3191   -0.6487 C   0  0  1  0  0  0  0  0  0  0  0  0
    2.0546    1.3170   -0.7751 O   0  0  0  0  0  0  0  0  0  0  0  0
    0.0238    1.3189   -1.9220 O   0  0  0  0  0  0  0  0  0  0  0  0
    0.3470    0.1555   -2.6722 C   0  0  2  0  0  0  0  0  0  0  0  0
   -0.2741    0.3131   -4.0707 C   0  0  0  0  0  0  0  0  0  0  0  0
    0.2001   -0.6692   -4.9526 O   0  0  0  0  0  0  0  0  0  0  0  0
   -0.1770   -1.1175   -1.9594 C   0  0  1  0  0  0  0  0  0  0  0  0
    0.2089   -2.2701   -2.6658 O   0  0  0  0  0  0  0  0  0  0  0  0
    0.4103   -1.1909   -0.5391 C   0  0  2  0  0  0  0  0  0  0  0  0
   -0.1320   -2.2773    0.1709 O   0  0  0  0  0  0  0  0  0  0  0  0
   -0.8262    0.0650    5.2355 H   0  0  0  0  0  0  0  0  0  0  0  0
    0.0470   -1.5137    5.4017 H   0  0  0  0  0  0  0  0  0  0  0  0
    0.7361    0.0064    6.1021 H   0  0  0  0  0  0  0  0  0  0  0  0
    1.8908    0.1642    1.5126 H   0  0  0  0  0  0  0  0  0  0  0  0
   -0.9301    0.2671    0.3498 H   0  0  0  0  0  0  0  0  0  0  0  0
    0.3492    2.2512   -0.1205 H   0  0  0  0  0  0  0  0  0  0  0  0
    2.2948    2.1634   -1.2347 H   0  0  0  0  0  0  0  0  0  0  0  0
    1.4504    0.0799   -2.8092 H   0  0  0  0  0  0  0  0  0  0  0  0
   -0.0378    1.3246   -4.4742 H   0  0  0  0  0  0  0  0  0  0  0  0
   -1.3805    0.2356   -4.0051 H   0  0  0  0  0  0  0  0  0  0  0  0
    1.1233   -0.4047   -5.2041 H   0  0  0  0  0  0  0  0  0  0  0  0
   -1.2901   -1.0542   -1.8795 H   0  0  0  0  0  0  0  0  0  0  0  0
   -0.5705   -2.5555   -3.2108 H   0  0  0  0  0  0  0  0  0  0  0  0
    1.5084   -1.3547   -0.6204 H   0  0  0  0  0  0  0  0  0  0  0  0
   -1.1106   -2.1286    0.2516 H   0  0  0  0  0  0  0  0  0  0  0  0
  1  2  1  0
  2  3  1  0
  3  4  2  0
  2  5  1  0
  5  6  2  0
  5  7  1  0
  7  8  1  0
  8  9  1  0
  9 10  1  0
  9 11  1  0
 11 12  1  0
 12 13  1  0
 13 14  1  0
 12 15  1  0
 15 16  1  0
 15 17  1  0
 17 18  1  0
 17  8  1  0
  1 19  1  0
  1 20  1  0
  1 21  1  0
  7 22  1  0
  8 23  1  1
  9 24  1  1
 10 25  1  0
 12 26  1  6
 13 27  1  0
 13 28  1  0
 14 29  1  0
 15 30  1  1
 16 31  1  0
 17 32  1  6
 18 33  1  0
M  END
>  <UniqueID>  (281) 
280

>  <SMILES>  (281) 
CN(N=O)C(=O)N[C@H]1[C@@H](O)O[C@H](CO)[C@@H](O)[C@@H]1O

>  <Energy>  (281) 
31.60248801215496

>  <Genealogy>  (281) 
CN(N=O)C(=O)N[C@H]1[C@@H](O)O[C@H](CO)[C@@H](O)[C@@H]1O (3D coordinates assigned)
CN(N=O)C(=O)N[C@H]1[C@@H](O)O[C@H](CO)[C@@H](O)[C@@H]1O (nonaromatic ring conformer: 31.60248801215496 kcal/mol)

$$$$
29327
     RDKit          3D

 33 33  0  0  0  0  0  0  0  0999 V2000
    2.9602   -0.0857    3.2058 C   0  0  0  0  0  0  0  0  0  0  0  0
    1.5454   -0.2180    3.5669 N   0  0  0  0  0  0  0  0  0  0  0  0
    1.1566   -0.3330    4.9144 N   0  0  0  0  0  0  0  0  0  0  0  0
    1.9906   -0.3093    5.8434 O   0  0  0  0  0  0  0  0  0  0  0  0
    0.5140   -0.1682    2.5647 C   0  0  0  0  0  0  0  0  0  0  0  0
   -0.6621   -0.5011    2.8763 O   0  0  0  0  0  0  0  0  0  0  0  0
    0.7971    0.2699    1.2238 N   0  0  0  0  0  0  0  0  0  0  0  0
   -0.1863    0.1456    0.1392 C   0  0  1  0  0  0  0  0  0  0  0  0
    0.1176    1.1424   -1.0074 C   0  0  1  0  0  0  0  0  0  0  0  0
    0.5475    2.3695   -0.4811 O   0  0  0  0  0  0  0  0  0  0  0  0
    1.1200    0.6136   -1.8558 O   0  0  0  0  0  0  0  0  0  0  0  0
    0.6478   -0.4970   -2.6169 C   0  0  2  0  0  0  0  0  0  0  0  0
    0.1646   -0.0286   -3.9992 C   0  0  0  0  0  0  0  0  0  0  0  0
    1.1762    0.6853   -4.6572 O   0  0  0  0  0  0  0  0  0  0  0  0
   -0.4318   -1.3608   -1.8990 C   0  0  1  0  0  0  0  0  0  0  0  0
   -0.3544   -2.6844   -2.3658 O   0  0  0  0  0  0  0  0  0  0  0  0
   -0.1984   -1.3165   -0.3782 C   0  0  2  0  0  0  0  0  0  0  0  0
   -1.2057   -2.0360    0.2873 O   0  0  0  0  0  0  0  0  0  0  0  0
    3.1816   -0.6836    2.2963 H   0  0  0  0  0  0  0  0  0  0  0  0
    3.6173   -0.4684    4.0138 H   0  0  0  0  0  0  0  0  0  0  0  0
    3.2007    0.9821    3.0210 H   0  0  0  0  0  0  0  0  0  0  0  0
    1.7424    0.6521    0.9988 H   0  0  0  0  0  0  0  0  0  0  0  0
   -1.1936    0.4157    0.5300 H   0  0  0  0  0  0  0  0  0  0  0  0
   -0.8219    1.3307   -1.5814 H   0  0  0  0  0  0  0  0  0  0  0  0
    0.6475    2.9862   -1.2526 H   0  0  0  0  0  0  0  0  0  0  0  0
    1.5305   -1.1531   -2.7856 H   0  0  0  0  0  0  0  0  0  0  0  0
   -0.1482   -0.9038   -4.6136 H   0  0  0  0  0  0  0  0  0  0  0  0
   -0.7182    0.6353   -3.8870 H   0  0  0  0  0  0  0  0  0  0  0  0
    1.8305    0.0144   -4.9850 H   0  0  0  0  0  0  0  0  0  0  0  0
   -1.4454   -0.9425   -2.1137 H   0  0  0  0  0  0  0  0  0  0  0  0
   -1.2465   -3.0960   -2.2233 H   0  0  0  0  0  0  0  0  0  0  0  0
    0.7984   -1.7794   -0.1732 H   0  0  0  0  0  0  0  0  0  0  0  0
   -0.9298   -2.9897    0.2903 H   0  0  0  0  0  0  0  0  0  0  0  0
  1  2  1  0
  2  3  1  0
  3  4  2  0
  2  5  1  0
  5  6  2  0
  5  7  1  0
  7  8  1  0
  8  9  1  0
  9 10  1  0
  9 11  1  0
 11 12  1  0
 12 13  1  0
 13 14  1  0
 12 15  1  0
 15 16  1  0
 15 17  1  0
 17 18  1  0
 17  8  1  0
  1 19  1  0
  1 20  1  0
  1 21  1  0
  7 22  1  0
  8 23  1  1
  9 24  1  6
 10 25  1  0
 12 26  1  6
 13 27  1  0
 13 28  1  0
 14 29  1  0
 15 30  1  1
 16 31  1  0
 17 32  1  6
 18 33  1  0
M  END
>  <UniqueID>  (282) 
281

>  <SMILES>  (282) 
CN(N=O)C(=O)N[C@H]1[C@@H](O)O[C@H](CO)[C@@H](O)[C@@H]1O

>  <Energy>  (282) 
38.175732836323604

>  <Genealogy>  (282) 
CN(N=O)C(=O)N[C@H]1[C@@H](O)O[C@H](CO)[C@@H](O)[C@@H]1O (3D coordinates assigned)
CN(N=O)C(=O)N[C@H]1[C@@H](O)O[C@H](CO)[C@@H](O)[C@@H]1O (nonaromatic ring conformer: 38.175732836323604 kcal/mol)

$$$$
29327
     RDKit          3D

 33 33  0  0  0  0  0  0  0  0999 V2000
    0.9323   -1.1671    4.7905 C   0  0  0  0  0  0  0  0  0  0  0  0
    1.2483   -0.6095    3.4719 N   0  0  0  0  0  0  0  0  0  0  0  0
    2.5629   -0.2130    3.1668 N   0  0  0  0  0  0  0  0  0  0  0  0
    3.4963   -0.3571    3.9836 O   0  0  0  0  0  0  0  0  0  0  0  0
    0.1944   -0.3165    2.5362 C   0  0  0  0  0  0  0  0  0  0  0  0
   -1.0102   -0.4755    2.8775 O   0  0  0  0  0  0  0  0  0  0  0  0
    0.5040    0.1559    1.2141 N   0  0  0  0  0  0  0  0  0  0  0  0
   -0.5418    0.4377    0.2189 C   0  0  1  0  0  0  0  0  0  0  0  0
   -0.0868    1.5069   -0.8291 C   0  0  1  0  0  0  0  0  0  0  0  0
    1.0121    2.2612   -0.3824 O   0  0  0  0  0  0  0  0  0  0  0  0
    0.1937    0.9617   -2.1115 O   0  0  0  0  0  0  0  0  0  0  0  0
    0.9948   -0.2022   -2.0164 C   0  0  2  0  0  0  0  0  0  0  0  0
    1.5329   -0.5512   -3.4110 C   0  0  0  0  0  0  0  0  0  0  0  0
    0.4834   -0.6601   -4.3378 O   0  0  0  0  0  0  0  0  0  0  0  0
    0.1880   -1.3817   -1.3982 C   0  0  1  0  0  0  0  0  0  0  0  0
    1.0455   -2.1980   -0.6409 O   0  0  0  0  0  0  0  0  0  0  0  0
   -0.9535   -0.8670   -0.4931 C   0  0  2  0  0  0  0  0  0  0  0  0
   -2.0972   -0.6368   -1.2782 O   0  0  0  0  0  0  0  0  0  0  0  0
    1.7895   -1.7534    5.1825 H   0  0  0  0  0  0  0  0  0  0  0  0
    0.6988   -0.3429    5.4964 H   0  0  0  0  0  0  0  0  0  0  0  0
    0.0631   -1.8558    4.7281 H   0  0  0  0  0  0  0  0  0  0  0  0
    1.5044    0.1751    0.9173 H   0  0  0  0  0  0  0  0  0  0  0  0
   -1.4299    0.8486    0.7503 H   0  0  0  0  0  0  0  0  0  0  0  0
   -0.9443    2.2029   -0.9797 H   0  0  0  0  0  0  0  0  0  0  0  0
    0.6844    2.8288    0.3635 H   0  0  0  0  0  0  0  0  0  0  0  0
    1.8909    0.0061   -1.3863 H   0  0  0  0  0  0  0  0  0  0  0  0
    2.2084    0.2646   -3.7464 H   0  0  0  0  0  0  0  0  0  0  0  0
    2.1429   -1.4840   -3.3694 H   0  0  0  0  0  0  0  0  0  0  0  0
    0.3262   -1.6280   -4.4913 H   0  0  0  0  0  0  0  0  0  0  0  0
   -0.2813   -2.0011   -2.1980 H   0  0  0  0  0  0  0  0  0  0  0  0
    1.5786   -2.7325   -1.2854 H   0  0  0  0  0  0  0  0  0  0  0  0
   -1.1910   -1.6495    0.2664 H   0  0  0  0  0  0  0  0  0  0  0  0
   -2.8687   -0.5826   -0.6554 H   0  0  0  0  0  0  0  0  0  0  0  0
  1  2  1  0
  2  3  1  0
  3  4  2  0
  2  5  1  0
  5  6  2  0
  5  7  1  0
  7  8  1  0
  8  9  1  0
  9 10  1  0
  9 11  1  0
 11 12  1  0
 12 13  1  0
 13 14  1  0
 12 15  1  0
 15 16  1  0
 15 17  1  0
 17 18  1  0
 17  8  1  0
  1 19  1  0
  1 20  1  0
  1 21  1  0
  7 22  1  0
  8 23  1  1
  9 24  1  6
 10 25  1  0
 12 26  1  1
 13 27  1  0
 13 28  1  0
 14 29  1  0
 15 30  1  6
 16 31  1  0
 17 32  1  1
 18 33  1  0
M  END
>  <UniqueID>  (283) 
282

>  <SMILES>  (283) 
CN(N=O)C(=O)N[C@H]1[C@@H](O)O[C@H](CO)[C@@H](O)[C@@H]1O

>  <Energy>  (283) 
39.485162267786

>  <Genealogy>  (283) 
CN(N=O)C(=O)N[C@H]1[C@@H](O)O[C@H](CO)[C@@H](O)[C@@H]1O (3D coordinates assigned)
CN(N=O)C(=O)N[C@H]1[C@@H](O)O[C@H](CO)[C@@H](O)[C@@H]1O (nonaromatic ring conformer: 39.485162267786 kcal/mol)

$$$$
24154
     RDKit          3D

 25 25  0  0  0  0  0  0  0  0999 V2000
    0.1908   -2.8994   -1.7645 N   0  0  0  0  0  0  0  0  0  0  0  0
    0.0602   -1.5735   -1.1520 C   0  0  1  0  0  0  0  0  0  0  0  0
   -1.4353   -1.1868   -1.0273 C   0  0  2  0  0  0  0  0  0  0  0  0
   -1.9985   -1.0714   -2.3090 O   0  0  0  0  0  0  0  0  0  0  0  0
   -1.5747    0.0663   -0.3795 O   0  0  0  0  0  0  0  0  0  0  0  0
   -1.1176   -0.0079    0.9599 C   0  0  2  0  0  0  0  0  0  0  0  0
   -1.4927    1.2938    1.6795 C   0  0  0  0  0  0  0  0  0  0  0  0
   -1.1301    1.2223    3.0311 O   0  0  0  0  0  0  0  0  0  0  0  0
    0.4065   -0.2538    0.9838 C   0  0  2  0  0  0  0  0  0  0  0  0
    1.0710    0.8181    0.3601 O   0  0  0  0  0  0  0  0  0  0  0  0
    0.7142   -1.5703    0.2487 C   0  0  2  0  0  0  0  0  0  0  0  0
    2.1074   -1.7264    0.1389 O   0  0  0  0  0  0  0  0  0  0  0  0
    1.2072   -3.1168   -1.8767 H   0  0  0  0  0  0  0  0  0  0  0  0
   -0.1848   -2.8555   -2.7391 H   0  0  0  0  0  0  0  0  0  0  0  0
    0.5726   -0.8197   -1.7938 H   0  0  0  0  0  0  0  0  0  0  0  0
   -1.9813   -1.9755   -0.4497 H   0  0  0  0  0  0  0  0  0  0  0  0
   -2.4101   -1.9467   -2.5336 H   0  0  0  0  0  0  0  0  0  0  0  0
   -1.6351   -0.8339    1.5037 H   0  0  0  0  0  0  0  0  0  0  0  0
   -0.9894    2.1604    1.1950 H   0  0  0  0  0  0  0  0  0  0  0  0
   -2.5931    1.4428    1.6017 H   0  0  0  0  0  0  0  0  0  0  0  0
   -1.3931    2.0907    3.4330 H   0  0  0  0  0  0  0  0  0  0  0  0
    0.7403   -0.3508    2.0443 H   0  0  0  0  0  0  0  0  0  0  0  0
    1.9904    0.8463    0.7334 H   0  0  0  0  0  0  0  0  0  0  0  0
    0.2792   -2.4050    0.8518 H   0  0  0  0  0  0  0  0  0  0  0  0
    2.3040   -2.6952    0.2299 H   0  0  0  0  0  0  0  0  0  0  0  0
  1  2  1  0
  2  3  1  0
  3  4  1  0
  3  5  1  0
  5  6  1  0
  6  7  1  0
  7  8  1  0
  6  9  1  0
  9 10  1  0
  9 11  1  0
 11 12  1  0
 11  2  1  0
  1 13  1  0
  1 14  1  0
  2 15  1  6
  3 16  1  1
  4 17  1  0
  6 18  1  1
  7 19  1  0
  7 20  1  0
  8 21  1  0
  9 22  1  1
 10 23  1  0
 11 24  1  1
 12 25  1  0
M  END
>  <UniqueID>  (284) 
283

>  <SMILES>  (284) 
N[C@H]1[C@H](O)O[C@H](CO)[C@H](O)[C@@H]1O

>  <Energy>  (284) 
22.33723185269607

>  <Genealogy>  (284) 
N[C@H]1[C@H](O)O[C@H](CO)[C@H](O)[C@@H]1O (chirality)
N[C@H]1[C@H](O)O[C@H](CO)[C@H](O)[C@@H]1O (3D coordinates assigned)
N[C@H]1[C@H](O)O[C@H](CO)[C@H](O)[C@@H]1O (nonaromatic ring conformer: 22.33723185269607 kcal/mol)

$$$$
24154
     RDKit          3D

 26 26  0  0  0  0  0  0  0  0999 V2000
   -0.6201   -2.1847   -1.4563 N   0  0  0  0  0  4  0  0  0  0  0  0
   -0.2213   -0.8169   -1.0940 C   0  0  1  0  0  0  0  0  0  0  0  0
   -0.6631   -0.4833    0.3530 C   0  0  2  0  0  0  0  0  0  0  0  0
   -2.0616   -0.5440    0.4318 O   0  0  0  0  0  0  0  0  0  0  0  0
   -0.2466    0.8236    0.7160 O   0  0  0  0  0  0  0  0  0  0  0  0
    1.1680    0.9031    0.7481 C   0  0  2  0  0  0  0  0  0  0  0  0
    1.5809    2.2545    1.3489 C   0  0  0  0  0  0  0  0  0  0  0  0
    1.1009    2.3728    2.6611 O   0  0  0  0  0  0  0  0  0  0  0  0
    1.7412    0.7306   -0.6739 C   0  0  2  0  0  0  0  0  0  0  0  0
    1.2670    1.7614   -1.5061 O   0  0  0  0  0  0  0  0  0  0  0  0
    1.3107   -0.6400   -1.2262 C   0  0  2  0  0  0  0  0  0  0  0  0
    1.7014   -0.7437   -2.5727 O   0  0  0  0  0  0  0  0  0  0  0  0
   -0.3619   -2.3823   -2.4498 H   0  0  0  0  0  0  0  0  0  0  0  0
   -0.1520   -2.8823   -0.8328 H   0  0  0  0  0  0  0  0  0  0  0  0
   -1.6568   -2.2918   -1.3721 H   0  0  0  0  0  0  0  0  0  0  0  0
   -0.7234   -0.1025   -1.7864 H   0  0  0  0  0  0  0  0  0  0  0  0
   -0.2366   -1.2407    1.0554 H   0  0  0  0  0  0  0  0  0  0  0  0
   -2.2936   -0.4406    1.3915 H   0  0  0  0  0  0  0  0  0  0  0  0
    1.5925    0.1116    1.4108 H   0  0  0  0  0  0  0  0  0  0  0  0
    2.6900    2.3610    1.3363 H   0  0  0  0  0  0  0  0  0  0  0  0
    1.1535    3.0831    0.7449 H   0  0  0  0  0  0  0  0  0  0  0  0
    1.6915    1.8147    3.2316 H   0  0  0  0  0  0  0  0  0  0  0  0
    2.8555    0.7626   -0.6166 H   0  0  0  0  0  0  0  0  0  0  0  0
    1.9267    1.8680   -2.2402 H   0  0  0  0  0  0  0  0  0  0  0  0
    1.8225   -1.4244   -0.6164 H   0  0  0  0  0  0  0  0  0  0  0  0
    1.9316   -1.6948   -2.7397 H   0  0  0  0  0  0  0  0  0  0  0  0
  1  2  1  0
  2  3  1  0
  3  4  1  0
  3  5  1  0
  5  6  1  0
  6  7  1  0
  7  8  1  0
  6  9  1  0
  9 10  1  0
  9 11  1  0
 11 12  1  0
 11  2  1  0
  1 13  1  0
  1 14  1  0
  1 15  1  0
  2 16  1  6
  3 17  1  1
  4 18  1  0
  6 19  1  1
  7 20  1  0
  7 21  1  0
  8 22  1  0
  9 23  1  1
 10 24  1  0
 11 25  1  1
 12 26  1  0
M  CHG  1   1   1
M  END
>  <UniqueID>  (285) 
284

>  <SMILES>  (285) 
[NH3+][C@H]1[C@H](O)O[C@H](CO)[C@H](O)[C@@H]1O

>  <Energy>  (285) 
22.814837127655956

>  <Genealogy>  (285) 
[NH3+][C@H]1C(O)O[C@H](CO)[C@H](O)[C@@H]1O (protonated)
[NH3+][C@H]1[C@H](O)O[C@H](CO)[C@H](O)[C@@H]1O (chirality)
[NH3+][C@H]1[C@H](O)O[C@H](CO)[C@H](O)[C@@H]1O (3D coordinates assigned)
[NH3+][C@H]1[C@H](O)O[C@H](CO)[C@H](O)[C@@H]1O (nonaromatic ring conformer: 22.814837127655956 kcal/mol)

$$$$
24154
     RDKit          3D

 26 26  0  0  0  0  0  0  0  0999 V2000
    1.8893   -1.0544   -2.6741 N   0  0  0  0  0  4  0  0  0  0  0  0
    0.8354   -0.3502   -1.9305 C   0  0  1  0  0  0  0  0  0  0  0  0
   -0.1774   -1.3503   -1.3207 C   0  0  1  0  0  0  0  0  0  0  0  0
    0.4759   -2.3230   -0.5429 O   0  0  0  0  0  0  0  0  0  0  0  0
   -1.1788   -0.6802   -0.5666 O   0  0  0  0  0  0  0  0  0  0  0  0
   -0.6171    0.0325    0.5257 C   0  0  2  0  0  0  0  0  0  0  0  0
   -1.7539    0.5999    1.3882 C   0  0  0  0  0  0  0  0  0  0  0  0
   -2.5507   -0.4387    1.8910 O   0  0  0  0  0  0  0  0  0  0  0  0
    0.3102    1.1599    0.0242 C   0  0  2  0  0  0  0  0  0  0  0  0
   -0.4290    2.0817   -0.7393 O   0  0  0  0  0  0  0  0  0  0  0  0
    1.4376    0.5442   -0.8269 C   0  0  2  0  0  0  0  0  0  0  0  0
    2.2174    1.5570   -1.4092 O   0  0  0  0  0  0  0  0  0  0  0  0
    2.4785   -1.6309   -2.0304 H   0  0  0  0  0  0  0  0  0  0  0  0
    2.4999   -0.3621   -3.1655 H   0  0  0  0  0  0  0  0  0  0  0  0
    1.4592   -1.6770   -3.3962 H   0  0  0  0  0  0  0  0  0  0  0  0
    0.2782    0.3002   -2.6438 H   0  0  0  0  0  0  0  0  0  0  0  0
   -0.6854   -1.8627   -2.1690 H   0  0  0  0  0  0  0  0  0  0  0  0
   -0.2166   -2.9854   -0.2841 H   0  0  0  0  0  0  0  0  0  0  0  0
   -0.0299   -0.6507    1.1825 H   0  0  0  0  0  0  0  0  0  0  0  0
   -1.3390    1.2041    2.2276 H   0  0  0  0  0  0  0  0  0  0  0  0
   -2.3964    1.2670    0.7750 H   0  0  0  0  0  0  0  0  0  0  0  0
   -2.0424   -0.8518    2.6372 H   0  0  0  0  0  0  0  0  0  0  0  0
    0.7624    1.6681    0.9091 H   0  0  0  0  0  0  0  0  0  0  0  0
    0.0655    2.9421   -0.7125 H   0  0  0  0  0  0  0  0  0  0  0  0
    2.0811   -0.0861   -0.1678 H   0  0  0  0  0  0  0  0  0  0  0  0
    2.7705    1.9454   -0.6819 H   0  0  0  0  0  0  0  0  0  0  0  0
  1  2  1  0
  2  3  1  0
  3  4  1  0
  3  5  1  0
  5  6  1  0
  6  7  1  0
  7  8  1  0
  6  9  1  0
  9 10  1  0
  9 11  1  0
 11 12  1  0
 11  2  1  0
  1 13  1  0
  1 14  1  0
  1 15  1  0
  2 16  1  6
  3 17  1  6
  4 18  1  0
  6 19  1  1
  7 20  1  0
  7 21  1  0
  8 22  1  0
  9 23  1  1
 10 24  1  0
 11 25  1  1
 12 26  1  0
M  CHG  1   1   1
M  END
>  <UniqueID>  (286) 
285

>  <SMILES>  (286) 
[NH3+][C@H]1[C@@H](O)O[C@H](CO)[C@H](O)[C@@H]1O

>  <Energy>  (286) 
24.02596367370196

>  <Genealogy>  (286) 
[NH3+][C@H]1C(O)O[C@H](CO)[C@H](O)[C@@H]1O (protonated)
[NH3+][C@H]1[C@@H](O)O[C@H](CO)[C@H](O)[C@@H]1O (chirality)
[NH3+][C@H]1[C@@H](O)O[C@H](CO)[C@H](O)[C@@H]1O (3D coordinates assigned)
[NH3+][C@H]1[C@@H](O)O[C@H](CO)[C@H](O)[C@@H]1O (nonaromatic ring conformer: 24.02596367370196 kcal/mol)

$$$$
24139
     RDKit          3D

 30 30  0  0  0  0  0  0  0  0999 V2000
    3.2827   -1.2395   -2.3931 C   0  0  0  0  0  0  0  0  0  0  0  0
    2.6937   -0.3759   -1.3260 C   0  0  0  0  0  0  0  0  0  0  0  0
    3.4557    0.2157   -0.5143 O   0  0  0  0  0  0  0  0  0  0  0  0
    1.2717   -0.1998   -1.2542 N   0  0  0  0  0  0  0  0  0  0  0  0
    0.6279    0.6961   -0.2879 C   0  0  1  0  0  0  0  0  0  0  0  0
    0.2273    2.0170   -0.9784 C   0  0  2  0  0  0  0  0  0  0  0  0
    1.3656    2.6555   -1.4949 O   0  0  0  0  0  0  0  0  0  0  0  0
   -0.4196    2.8844   -0.0612 O   0  0  0  0  0  0  0  0  0  0  0  0
   -1.6472    2.3244    0.3760 C   0  0  2  0  0  0  0  0  0  0  0  0
   -2.3921    3.3711    1.2207 C   0  0  0  0  0  0  0  0  0  0  0  0
   -1.6597    3.7146    2.3673 O   0  0  0  0  0  0  0  0  0  0  0  0
   -1.3994    1.0229    1.1762 C   0  0  1  0  0  0  0  0  0  0  0  0
   -2.6310    0.4626    1.5559 O   0  0  0  0  0  0  0  0  0  0  0  0
   -0.6199    0.0201    0.3040 C   0  0  2  0  0  0  0  0  0  0  0  0
   -0.2222   -1.0839    1.0765 O   0  0  0  0  0  0  0  0  0  0  0  0
    4.3553   -1.4402   -2.1852 H   0  0  0  0  0  0  0  0  0  0  0  0
    3.1926   -0.7277   -3.3737 H   0  0  0  0  0  0  0  0  0  0  0  0
    2.7400   -2.2070   -2.4343 H   0  0  0  0  0  0  0  0  0  0  0  0
    0.6821   -0.6356   -1.9997 H   0  0  0  0  0  0  0  0  0  0  0  0
    1.3243    0.9271    0.5498 H   0  0  0  0  0  0  0  0  0  0  0  0
   -0.4437    1.7985   -1.8413 H   0  0  0  0  0  0  0  0  0  0  0  0
    1.9093    2.9570   -0.7204 H   0  0  0  0  0  0  0  0  0  0  0  0
   -2.3010    2.0987   -0.4996 H   0  0  0  0  0  0  0  0  0  0  0  0
   -3.3786    2.9690    1.5349 H   0  0  0  0  0  0  0  0  0  0  0  0
   -2.5916    4.2771    0.6036 H   0  0  0  0  0  0  0  0  0  0  0  0
   -0.9596    4.3563    2.0784 H   0  0  0  0  0  0  0  0  0  0  0  0
   -0.7897    1.2675    2.0792 H   0  0  0  0  0  0  0  0  0  0  0  0
   -2.4618   -0.0874    2.3648 H   0  0  0  0  0  0  0  0  0  0  0  0
   -1.2761   -0.3157   -0.5357 H   0  0  0  0  0  0  0  0  0  0  0  0
   -0.9934   -1.7082    1.1081 H   0  0  0  0  0  0  0  0  0  0  0  0
  1  2  1  0
  2  3  2  0
  2  4  1  0
  4  5  1  0
  5  6  1  0
  6  7  1  0
  6  8  1  0
  8  9  1  0
  9 10  1  0
 10 11  1  0
  9 12  1  0
 12 13  1  0
 12 14  1  0
 14 15  1  0
 14  5  1  0
  1 16  1  0
  1 17  1  0
  1 18  1  0
  4 19  1  0
  5 20  1  1
  6 21  1  6
  7 22  1  0
  9 23  1  6
 10 24  1  0
 10 25  1  0
 11 26  1  0
 12 27  1  1
 13 28  1  0
 14 29  1  6
 15 30  1  0
M  END
>  <UniqueID>  (287) 
286

>  <SMILES>  (287) 
CC(=O)N[C@H]1[C@H](O)O[C@H](CO)[C@@H](O)[C@@H]1O

>  <Energy>  (287) 
23.979540463943728

>  <Genealogy>  (287) 
CC(=O)N[C@H]1[C@H](O)O[C@H](CO)[C@@H](O)[C@@H]1O (3D coordinates assigned)
CC(=O)N[C@H]1[C@H](O)O[C@H](CO)[C@@H](O)[C@@H]1O (nonaromatic ring conformer: 23.979540463943728 kcal/mol)

$$$$
24139
     RDKit          3D

 30 30  0  0  0  0  0  0  0  0999 V2000
    3.0099   -1.5777   -2.4287 C   0  0  0  0  0  0  0  0  0  0  0  0
    2.5629   -0.6585   -1.3394 C   0  0  0  0  0  0  0  0  0  0  0  0
    3.2564   -0.5528   -0.2918 O   0  0  0  0  0  0  0  0  0  0  0  0
    1.3332    0.0673   -1.4777 N   0  0  0  0  0  0  0  0  0  0  0  0
    0.7906    0.9255   -0.4195 C   0  0  1  0  0  0  0  0  0  0  0  0
    0.2657    2.2424   -1.0284 C   0  0  2  0  0  0  0  0  0  0  0  0
    1.3105    2.9247   -1.6713 O   0  0  0  0  0  0  0  0  0  0  0  0
   -0.2849    3.0721   -0.0191 O   0  0  0  0  0  0  0  0  0  0  0  0
   -1.4391    2.4732    0.5474 C   0  0  2  0  0  0  0  0  0  0  0  0
   -2.0749    3.4934    1.5072 C   0  0  0  0  0  0  0  0  0  0  0  0
   -3.3249    3.0527    1.9659 O   0  0  0  0  0  0  0  0  0  0  0  0
   -1.0578    1.1649    1.2843 C   0  0  1  0  0  0  0  0  0  0  0  0
   -2.2134    0.5503    1.7951 O   0  0  0  0  0  0  0  0  0  0  0  0
   -0.3540    0.2013    0.3115 C   0  0  2  0  0  0  0  0  0  0  0  0
    0.1533   -0.8934    1.0314 O   0  0  0  0  0  0  0  0  0  0  0  0
    2.9337   -1.0623   -3.4090 H   0  0  0  0  0  0  0  0  0  0  0  0
    2.3635   -2.4797   -2.4386 H   0  0  0  0  0  0  0  0  0  0  0  0
    4.0644   -1.8880   -2.2693 H   0  0  0  0  0  0  0  0  0  0  0  0
    0.7451   -0.1124   -2.3235 H   0  0  0  0  0  0  0  0  0  0  0  0
    1.5834    1.1790    0.3199 H   0  0  0  0  0  0  0  0  0  0  0  0
   -0.5028    2.0176   -1.8042 H   0  0  0  0  0  0  0  0  0  0  0  0
    1.9367    3.2348   -0.9656 H   0  0  0  0  0  0  0  0  0  0  0  0
   -2.1883    2.2522   -0.2495 H   0  0  0  0  0  0  0  0  0  0  0  0
   -2.1885    4.4740    0.9903 H   0  0  0  0  0  0  0  0  0  0  0  0
   -1.4082    3.6569    2.3808 H   0  0  0  0  0  0  0  0  0  0  0  0
   -3.9623    3.1720    1.2141 H   0  0  0  0  0  0  0  0  0  0  0  0
   -0.3579    1.4192    2.1164 H   0  0  0  0  0  0  0  0  0  0  0  0
   -1.9202   -0.0521    2.5278 H   0  0  0  0  0  0  0  0  0  0  0  0
   -1.1058   -0.1490   -0.4371 H   0  0  0  0  0  0  0  0  0  0  0  0
    0.2463   -1.6443    0.3887 H   0  0  0  0  0  0  0  0  0  0  0  0
  1  2  1  0
  2  3  2  0
  2  4  1  0
  4  5  1  0
  5  6  1  0
  6  7  1  0
  6  8  1  0
  8  9  1  0
  9 10  1  0
 10 11  1  0
  9 12  1  0
 12 13  1  0
 12 14  1  0
 14 15  1  0
 14  5  1  0
  1 16  1  0
  1 17  1  0
  1 18  1  0
  4 19  1  0
  5 20  1  1
  6 21  1  6
  7 22  1  0
  9 23  1  6
 10 24  1  0
 10 25  1  0
 11 26  1  0
 12 27  1  1
 13 28  1  0
 14 29  1  6
 15 30  1  0
M  END
>  <UniqueID>  (288) 
287

>  <SMILES>  (288) 
CC(=O)N[C@H]1[C@H](O)O[C@H](CO)[C@@H](O)[C@@H]1O

>  <Energy>  (288) 
24.051031321494786

>  <Genealogy>  (288) 
CC(=O)N[C@H]1[C@H](O)O[C@H](CO)[C@@H](O)[C@@H]1O (3D coordinates assigned)
CC(=O)N[C@H]1[C@H](O)O[C@H](CO)[C@@H](O)[C@@H]1O (nonaromatic ring conformer: 24.051031321494786 kcal/mol)

$$$$
24139
     RDKit          3D

 30 30  0  0  0  0  0  0  0  0999 V2000
    4.3207   -0.8235   -0.2119 C   0  0  0  0  0  0  0  0  0  0  0  0
    3.0771   -0.0047   -0.0828 C   0  0  0  0  0  0  0  0  0  0  0  0
    3.1474    1.2836    0.4468 O   0  0  0  0  0  0  0  0  0  0  0  0
    1.9459   -0.4900   -0.5000 N   0  0  0  0  0  0  0  0  0  0  0  0
    0.6615    0.2117   -0.4313 C   0  0  1  0  0  0  0  0  0  0  0  0
   -0.2595   -0.3158   -1.5472 C   0  0  2  0  0  0  0  0  0  0  0  0
    0.3362   -0.0532   -2.7888 O   0  0  0  0  0  0  0  0  0  0  0  0
   -1.5179    0.3357   -1.4979 O   0  0  0  0  0  0  0  0  0  0  0  0
   -2.2102   -0.0071   -0.3090 C   0  0  2  0  0  0  0  0  0  0  0  0
   -3.6213    0.5950   -0.3759 C   0  0  0  0  0  0  0  0  0  0  0  0
   -4.3020    0.1228   -1.5072 O   0  0  0  0  0  0  0  0  0  0  0  0
   -1.4437    0.5295    0.9255 C   0  0  1  0  0  0  0  0  0  0  0  0
   -2.1074    0.2054    2.1229 O   0  0  0  0  0  0  0  0  0  0  0  0
   -0.0061   -0.0219    0.9400 C   0  0  2  0  0  0  0  0  0  0  0  0
    0.7200    0.6255    1.9535 O   0  0  0  0  0  0  0  0  0  0  0  0
    4.8811   -0.5026   -1.1144 H   0  0  0  0  0  0  0  0  0  0  0  0
    4.0724   -1.9027   -0.3015 H   0  0  0  0  0  0  0  0  0  0  0  0
    4.9599   -0.6808    0.6843 H   0  0  0  0  0  0  0  0  0  0  0  0
    4.0281    1.6752    0.7585 H   0  0  0  0  0  0  0  0  0  0  0  0
    0.8104    1.3038   -0.5962 H   0  0  0  0  0  0  0  0  0  0  0  0
   -0.3805   -1.4220   -1.4403 H   0  0  0  0  0  0  0  0  0  0  0  0
   -0.2301   -0.4992   -3.4715 H   0  0  0  0  0  0  0  0  0  0  0  0
   -2.3236   -1.1143   -0.2297 H   0  0  0  0  0  0  0  0  0  0  0  0
   -3.5516    1.7018   -0.4441 H   0  0  0  0  0  0  0  0  0  0  0  0
   -4.1973    0.3462    0.5445 H   0  0  0  0  0  0  0  0  0  0  0  0
   -4.5768   -0.8096   -1.3051 H   0  0  0  0  0  0  0  0  0  0  0  0
   -1.3909    1.6390    0.8519 H   0  0  0  0  0  0  0  0  0  0  0  0
   -2.1822   -0.7838    2.1679 H   0  0  0  0  0  0  0  0  0  0  0  0
   -0.0512   -1.1212    1.1364 H   0  0  0  0  0  0  0  0  0  0  0  0
    1.3916   -0.0230    2.2911 H   0  0  0  0  0  0  0  0  0  0  0  0
  1  2  1  0
  2  3  1  0
  2  4  2  3
  4  5  1  0
  5  6  1  0
  6  7  1  0
  6  8  1  0
  8  9  1  0
  9 10  1  0
 10 11  1  0
  9 12  1  0
 12 13  1  0
 12 14  1  0
 14 15  1  0
 14  5  1  0
  1 16  1  0
  1 17  1  0
  1 18  1  0
  3 19  1  0
  5 20  1  6
  6 21  1  1
  7 22  1  0
  9 23  1  1
 10 24  1  0
 10 25  1  0
 11 26  1  0
 12 27  1  6
 13 28  1  0
 14 29  1  1
 15 30  1  0
M  END
>  <UniqueID>  (289) 
288

>  <SMILES>  (289) 
CC(O)=N[C@H]1[C@H](O)O[C@H](CO)[C@@H](O)[C@@H]1O

>  <Energy>  (289) 
24.177255810535566

>  <Genealogy>  (289) 
CC(O)=N[C@H]1[C@H](O)O[C@H](CO)[C@@H](O)[C@@H]1O (tautomer)
CC(O)=N[C@H]1[C@H](O)O[C@H](CO)[C@@H](O)[C@@H]1O (3D coordinates assigned)
CC(O)=N[C@H]1[C@H](O)O[C@H](CO)[C@@H](O)[C@@H]1O (nonaromatic ring conformer: 24.177255810535566 kcal/mol)

$$$$
18897
     RDKit          3D

 25 25  0  0  0  0  0  0  0  0999 V2000
   -2.1240   -0.3757    1.1488 N   0  0  0  0  0  0  0  0  0  0  0  0
   -1.7063    0.0627   -0.1881 C   0  0  2  0  0  0  0  0  0  0  0  0
   -0.8130   -1.0187   -0.8423 C   0  0  1  0  0  0  0  0  0  0  0  0
   -0.7645   -0.8613   -2.2413 O   0  0  0  0  0  0  0  0  0  0  0  0
    0.6005   -1.0388   -0.2112 C   0  0  1  0  0  0  0  0  0  0  0  0
    1.4680   -1.8196   -0.9932 O   0  0  0  0  0  0  0  0  0  0  0  0
    1.1680    0.3959   -0.0666 C   0  0  2  0  0  0  0  0  0  0  0  0
    2.5090    0.3912    0.6798 C   0  0  0  0  0  0  0  0  0  0  0  0
    2.3377   -0.0662    1.9937 O   0  0  0  0  0  0  0  0  0  0  0  0
    0.2621    1.2257    0.6425 O   0  0  0  0  0  0  0  0  0  0  0  0
   -0.9338    1.4022   -0.0944 C   0  0  2  0  0  0  0  0  0  0  0  0
   -1.7159    2.3686    0.5564 O   0  0  0  0  0  0  0  0  0  0  0  0
   -2.6659   -1.2652    1.0530 H   0  0  0  0  0  0  0  0  0  0  0  0
   -2.8039    0.3199    1.5324 H   0  0  0  0  0  0  0  0  0  0  0  0
   -2.6124    0.2089   -0.8197 H   0  0  0  0  0  0  0  0  0  0  0  0
   -1.2741   -2.0140   -0.6588 H   0  0  0  0  0  0  0  0  0  0  0  0
   -0.2820   -0.0218   -2.4481 H   0  0  0  0  0  0  0  0  0  0  0  0
    0.5154   -1.4842    0.8082 H   0  0  0  0  0  0  0  0  0  0  0  0
    1.2127   -2.7674   -0.8435 H   0  0  0  0  0  0  0  0  0  0  0  0
    1.3763    0.8219   -1.0753 H   0  0  0  0  0  0  0  0  0  0  0  0
    2.9134    1.4282    0.6989 H   0  0  0  0  0  0  0  0  0  0  0  0
    3.2408   -0.2548    0.1449 H   0  0  0  0  0  0  0  0  0  0  0  0
    3.2374   -0.0455    2.4118 H   0  0  0  0  0  0  0  0  0  0  0  0
   -0.7022    1.7866   -1.1170 H   0  0  0  0  0  0  0  0  0  0  0  0
   -2.4434    2.6213   -0.0707 H   0  0  0  0  0  0  0  0  0  0  0  0
  1  2  1  0
  2  3  1  0
  3  4  1  0
  3  5  1  0
  5  6  1  0
  5  7  1  0
  7  8  1  0
  8  9  1  0
  7 10  1  0
 10 11  1  0
 11 12  1  0
 11  2  1  0
  1 13  1  0
  1 14  1  0
  2 15  1  6
  3 16  1  6
  4 17  1  0
  5 18  1  1
  6 19  1  0
  7 20  1  6
  8 21  1  0
  8 22  1  0
  9 23  1  0
 11 24  1  6
 12 25  1  0
M  END
>  <UniqueID>  (290) 
289

>  <SMILES>  (290) 
N[C@H]1[C@@H](O)O[C@@H](CO)[C@H](O)[C@@H]1O

>  <Energy>  (290) 
24.08798482492208

>  <Genealogy>  (290) 
N[C@H]1[C@@H](O)O[C@@H](CO)[C@H](O)[C@@H]1O (chirality)
N[C@H]1[C@@H](O)O[C@@H](CO)[C@H](O)[C@@H]1O (3D coordinates assigned)
N[C@H]1[C@@H](O)O[C@@H](CO)[C@H](O)[C@@H]1O (nonaromatic ring conformer: 24.08798482492208 kcal/mol)

$$$$
18897
     RDKit          3D

 25 25  0  0  0  0  0  0  0  0999 V2000
   -2.2064   -0.8872   -0.7514 N   0  0  0  0  0  0  0  0  0  0  0  0
   -1.7069   -0.1081    0.3872 C   0  0  1  0  0  0  0  0  0  0  0  0
   -0.5323   -0.8315    1.0815 C   0  0  1  0  0  0  0  0  0  0  0  0
   -0.8894   -2.1531    1.3973 O   0  0  0  0  0  0  0  0  0  0  0  0
    0.7284   -0.8058    0.1977 C   0  0  1  0  0  0  0  0  0  0  0  0
    0.5399   -1.6343   -0.9237 O   0  0  0  0  0  0  0  0  0  0  0  0
    1.0119    0.6514   -0.2412 C   0  0  1  0  0  0  0  0  0  0  0  0
    2.2436    0.7442   -1.1558 C   0  0  0  0  0  0  0  0  0  0  0  0
    3.3844    0.2318   -0.5205 O   0  0  0  0  0  0  0  0  0  0  0  0
   -0.1027    1.1993   -0.9304 O   0  0  0  0  0  0  0  0  0  0  0  0
   -1.2460    1.2904   -0.0922 C   0  0  2  0  0  0  0  0  0  0  0  0
   -0.9974    2.1468    0.9967 O   0  0  0  0  0  0  0  0  0  0  0  0
   -3.0051   -0.3688   -1.1844 H   0  0  0  0  0  0  0  0  0  0  0  0
   -2.6180   -1.7786   -0.3918 H   0  0  0  0  0  0  0  0  0  0  0  0
   -2.5332    0.0175    1.1240 H   0  0  0  0  0  0  0  0  0  0  0  0
   -0.3107   -0.2830    2.0282 H   0  0  0  0  0  0  0  0  0  0  0  0
   -0.2156   -2.4852    2.0467 H   0  0  0  0  0  0  0  0  0  0  0  0
    1.5816   -1.1760    0.8155 H   0  0  0  0  0  0  0  0  0  0  0  0
    1.4214   -2.0335   -1.1449 H   0  0  0  0  0  0  0  0  0  0  0  0
    1.2469    1.2609    0.6619 H   0  0  0  0  0  0  0  0  0  0  0  0
    2.4145    1.8063   -1.4452 H   0  0  0  0  0  0  0  0  0  0  0  0
    2.0675    0.1751   -2.0931 H   0  0  0  0  0  0  0  0  0  0  0  0
    3.6651    0.9088    0.1492 H   0  0  0  0  0  0  0  0  0  0  0  0
   -2.0622    1.7380   -0.7044 H   0  0  0  0  0  0  0  0  0  0  0  0
   -1.8794    2.3745    1.3917 H   0  0  0  0  0  0  0  0  0  0  0  0
  1  2  1  0
  2  3  1  0
  3  4  1  0
  3  5  1  0
  5  6  1  0
  5  7  1  0
  7  8  1  0
  8  9  1  0
  7 10  1  0
 10 11  1  0
 11 12  1  0
 11  2  1  0
  1 13  1  0
  1 14  1  0
  2 15  1  1
  3 16  1  1
  4 17  1  0
  5 18  1  1
  6 19  1  0
  7 20  1  1
  8 21  1  0
  8 22  1  0
  9 23  1  0
 11 24  1  6
 12 25  1  0
M  END
>  <UniqueID>  (291) 
290

>  <SMILES>  (291) 
N[C@@H]1[C@@H](O)O[C@H](CO)[C@H](O)[C@@H]1O

>  <Energy>  (291) 
24.66882771450709

>  <Genealogy>  (291) 
N[C@@H]1[C@@H](O)O[C@H](CO)[C@H](O)[C@@H]1O (chirality)
N[C@@H]1[C@@H](O)O[C@H](CO)[C@H](O)[C@@H]1O (3D coordinates assigned)
N[C@@H]1[C@@H](O)O[C@H](CO)[C@H](O)[C@@H]1O (nonaromatic ring conformer: 24.66882771450709 kcal/mol)

$$$$
18897
     RDKit          3D

 25 25  0  0  0  0  0  0  0  0999 V2000
   -2.9062   -0.0432   -0.8331 N   0  0  0  0  0  0  0  0  0  0  0  0
   -1.4536   -0.2295   -0.7934 C   0  0  2  0  0  0  0  0  0  0  0  0
   -1.0417   -0.9866    0.4874 C   0  0  2  0  0  0  0  0  0  0  0  0
   -1.6389   -0.3821    1.6081 O   0  0  0  0  0  0  0  0  0  0  0  0
    0.4930   -0.9913    0.6486 C   0  0  1  0  0  0  0  0  0  0  0  0
    1.0856   -1.9113   -0.2377 O   0  0  0  0  0  0  0  0  0  0  0  0
    1.0537    0.4436    0.4701 C   0  0  1  0  0  0  0  0  0  0  0  0
    2.5823    0.4847    0.6058 C   0  0  0  0  0  0  0  0  0  0  0  0
    3.1959   -0.1250   -0.4968 O   0  0  0  0  0  0  0  0  0  0  0  0
    0.6785    0.9908   -0.7849 O   0  0  0  0  0  0  0  0  0  0  0  0
   -0.7318    1.1347   -0.8906 C   0  0  2  0  0  0  0  0  0  0  0  0
   -1.2260    2.0373    0.0679 O   0  0  0  0  0  0  0  0  0  0  0  0
   -3.1568    0.4005   -1.7468 H   0  0  0  0  0  0  0  0  0  0  0  0
   -3.3584   -0.9867   -0.8373 H   0  0  0  0  0  0  0  0  0  0  0  0
   -1.1540   -0.8395   -1.6760 H   0  0  0  0  0  0  0  0  0  0  0  0
   -1.4009   -2.0395    0.4017 H   0  0  0  0  0  0  0  0  0  0  0  0
   -1.6139   -1.0492    2.3431 H   0  0  0  0  0  0  0  0  0  0  0  0
    0.7313   -1.3320    1.6803 H   0  0  0  0  0  0  0  0  0  0  0  0
    0.9777   -1.5669   -1.1612 H   0  0  0  0  0  0  0  0  0  0  0  0
    0.6623    1.0771    1.2995 H   0  0  0  0  0  0  0  0  0  0  0  0
    2.9078    1.5476    0.6648 H   0  0  0  0  0  0  0  0  0  0  0  0
    2.8917   -0.0263    1.5454 H   0  0  0  0  0  0  0  0  0  0  0  0
    4.1733   -0.0684   -0.3342 H   0  0  0  0  0  0  0  0  0  0  0  0
   -0.9482    1.5474   -1.9020 H   0  0  0  0  0  0  0  0  0  0  0  0
   -0.8030    2.9135   -0.1287 H   0  0  0  0  0  0  0  0  0  0  0  0
  1  2  1  0
  2  3  1  0
  3  4  1  0
  3  5  1  0
  5  6  1  0
  5  7  1  0
  7  8  1  0
  8  9  1  0
  7 10  1  0
 10 11  1  0
 11 12  1  0
 11  2  1  0
  1 13  1  0
  1 14  1  0
  2 15  1  6
  3 16  1  6
  4 17  1  0
  5 18  1  1
  6 19  1  0
  7 20  1  1
  8 21  1  0
  8 22  1  0
  9 23  1  0
 11 24  1  6
 12 25  1  0
M  END
>  <UniqueID>  (292) 
291

>  <SMILES>  (292) 
N[C@H]1[C@@H](O)O[C@H](CO)[C@H](O)[C@H]1O

>  <Energy>  (292) 
24.989025370335128

>  <Genealogy>  (292) 
N[C@H]1[C@@H](O)O[C@H](CO)[C@H](O)[C@H]1O (chirality)
N[C@H]1[C@@H](O)O[C@H](CO)[C@H](O)[C@H]1O (3D coordinates assigned)
N[C@H]1[C@@H](O)O[C@H](CO)[C@H](O)[C@H]1O (nonaromatic ring conformer: 24.989025370335128 kcal/mol)

$$$$
5300
     RDKit          3D

 33 33  0  0  0  0  0  0  0  0999 V2000
    0.7895    2.5626   -2.2769 H   0  0  0  0  0  0  0  0  0  0  0  0
    0.6929    1.8414   -1.5736 O   0  0  0  0  0  0  0  0  0  0  0  0
   -0.2365    0.8053   -1.6935 C   0  0  0  0  0  0  0  0  0  0  0  0
   -0.3366   -0.0881   -0.7527 N   0  0  0  0  0  0  0  0  0  0  0  0
    0.4490   -0.0956    0.4839 C   0  0  2  0  0  0  0  0  0  0  0  0
    1.4858    0.2603    0.2830 H   0  0  0  0  0  0  0  0  0  0  0  0
    0.5349   -1.5366    1.0148 C   0  0  1  0  0  0  0  0  0  0  0  0
   -0.4957   -1.9422    1.1668 H   0  0  0  0  0  0  0  0  0  0  0  0
    1.1888   -2.3324    0.0637 O   0  0  0  0  0  0  0  0  0  0  0  0
    1.1303   -3.2673    0.3924 H   0  0  0  0  0  0  0  0  0  0  0  0
    1.2739   -1.5694    2.2233 O   0  0  0  0  0  0  0  0  0  0  0  0
    0.5805   -0.8828    3.2517 C   0  0  1  0  0  0  0  0  0  0  0  0
   -0.4414   -1.3121    3.3826 H   0  0  0  0  0  0  0  0  0  0  0  0
    1.3419   -1.1084    4.5656 C   0  0  0  0  0  0  0  0  0  0  0  0
    1.5302   -2.1985    4.6902 H   0  0  0  0  0  0  0  0  0  0  0  0
    2.3246   -0.5858    4.5310 H   0  0  0  0  0  0  0  0  0  0  0  0
    0.5896   -0.6478    5.6542 O   0  0  0  0  0  0  0  0  0  0  0  0
    1.1442   -0.8107    6.4610 H   0  0  0  0  0  0  0  0  0  0  0  0
    0.4767    0.6236    2.9095 C   0  0  2  0  0  0  0  0  0  0  0  0
    1.5098    1.0443    2.8510 H   0  0  0  0  0  0  0  0  0  0  0  0
   -0.2652    1.2869    3.9015 O   0  0  0  0  0  0  0  0  0  0  0  0
    0.0294    2.2349    3.8988 H   0  0  0  0  0  0  0  0  0  0  0  0
   -0.2153    0.8037    1.5439 C   0  0  1  0  0  0  0  0  0  0  0  0
   -1.2869    0.5006    1.6372 H   0  0  0  0  0  0  0  0  0  0  0  0
   -0.1283    2.1468    1.1420 O   0  0  0  0  0  0  0  0  0  0  0  0
   -0.8806    2.6290    1.5745 H   0  0  0  0  0  0  0  0  0  0  0  0
   -1.0755    0.7165   -2.8609 N   0  0  0  0  0  0  0  0  0  0  0  0
   -0.8033    1.5563   -3.9559 N   0  0  0  0  0  0  0  0  0  0  0  0
   -1.4343    1.4595   -5.0290 O   0  0  0  0  0  0  0  0  0  0  0  0
   -2.0984   -0.3300   -2.9676 C   0  0  0  0  0  0  0  0  0  0  0  0
   -2.5761   -0.5127   -1.9817 H   0  0  0  0  0  0  0  0  0  0  0  0
   -2.9022   -0.0246   -3.6694 H   0  0  0  0  0  0  0  0  0  0  0  0
   -1.6326   -1.2696   -3.3312 H   0  0  0  0  0  0  0  0  0  0  0  0
  1  2  1  0
  2  3  1  0
  3  4  2  0
  4  5  1  0
  5  6  1  6
  5  7  1  0
  7  8  1  1
  7  9  1  0
  9 10  1  0
  7 11  1  0
 11 12  1  0
 12 13  1  1
 12 14  1  0
 14 15  1  0
 14 16  1  0
 14 17  1  0
 17 18  1  0
 12 19  1  0
 19 20  1  6
 19 21  1  0
 21 22  1  0
 19 23  1  0
 23 24  1  1
 23 25  1  0
 25 26  1  0
  3 27  1  0
 27 28  1  0
 28 29  2  0
 27 30  1  0
 30 31  1  0
 30 32  1  0
 30 33  1  0
 23  5  1  0
M  END
>  <UniqueID>  (293) 
292

>  <SMILES>  (293) 
CN(N=O)/C(O)=N/[C@@H]1[C@@H](O)O[C@@H](CO)[C@H](O)[C@H]1O

>  <Energy>  (293) 
28.549020257706246

>  <Genealogy>  (293) 
CN(N=O)C(O)=NC1C(O)OC(CO)C(O)C1O (tautomer)
CN(N=O)C(O)=N[C@@H]1[C@@H](O)O[C@@H](CO)[C@H](O)[C@H]1O (chirality)
CN(N=O)/C(O)=N/[C@@H]1[C@@H](O)O[C@@H](CO)[C@H](O)[C@H]1O (cis-trans isomerization)
CN(N=O)/C(O)=N/[C@@H]1[C@@H](O)O[C@@H](CO)[C@H](O)[C@H]1O (3D coordinates assigned)
CN(N=O)/C(O)=N/[C@@H]1[C@@H](O)O[C@@H](CO)[C@H](O)[C@H]1O (nonaromatic ring conformer: 28.549020257706246 kcal/mol)

$$$$
5300
     RDKit          3D

 33 33  0  0  0  0  0  0  0  0999 V2000
    3.9134    0.4153    0.2286 H   0  0  0  0  0  0  0  0  0  0  0  0
    2.9522    0.1306    0.0902 O   0  0  0  0  0  0  0  0  0  0  0  0
    2.4154   -0.0871   -1.1798 C   0  0  0  0  0  0  0  0  0  0  0  0
    1.1781   -0.4748   -1.3137 N   0  0  0  0  0  0  0  0  0  0  0  0
    0.2013   -0.7372   -0.2479 C   0  0  2  0  0  0  0  0  0  0  0  0
   -0.7521   -1.0252   -0.7447 H   0  0  0  0  0  0  0  0  0  0  0  0
   -0.0945    0.5192    0.5989 C   0  0  1  0  0  0  0  0  0  0  0  0
    0.8299    0.8720    1.1125 H   0  0  0  0  0  0  0  0  0  0  0  0
   -0.5481    1.5399   -0.2482 O   0  0  0  0  0  0  0  0  0  0  0  0
   -0.6352    2.3535    0.3139 H   0  0  0  0  0  0  0  0  0  0  0  0
   -1.1046    0.2329    1.5534 O   0  0  0  0  0  0  0  0  0  0  0  0
   -0.6476   -0.7247    2.4968 C   0  0  1  0  0  0  0  0  0  0  0  0
    0.2924   -0.3691    2.9815 H   0  0  0  0  0  0  0  0  0  0  0  0
   -1.6954   -0.8529    3.6097 C   0  0  0  0  0  0  0  0  0  0  0  0
   -1.8088    0.1339    4.1122 H   0  0  0  0  0  0  0  0  0  0  0  0
   -1.3546   -1.5904    4.3705 H   0  0  0  0  0  0  0  0  0  0  0  0
   -2.9295   -1.2501    3.0771 O   0  0  0  0  0  0  0  0  0  0  0  0
   -3.5532   -1.3146    3.8463 H   0  0  0  0  0  0  0  0  0  0  0  0
   -0.3874   -2.0892    1.8028 C   0  0  2  0  0  0  0  0  0  0  0  0
   -1.3449   -2.4508    1.3669 H   0  0  0  0  0  0  0  0  0  0  0  0
    0.0640   -3.0557    2.7199 O   0  0  0  0  0  0  0  0  0  0  0  0
    0.8976   -2.7111    3.1352 H   0  0  0  0  0  0  0  0  0  0  0  0
    0.6333   -1.9097    0.6588 C   0  0  1  0  0  0  0  0  0  0  0  0
    1.6188   -1.6775    1.1135 H   0  0  0  0  0  0  0  0  0  0  0  0
    0.7734   -3.0970   -0.0821 O   0  0  0  0  0  0  0  0  0  0  0  0
   -0.1091   -3.3090   -0.4848 H   0  0  0  0  0  0  0  0  0  0  0  0
    3.2295    0.1208   -2.3500 N   0  0  0  0  0  0  0  0  0  0  0  0
    4.4794    0.7490   -2.2026 N   0  0  0  0  0  0  0  0  0  0  0  0
    5.1861    1.0424   -3.1893 O   0  0  0  0  0  0  0  0  0  0  0  0
    2.7051   -0.1769   -3.6877 C   0  0  0  0  0  0  0  0  0  0  0  0
    2.1033    0.6823   -4.0508 H   0  0  0  0  0  0  0  0  0  0  0  0
    2.0710   -1.0885   -3.6657 H   0  0  0  0  0  0  0  0  0  0  0  0
    3.5329   -0.3712   -4.4009 H   0  0  0  0  0  0  0  0  0  0  0  0
  1  2  1  0
  2  3  1  0
  3  4  2  0
  4  5  1  0
  5  6  1  6
  5  7  1  0
  7  8  1  1
  7  9  1  0
  9 10  1  0
  7 11  1  0
 11 12  1  0
 12 13  1  1
 12 14  1  0
 14 15  1  0
 14 16  1  0
 14 17  1  0
 17 18  1  0
 12 19  1  0
 19 20  1  6
 19 21  1  0
 21 22  1  0
 19 23  1  0
 23 24  1  1
 23 25  1  0
 25 26  1  0
  3 27  1  0
 27 28  1  0
 28 29  2  0
 27 30  1  0
 30 31  1  0
 30 32  1  0
 30 33  1  0
 23  5  1  0
M  END
>  <UniqueID>  (294) 
293

>  <SMILES>  (294) 
CN(N=O)/C(O)=N\[C@@H]1[C@@H](O)O[C@@H](CO)[C@H](O)[C@H]1O

>  <Energy>  (294) 
31.820477473054925

>  <Genealogy>  (294) 
CN(N=O)C(O)=NC1C(O)OC(CO)C(O)C1O (tautomer)
CN(N=O)C(O)=N[C@@H]1[C@@H](O)O[C@@H](CO)[C@H](O)[C@H]1O (chirality)
CN(N=O)/C(O)=N\[C@@H]1[C@@H](O)O[C@@H](CO)[C@H](O)[C@H]1O (cis-trans isomerization)
CN(N=O)/C(O)=N\[C@@H]1[C@@H](O)O[C@@H](CO)[C@H](O)[C@H]1O (3D coordinates assigned)
CN(N=O)/C(O)=N\[C@@H]1[C@@H](O)O[C@@H](CO)[C@H](O)[C@H]1O (nonaromatic ring conformer: 31.820477473054925 kcal/mol)

$$$$
5300
     RDKit          3D

 33 33  0  0  0  0  0  0  0  0999 V2000
   -0.4684    4.6935    0.1213 H   0  0  0  0  0  0  0  0  0  0  0  0
   -1.2795    4.2367    0.5216 O   0  0  0  0  0  0  0  0  0  0  0  0
   -1.4434    2.8576    0.4343 C   0  0  0  0  0  0  0  0  0  0  0  0
   -0.5358    2.1425   -0.1659 N   0  0  0  0  0  0  0  0  0  0  0  0
   -0.5315    0.6804   -0.2797 C   0  0  2  0  0  0  0  0  0  0  0  0
   -1.5328    0.3253   -0.6056 H   0  0  0  0  0  0  0  0  0  0  0  0
   -0.1804    0.0243    1.0765 C   0  0  2  0  0  0  0  0  0  0  0  0
   -1.0241    0.1708    1.7905 H   0  0  0  0  0  0  0  0  0  0  0  0
    0.9932    0.5892    1.6084 O   0  0  0  0  0  0  0  0  0  0  0  0
    0.7250    1.4081    2.1016 H   0  0  0  0  0  0  0  0  0  0  0  0
    0.0229   -1.4885    0.8972 C   0  0  1  0  0  0  0  0  0  0  0  0
    0.4478   -1.8924    1.8476 H   0  0  0  0  0  0  0  0  0  0  0  0
   -1.2200   -2.0889    0.6250 O   0  0  0  0  0  0  0  0  0  0  0  0
   -1.2044   -2.9935    1.0335 H   0  0  0  0  0  0  0  0  0  0  0  0
    1.0135   -1.7445   -0.2659 C   0  0  1  0  0  0  0  0  0  0  0  0
    2.0083   -1.3120   -0.0045 H   0  0  0  0  0  0  0  0  0  0  0  0
    1.2403   -3.2453   -0.5063 C   0  0  0  0  0  0  0  0  0  0  0  0
    0.2874   -3.7339   -0.8005 H   0  0  0  0  0  0  0  0  0  0  0  0
    1.9538   -3.3843   -1.3504 H   0  0  0  0  0  0  0  0  0  0  0  0
    1.7352   -3.8718    0.6470 O   0  0  0  0  0  0  0  0  0  0  0  0
    2.6875   -3.6036    0.7297 H   0  0  0  0  0  0  0  0  0  0  0  0
    0.5248   -1.1638   -1.4632 O   0  0  0  0  0  0  0  0  0  0  0  0
    0.4887    0.2490   -1.3561 C   0  0  1  0  0  0  0  0  0  0  0  0
    1.5056    0.6393   -1.1011 H   0  0  0  0  0  0  0  0  0  0  0  0
    0.1010    0.7679   -2.6016 O   0  0  0  0  0  0  0  0  0  0  0  0
    0.4152    1.7092   -2.6379 H   0  0  0  0  0  0  0  0  0  0  0  0
   -2.6040    2.2542    1.0246 N   0  0  0  0  0  0  0  0  0  0  0  0
   -3.6565    1.7869    0.2190 N   0  0  0  0  0  0  0  0  0  0  0  0
   -3.5961    1.8425   -1.0270 O   0  0  0  0  0  0  0  0  0  0  0  0
   -2.8475    2.4344    2.4499 C   0  0  0  0  0  0  0  0  0  0  0  0
   -3.3372    3.4154    2.6237 H   0  0  0  0  0  0  0  0  0  0  0  0
   -1.8900    2.3964    3.0126 H   0  0  0  0  0  0  0  0  0  0  0  0
   -3.5076    1.6247    2.8266 H   0  0  0  0  0  0  0  0  0  0  0  0
  1  2  1  0
  2  3  1  0
  3  4  2  0
  4  5  1  0
  5  6  1  6
  5  7  1  0
  7  8  1  1
  7  9  1  0
  9 10  1  0
  7 11  1  0
 11 12  1  1
 11 13  1  0
 13 14  1  0
 11 15  1  0
 15 16  1  1
 15 17  1  0
 17 18  1  0
 17 19  1  0
 17 20  1  0
 20 21  1  0
 15 22  1  0
 22 23  1  0
 23 24  1  1
 23 25  1  0
 25 26  1  0
  3 27  1  0
 27 28  1  0
 28 29  2  0
 27 30  1  0
 30 31  1  0
 30 32  1  0
 30 33  1  0
 23  5  1  0
M  END
>  <UniqueID>  (295) 
294

>  <SMILES>  (295) 
CN(N=O)/C(O)=N/[C@@H]1[C@H](O)[C@@H](O)[C@@H](CO)O[C@H]1O

>  <Energy>  (295) 
35.06507588321634

>  <Genealogy>  (295) 
CN(N=O)C(O)=NC1C(O)OC(CO)C(O)C1O (tautomer)
CN(N=O)C(O)=N[C@@H]1[C@H](O)[C@@H](O)[C@@H](CO)O[C@H]1O (chirality)
CN(N=O)/C(O)=N/[C@@H]1[C@H](O)[C@@H](O)[C@@H](CO)O[C@H]1O (cis-trans isomerization)
CN(N=O)/C(O)=N/[C@@H]1[C@H](O)[C@@H](O)[C@@H](CO)O[C@H]1O (3D coordinates assigned)
CN(N=O)/C(O)=N/[C@@H]1[C@H](O)[C@@H](O)[C@@H](CO)O[C@H]1O (nonaromatic ring conformer: 35.06507588321634 kcal/mol)

$$$$
899
     RDKit          3D

 30 30  0  0  0  0  0  0  0  0999 V2000
    2.9930   -0.4733   -1.8449 H   0  0  0  0  0  0  0  0  0  0  0  0
    3.4615   -0.0606   -1.0494 O   0  0  0  0  0  0  0  0  0  0  0  0
    2.8743    0.0632    0.2131 C   0  0  0  0  0  0  0  0  0  0  0  0
    1.6650   -0.3514    0.4628 N   0  0  0  0  0  0  0  0  0  0  0  0
    0.7396   -0.9662   -0.4942 C   0  0  1  0  0  0  0  0  0  0  0  0
    1.2789   -1.7310   -1.0959 H   0  0  0  0  0  0  0  0  0  0  0  0
   -0.3790   -1.6884    0.2822 C   0  0  1  0  0  0  0  0  0  0  0  0
   -1.0163   -2.2676   -0.4281 H   0  0  0  0  0  0  0  0  0  0  0  0
    0.2007   -2.6002    1.1762 O   0  0  0  0  0  0  0  0  0  0  0  0
   -0.5485   -3.1026    1.5908 H   0  0  0  0  0  0  0  0  0  0  0  0
   -1.1554   -0.7550    1.0131 O   0  0  0  0  0  0  0  0  0  0  0  0
   -1.8865    0.0809    0.1317 C   0  0  1  0  0  0  0  0  0  0  0  0
   -2.5212   -0.5289   -0.5526 H   0  0  0  0  0  0  0  0  0  0  0  0
   -2.8387    0.9462    0.9656 C   0  0  0  0  0  0  0  0  0  0  0  0
   -2.2521    1.5746    1.6736 H   0  0  0  0  0  0  0  0  0  0  0  0
   -3.4268    1.6133    0.2962 H   0  0  0  0  0  0  0  0  0  0  0  0
   -3.7159    0.1236    1.6841 O   0  0  0  0  0  0  0  0  0  0  0  0
   -4.2982    0.7330    2.2081 H   0  0  0  0  0  0  0  0  0  0  0  0
   -0.9228    0.9697   -0.6906 C   0  0  2  0  0  0  0  0  0  0  0  0
   -0.3901    1.6472    0.0189 H   0  0  0  0  0  0  0  0  0  0  0  0
   -1.6504    1.7372   -1.6157 O   0  0  0  0  0  0  0  0  0  0  0  0
   -1.0459    2.4625   -1.9231 H   0  0  0  0  0  0  0  0  0  0  0  0
    0.1365    0.1134   -1.4259 C   0  0  2  0  0  0  0  0  0  0  0  0
    0.9485    0.8016   -1.7446 H   0  0  0  0  0  0  0  0  0  0  0  0
   -0.3782   -0.4630   -2.6033 O   0  0  0  0  0  0  0  0  0  0  0  0
   -1.1526   -1.0313   -2.3620 H   0  0  0  0  0  0  0  0  0  0  0  0
    3.6692    0.6727    1.3183 C   0  0  0  0  0  0  0  0  0  0  0  0
    3.9249   -0.1064    2.0665 H   0  0  0  0  0  0  0  0  0  0  0  0
    3.0793    1.4748    1.8100 H   0  0  0  0  0  0  0  0  0  0  0  0
    4.6073    1.1122    0.9191 H   0  0  0  0  0  0  0  0  0  0  0  0
  1  2  1  0
  2  3  1  0
  3  4  2  0
  4  5  1  0
  5  6  1  6
  5  7  1  0
  7  8  1  6
  7  9  1  0
  9 10  1  0
  7 11  1  0
 11 12  1  0
 12 13  1  6
 12 14  1  0
 14 15  1  0
 14 16  1  0
 14 17  1  0
 17 18  1  0
 12 19  1  0
 19 20  1  1
 19 21  1  0
 21 22  1  0
 19 23  1  0
 23 24  1  6
 23 25  1  0
 25 26  1  0
  3 27  1  0
 27 28  1  0
 27 29  1  0
 27 30  1  0
 23  5  1  0
M  END
>  <UniqueID>  (296) 
295

>  <SMILES>  (296) 
C/C(O)=N/[C@H]1[C@@H](O)O[C@@H](CO)[C@H](O)[C@@H]1O

>  <Energy>  (296) 
26.912481332775567

>  <Genealogy>  (296) 
CC(O)=NC1C(O)OC(CO)C(O)C1O (tautomer)
CC(O)=N[C@H]1[C@@H](O)O[C@@H](CO)[C@H](O)[C@@H]1O (chirality)
C/C(O)=N/[C@H]1[C@@H](O)O[C@@H](CO)[C@H](O)[C@@H]1O (cis-trans isomerization)
C/C(O)=N/[C@H]1[C@@H](O)O[C@@H](CO)[C@H](O)[C@@H]1O (3D coordinates assigned)
C/C(O)=N/[C@H]1[C@@H](O)O[C@@H](CO)[C@H](O)[C@@H]1O (nonaromatic ring conformer: 26.912481332775567 kcal/mol)

$$$$
899
     RDKit          3D

 30 30  0  0  0  0  0  0  0  0999 V2000
   -0.9153    3.0199    1.5862 H   0  0  0  0  0  0  0  0  0  0  0  0
   -0.9914    2.5061    2.4540 O   0  0  0  0  0  0  0  0  0  0  0  0
   -0.4372    1.2381    2.6512 C   0  0  0  0  0  0  0  0  0  0  0  0
    0.2295    0.6165    1.7208 N   0  0  0  0  0  0  0  0  0  0  0  0
    0.4824    1.0992    0.3595 C   0  0  1  0  0  0  0  0  0  0  0  0
    0.7949    2.1663    0.3939 H   0  0  0  0  0  0  0  0  0  0  0  0
    1.6453    0.2890   -0.2531 C   0  0  1  0  0  0  0  0  0  0  0  0
    1.9368    0.7157   -1.2434 H   0  0  0  0  0  0  0  0  0  0  0  0
    2.7639    0.3537    0.5921 O   0  0  0  0  0  0  0  0  0  0  0  0
    3.1381    1.2698    0.5071 H   0  0  0  0  0  0  0  0  0  0  0  0
    1.2749   -1.0696   -0.3960 O   0  0  0  0  0  0  0  0  0  0  0  0
    0.2581   -1.2130   -1.3736 C   0  0  1  0  0  0  0  0  0  0  0  0
    0.5902   -0.7768   -2.3443 H   0  0  0  0  0  0  0  0  0  0  0  0
    0.0423   -2.7180   -1.6081 C   0  0  0  0  0  0  0  0  0  0  0  0
    1.0218   -3.2102   -1.8077 H   0  0  0  0  0  0  0  0  0  0  0  0
   -0.3811   -3.1867   -0.6940 H   0  0  0  0  0  0  0  0  0  0  0  0
   -0.8306   -2.9473   -2.6817 O   0  0  0  0  0  0  0  0  0  0  0  0
   -0.3167   -2.7626   -3.5109 H   0  0  0  0  0  0  0  0  0  0  0  0
   -1.0462   -0.5261   -0.8953 C   0  0  2  0  0  0  0  0  0  0  0  0
   -1.4052   -1.0659    0.0134 H   0  0  0  0  0  0  0  0  0  0  0  0
   -2.0260   -0.5942   -1.8997 O   0  0  0  0  0  0  0  0  0  0  0  0
   -2.8962   -0.3966   -1.4643 H   0  0  0  0  0  0  0  0  0  0  0  0
   -0.7907    0.9506   -0.5078 C   0  0  2  0  0  0  0  0  0  0  0  0
   -1.6667    1.2883    0.0865 H   0  0  0  0  0  0  0  0  0  0  0  0
   -0.7335    1.7880   -1.6386 O   0  0  0  0  0  0  0  0  0  0  0  0
   -0.0031    1.4705   -2.2275 H   0  0  0  0  0  0  0  0  0  0  0  0
   -0.5975    0.5833    3.9817 C   0  0  0  0  0  0  0  0  0  0  0  0
    0.3847    0.5421    4.4972 H   0  0  0  0  0  0  0  0  0  0  0  0
   -0.9872   -0.4483    3.8505 H   0  0  0  0  0  0  0  0  0  0  0  0
   -1.3110    1.1580    4.6089 H   0  0  0  0  0  0  0  0  0  0  0  0
  1  2  1  0
  2  3  1  0
  3  4  2  0
  4  5  1  0
  5  6  1  1
  5  7  1  0
  7  8  1  6
  7  9  1  0
  9 10  1  0
  7 11  1  0
 11 12  1  0
 12 13  1  6
 12 14  1  0
 14 15  1  0
 14 16  1  0
 14 17  1  0
 17 18  1  0
 12 19  1  0
 19 20  1  1
 19 21  1  0
 21 22  1  0
 19 23  1  0
 23 24  1  1
 23 25  1  0
 25 26  1  0
  3 27  1  0
 27 28  1  0
 27 29  1  0
 27 30  1  0
 23  5  1  0
M  END
>  <UniqueID>  (297) 
296

>  <SMILES>  (297) 
C/C(O)=N\[C@H]1[C@@H](O)O[C@@H](CO)[C@H](O)[C@@H]1O

>  <Energy>  (297) 
28.301854452719354

>  <Genealogy>  (297) 
CC(O)=NC1C(O)OC(CO)C(O)C1O (tautomer)
CC(O)=N[C@H]1[C@@H](O)O[C@@H](CO)[C@H](O)[C@@H]1O (chirality)
C/C(O)=N\[C@H]1[C@@H](O)O[C@@H](CO)[C@H](O)[C@@H]1O (cis-trans isomerization)
C/C(O)=N\[C@H]1[C@@H](O)O[C@@H](CO)[C@H](O)[C@@H]1O (3D coordinates assigned)
C/C(O)=N\[C@H]1[C@@H](O)O[C@@H](CO)[C@H](O)[C@@H]1O (nonaromatic ring conformer: 28.301854452719354 kcal/mol)

$$$$
899
     RDKit          3D

 30 30  0  0  0  0  0  0  0  0999 V2000
    1.9574    2.8817    2.8983 H   0  0  0  0  0  0  0  0  0  0  0  0
    1.4322    2.3121    2.2459 O   0  0  0  0  0  0  0  0  0  0  0  0
    0.2218    1.7243    2.6125 C   0  0  0  0  0  0  0  0  0  0  0  0
   -0.4552    1.0140    1.7604 N   0  0  0  0  0  0  0  0  0  0  0  0
   -0.0254    0.7327    0.3881 C   0  0  1  0  0  0  0  0  0  0  0  0
    0.3706    1.6680   -0.0677 H   0  0  0  0  0  0  0  0  0  0  0  0
    1.0837   -0.3408    0.3814 C   0  0  1  0  0  0  0  0  0  0  0  0
    1.9769    0.1194    0.8602 H   0  0  0  0  0  0  0  0  0  0  0  0
    0.7097   -1.4561    1.1486 O   0  0  0  0  0  0  0  0  0  0  0  0
    1.5184   -2.0262    1.2283 H   0  0  0  0  0  0  0  0  0  0  0  0
    1.4747   -0.7218   -0.9330 O   0  0  0  0  0  0  0  0  0  0  0  0
    0.4069   -1.1986   -1.7467 C   0  0  1  0  0  0  0  0  0  0  0  0
    0.8234   -1.2685   -2.7762 H   0  0  0  0  0  0  0  0  0  0  0  0
   -0.0145   -2.6384   -1.3788 C   0  0  0  0  0  0  0  0  0  0  0  0
    0.8934   -3.2207   -1.1135 H   0  0  0  0  0  0  0  0  0  0  0  0
   -0.6921   -2.6575   -0.4966 H   0  0  0  0  0  0  0  0  0  0  0  0
   -0.6231   -3.2686   -2.4755 O   0  0  0  0  0  0  0  0  0  0  0  0
   -1.5969   -3.0881   -2.4114 H   0  0  0  0  0  0  0  0  0  0  0  0
   -0.7815   -0.2039   -1.8294 C   0  0  2  0  0  0  0  0  0  0  0  0
   -1.6441   -0.7147   -2.3085 H   0  0  0  0  0  0  0  0  0  0  0  0
   -0.4616    0.8968   -2.6487 O   0  0  0  0  0  0  0  0  0  0  0  0
    0.4066    1.2690   -2.3460 H   0  0  0  0  0  0  0  0  0  0  0  0
   -1.2315    0.2595   -0.4348 C   0  0  2  0  0  0  0  0  0  0  0  0
   -1.7111   -0.6056    0.0816 H   0  0  0  0  0  0  0  0  0  0  0  0
   -2.1667    1.3001   -0.5702 O   0  0  0  0  0  0  0  0  0  0  0  0
   -2.6908    1.3317    0.2724 H   0  0  0  0  0  0  0  0  0  0  0  0
   -0.3261    1.9450    3.9855 C   0  0  0  0  0  0  0  0  0  0  0  0
    0.4975    1.9137    4.7290 H   0  0  0  0  0  0  0  0  0  0  0  0
   -0.8199    2.9378    4.0299 H   0  0  0  0  0  0  0  0  0  0  0  0
   -1.0664    1.1578    4.2435 H   0  0  0  0  0  0  0  0  0  0  0  0
  1  2  1  0
  2  3  1  0
  3  4  2  0
  4  5  1  0
  5  6  1  6
  5  7  1  0
  7  8  1  1
  7  9  1  0
  9 10  1  0
  7 11  1  0
 11 12  1  0
 12 13  1  6
 12 14  1  0
 14 15  1  0
 14 16  1  0
 14 17  1  0
 17 18  1  0
 12 19  1  0
 19 20  1  6
 19 21  1  0
 21 22  1  0
 19 23  1  0
 23 24  1  1
 23 25  1  0
 25 26  1  0
  3 27  1  0
 27 28  1  0
 27 29  1  0
 27 30  1  0
 23  5  1  0
M  END
>  <UniqueID>  (298) 
297

>  <SMILES>  (298) 
C/C(O)=N\[C@H]1[C@@H](O)O[C@@H](CO)[C@H](O)[C@@H]1O

>  <Energy>  (298) 
32.06582522986338

>  <Genealogy>  (298) 
CC(O)=NC1C(O)OC(CO)C(O)C1O (tautomer)
CC(O)=N[C@H]1[C@@H](O)O[C@@H](CO)[C@H](O)[C@@H]1O (chirality)
C/C(O)=N\[C@H]1[C@@H](O)O[C@@H](CO)[C@H](O)[C@@H]1O (cis-trans isomerization)
C/C(O)=N\[C@H]1[C@@H](O)O[C@@H](CO)[C@H](O)[C@@H]1O (3D coordinates assigned)
C/C(O)=N\[C@H]1[C@@H](O)O[C@@H](CO)[C@H](O)[C@@H]1O (nonaromatic ring conformer: 32.06582522986338 kcal/mol)

$$$$
739
     RDKit          3D

 25 25  0  0  0  0  0  0  0  0999 V2000
   -1.5636   -2.3901    0.3560 N   0  0  0  0  0  0  0  0  0  0  0  0
   -0.6339   -1.3182   -0.0108 C   0  0  1  0  0  0  0  0  0  0  0  0
   -0.7129   -0.1595    1.0075 C   0  0  2  0  0  0  0  0  0  0  0  0
   -2.0106    0.3711    1.0007 O   0  0  0  0  0  0  0  0  0  0  0  0
    0.1974    0.8684    0.6535 O   0  0  0  0  0  0  0  0  0  0  0  0
    1.5364    0.4131    0.7563 C   0  0  2  0  0  0  0  0  0  0  0  0
    2.4759    1.6061    0.5255 C   0  0  0  0  0  0  0  0  0  0  0  0
    2.2726    2.5853    1.5089 O   0  0  0  0  0  0  0  0  0  0  0  0
    1.7997   -0.7001   -0.2837 C   0  0  1  0  0  0  0  0  0  0  0  0
    3.1207   -1.1646   -0.1690 O   0  0  0  0  0  0  0  0  0  0  0  0
    0.8074   -1.8616   -0.0717 C   0  0  1  0  0  0  0  0  0  0  0  0
    1.1058   -2.5478    1.1202 O   0  0  0  0  0  0  0  0  0  0  0  0
   -1.4829   -3.1532   -0.3551 H   0  0  0  0  0  0  0  0  0  0  0  0
   -2.5407   -2.0272    0.2707 H   0  0  0  0  0  0  0  0  0  0  0  0
   -0.9078   -0.9260   -1.0180 H   0  0  0  0  0  0  0  0  0  0  0  0
   -0.4948   -0.5462    2.0329 H   0  0  0  0  0  0  0  0  0  0  0  0
   -2.0470    1.0335    1.7392 H   0  0  0  0  0  0  0  0  0  0  0  0
    1.7412    0.0255    1.7824 H   0  0  0  0  0  0  0  0  0  0  0  0
    3.5326    1.2702    0.5894 H   0  0  0  0  0  0  0  0  0  0  0  0
    2.3178    2.0351   -0.4912 H   0  0  0  0  0  0  0  0  0  0  0  0
    1.4850    3.1185    1.2244 H   0  0  0  0  0  0  0  0  0  0  0  0
    1.6396   -0.2745   -1.3031 H   0  0  0  0  0  0  0  0  0  0  0  0
    3.3158   -1.6772   -0.9967 H   0  0  0  0  0  0  0  0  0  0  0  0
    0.8798   -2.5595   -0.9397 H   0  0  0  0  0  0  0  0  0  0  0  0
    1.8257   -3.1979    0.9087 H   0  0  0  0  0  0  0  0  0  0  0  0
  1  2  1  0
  2  3  1  0
  3  4  1  0
  3  5  1  0
  5  6  1  0
  6  7  1  0
  7  8  1  0
  6  9  1  0
  9 10  1  0
  9 11  1  0
 11 12  1  0
 11  2  1  0
  1 13  1  0
  1 14  1  0
  2 15  1  6
  3 16  1  1
  4 17  1  0
  6 18  1  1
  7 19  1  0
  7 20  1  0
  8 21  1  0
  9 22  1  6
 10 23  1  0
 11 24  1  6
 12 25  1  0
M  END
>  <UniqueID>  (299) 
298

>  <SMILES>  (299) 
N[C@@H]1[C@H](O)[C@H](O)[C@@H](CO)O[C@H]1O

>  <Energy>  (299) 
21.360478708153106

>  <Genealogy>  (299) 
N[C@@H]1[C@H](O)[C@H](O)[C@@H](CO)O[C@H]1O (chirality)
N[C@@H]1[C@H](O)[C@H](O)[C@@H](CO)O[C@H]1O (3D coordinates assigned)
N[C@@H]1[C@H](O)[C@H](O)[C@@H](CO)O[C@H]1O (nonaromatic ring conformer: 21.360478708153106 kcal/mol)

$$$$
739
     RDKit          3D

 25 25  0  0  0  0  0  0  0  0999 V2000
    0.7284    1.2115   -2.0274 N   0  0  0  0  0  0  0  0  0  0  0  0
    0.4090    0.2545   -0.9630 C   0  0  2  0  0  0  0  0  0  0  0  0
   -0.8892   -0.5072   -1.3072 C   0  0  1  0  0  0  0  0  0  0  0  0
   -0.6906   -1.2325   -2.4908 O   0  0  0  0  0  0  0  0  0  0  0  0
   -1.2404   -1.4206   -0.2778 O   0  0  0  0  0  0  0  0  0  0  0  0
   -1.4915   -0.7779    0.9647 C   0  0  2  0  0  0  0  0  0  0  0  0
   -2.8102    0.0305    0.9624 C   0  0  0  0  0  0  0  0  0  0  0  0
   -3.8440   -0.7159    0.3794 O   0  0  0  0  0  0  0  0  0  0  0  0
   -0.2598    0.0230    1.4536 C   0  0  2  0  0  0  0  0  0  0  0  0
   -0.5588    0.7318    2.6291 O   0  0  0  0  0  0  0  0  0  0  0  0
    0.2360    0.9970    0.3741 C   0  0  1  0  0  0  0  0  0  0  0  0
    1.4695    1.5450    0.7654 O   0  0  0  0  0  0  0  0  0  0  0  0
    1.6289    1.6875   -1.7901 H   0  0  0  0  0  0  0  0  0  0  0  0
    0.9197    0.6811   -2.9081 H   0  0  0  0  0  0  0  0  0  0  0  0
    1.2412   -0.4813   -0.8662 H   0  0  0  0  0  0  0  0  0  0  0  0
   -1.7094    0.2254   -1.4865 H   0  0  0  0  0  0  0  0  0  0  0  0
   -1.5740   -1.6100   -2.7417 H   0  0  0  0  0  0  0  0  0  0  0  0
   -1.6410   -1.5917    1.7079 H   0  0  0  0  0  0  0  0  0  0  0  0
   -2.6994    0.9795    0.4008 H   0  0  0  0  0  0  0  0  0  0  0  0
   -3.0873    0.3072    2.0051 H   0  0  0  0  0  0  0  0  0  0  0  0
   -4.0962   -1.4146    1.0382 H   0  0  0  0  0  0  0  0  0  0  0  0
    0.5640   -0.7015    1.6604 H   0  0  0  0  0  0  0  0  0  0  0  0
   -0.6198    0.0618    3.3593 H   0  0  0  0  0  0  0  0  0  0  0  0
   -0.5104    1.8145    0.2338 H   0  0  0  0  0  0  0  0  0  0  0  0
    1.2711    2.2717    1.4121 H   0  0  0  0  0  0  0  0  0  0  0  0
  1  2  1  0
  2  3  1  0
  3  4  1  0
  3  5  1  0
  5  6  1  0
  6  7  1  0
  7  8  1  0
  6  9  1  0
  9 10  1  0
  9 11  1  0
 11 12  1  0
 11  2  1  0
  1 13  1  0
  1 14  1  0
  2 15  1  1
  3 16  1  6
  4 17  1  0
  6 18  1  1
  7 19  1  0
  7 20  1  0
  8 21  1  0
  9 22  1  1
 10 23  1  0
 11 24  1  6
 12 25  1  0
M  END
>  <UniqueID>  (300) 
299

>  <SMILES>  (300) 
N[C@@H]1[C@@H](O)O[C@H](CO)[C@H](O)[C@H]1O

>  <Energy>  (300) 
24.88680481430036

>  <Genealogy>  (300) 
N[C@@H]1[C@@H](O)O[C@H](CO)[C@H](O)[C@H]1O (chirality)
N[C@@H]1[C@@H](O)O[C@H](CO)[C@H](O)[C@H]1O (3D coordinates assigned)
N[C@@H]1[C@@H](O)O[C@H](CO)[C@H](O)[C@H]1O (nonaromatic ring conformer: 24.88680481430036 kcal/mol)

$$$$
739
     RDKit          3D

 25 25  0  0  0  0  0  0  0  0999 V2000
    0.2995    2.0377   -1.3891 N   0  0  0  0  0  0  0  0  0  0  0  0
    0.5979    0.6460   -1.0327 C   0  0  2  0  0  0  0  0  0  0  0  0
   -0.4416   -0.3257   -1.6498 C   0  0  1  0  0  0  0  0  0  0  0  0
    0.0212   -1.6543   -1.6198 O   0  0  0  0  0  0  0  0  0  0  0  0
   -1.7026   -0.2207   -1.0063 O   0  0  0  0  0  0  0  0  0  0  0  0
   -1.6205   -0.5698    0.3670 C   0  0  2  0  0  0  0  0  0  0  0  0
   -3.0453   -0.6221    0.9392 C   0  0  0  0  0  0  0  0  0  0  0  0
   -3.0356   -1.0894    2.2623 O   0  0  0  0  0  0  0  0  0  0  0  0
   -0.7308    0.4344    1.1359 C   0  0  2  0  0  0  0  0  0  0  0  0
   -1.3215    1.7097    1.1251 O   0  0  0  0  0  0  0  0  0  0  0  0
    0.6738    0.4873    0.5030 C   0  0  1  0  0  0  0  0  0  0  0  0
    1.3639   -0.6938    0.8276 O   0  0  0  0  0  0  0  0  0  0  0  0
    0.5134    2.1720   -2.4043 H   0  0  0  0  0  0  0  0  0  0  0  0
   -0.7216    2.2279   -1.2716 H   0  0  0  0  0  0  0  0  0  0  0  0
    1.6004    0.4030   -1.4530 H   0  0  0  0  0  0  0  0  0  0  0  0
   -0.5958   -0.0353   -2.7145 H   0  0  0  0  0  0  0  0  0  0  0  0
    0.7436   -1.7239   -2.2973 H   0  0  0  0  0  0  0  0  0  0  0  0
   -1.1996   -1.5951    0.4853 H   0  0  0  0  0  0  0  0  0  0  0  0
   -3.5399    0.3745    0.8665 H   0  0  0  0  0  0  0  0  0  0  0  0
   -3.6476   -1.3284    0.3289 H   0  0  0  0  0  0  0  0  0  0  0  0
   -2.9787   -0.2914    2.8498 H   0  0  0  0  0  0  0  0  0  0  0  0
   -0.6284    0.0848    2.1904 H   0  0  0  0  0  0  0  0  0  0  0  0
   -0.8889    2.2337    1.8489 H   0  0  0  0  0  0  0  0  0  0  0  0
    1.2244    1.3559    0.9364 H   0  0  0  0  0  0  0  0  0  0  0  0
    2.3299   -0.5132    0.6854 H   0  0  0  0  0  0  0  0  0  0  0  0
  1  2  1  0
  2  3  1  0
  3  4  1  0
  3  5  1  0
  5  6  1  0
  6  7  1  0
  7  8  1  0
  6  9  1  0
  9 10  1  0
  9 11  1  0
 11 12  1  0
 11  2  1  0
  1 13  1  0
  1 14  1  0
  2 15  1  6
  3 16  1  6
  4 17  1  0
  6 18  1  6
  7 19  1  0
  7 20  1  0
  8 21  1  0
  9 22  1  1
 10 23  1  0
 11 24  1  1
 12 25  1  0
M  END
>  <UniqueID>  (301) 
300

>  <SMILES>  (301) 
N[C@@H]1[C@@H](O)O[C@H](CO)[C@H](O)[C@H]1O

>  <Energy>  (301) 
25.50597409867819

>  <Genealogy>  (301) 
N[C@@H]1[C@@H](O)O[C@H](CO)[C@H](O)[C@H]1O (chirality)
N[C@@H]1[C@@H](O)O[C@H](CO)[C@H](O)[C@H]1O (3D coordinates assigned)
N[C@@H]1[C@@H](O)O[C@H](CO)[C@H](O)[C@H]1O (nonaromatic ring conformer: 25.50597409867819 kcal/mol)

$$$$
ZINC000001471333
     RDKit          3D

 43 44  0  0  0  0  0  0  0  0999 V2000
    0.8623   -5.3871    1.1894 H   0  0  0  0  0  0  0  0  0  0  0  0
    0.6900   -4.3926    1.2751 O   0  0  0  0  0  0  0  0  0  0  0  0
   -0.4705   -3.8140    0.7618 C   0  0  0  0  0  0  0  0  0  0  0  0
   -0.6704   -2.5337    0.8574 N   0  0  0  0  0  0  0  0  0  0  0  0
    0.2466   -1.6013    1.5171 C   0  0  1  0  0  0  0  0  0  0  0  0
    1.2914   -1.8180    1.1961 H   0  0  0  0  0  0  0  0  0  0  0  0
   -0.0923   -0.1616    1.0937 C   0  0  2  0  0  0  0  0  0  0  0  0
   -1.1548    0.0625    1.3504 H   0  0  0  0  0  0  0  0  0  0  0  0
    0.0601   -0.0512   -0.3210 O   0  0  0  0  0  0  0  0  0  0  0  0
   -0.2671    1.0854   -1.0767 C   0  0  0  0  0  0  0  0  0  0  0  0
   -0.0348    1.0529   -2.4566 C   0  0  0  0  0  0  0  0  0  0  0  0
    0.3913    0.1674   -2.9111 H   0  0  0  0  0  0  0  0  0  0  0  0
   -0.3432    2.1575   -3.2559 C   0  0  0  0  0  0  0  0  0  0  0  0
   -0.1455    2.1139   -4.3199 H   0  0  0  0  0  0  0  0  0  0  0  0
   -0.9037    3.3091   -2.6845 C   0  0  0  0  0  0  0  0  0  0  0  0
   -1.1977    4.5090   -3.5352 C   0  0  0  0  0  0  0  0  0  0  0  0
   -2.0471    5.0886   -3.1150 H   0  0  0  0  0  0  0  0  0  0  0  0
   -1.4701    4.2004   -4.5670 H   0  0  0  0  0  0  0  0  0  0  0  0
   -0.3000    5.1605   -3.5770 H   0  0  0  0  0  0  0  0  0  0  0  0
   -1.1235    3.3528   -1.2999 C   0  0  0  0  0  0  0  0  0  0  0  0
   -1.5349    4.2424   -0.8387 H   0  0  0  0  0  0  0  0  0  0  0  0
   -0.8153    2.2480   -0.5004 C   0  0  0  0  0  0  0  0  0  0  0  0
   -1.0045    2.3112    0.5622 H   0  0  0  0  0  0  0  0  0  0  0  0
    0.7911    0.7506    1.7230 O   0  0  0  0  0  0  0  0  0  0  0  0
    0.5860    0.7608    3.1258 C   0  0  2  0  0  0  0  0  0  0  0  0
   -0.4809    0.9919    3.3570 H   0  0  0  0  0  0  0  0  0  0  0  0
    1.4401    1.8945    3.7176 C   0  0  0  0  0  0  0  0  0  0  0  0
    1.2858    2.8270    3.1273 H   0  0  0  0  0  0  0  0  0  0  0  0
    2.5178    1.6340    3.6461 H   0  0  0  0  0  0  0  0  0  0  0  0
    1.1157    2.1277    5.0620 O   0  0  0  0  0  0  0  0  0  0  0  0
    0.2484    2.6109    5.0663 H   0  0  0  0  0  0  0  0  0  0  0  0
    0.9701   -0.6167    3.7247 C   0  0  1  0  0  0  0  0  0  0  0  0
    2.0484   -0.8156    3.5080 H   0  0  0  0  0  0  0  0  0  0  0  0
    0.7336   -0.6404    5.1107 O   0  0  0  0  0  0  0  0  0  0  0  0
    1.6010   -0.4660    5.5611 H   0  0  0  0  0  0  0  0  0  0  0  0
    0.1469   -1.7307    3.0502 C   0  0  1  0  0  0  0  0  0  0  0  0
    0.5716   -2.7176    3.3500 H   0  0  0  0  0  0  0  0  0  0  0  0
   -1.2018   -1.6502    3.4447 O   0  0  0  0  0  0  0  0  0  0  0  0
   -1.2820   -2.1330    4.3084 H   0  0  0  0  0  0  0  0  0  0  0  0
   -1.4775   -4.6651    0.0579 C   0  0  0  0  0  0  0  0  0  0  0  0
   -1.1420   -4.8470   -0.9842 H   0  0  0  0  0  0  0  0  0  0  0  0
   -1.5815   -5.6376    0.5827 H   0  0  0  0  0  0  0  0  0  0  0  0
   -2.4693   -4.1647    0.0395 H   0  0  0  0  0  0  0  0  0  0  0  0
  1  2  1  0
  2  3  1  0
  3  4  2  0
  4  5  1  0
  5  6  1  6
  5  7  1  0
  7  8  1  6
  7  9  1  0
  9 10  1  0
 10 11  2  0
 11 12  1  0
 11 13  1  0
 13 14  1  0
 13 15  2  0
 15 16  1  0
 16 17  1  0
 16 18  1  0
 16 19  1  0
 15 20  1  0
 20 21  1  0
 20 22  2  0
 22 23  1  0
  7 24  1  0
 24 25  1  0
 25 26  1  6
 25 27  1  0
 27 28  1  0
 27 29  1  0
 27 30  1  0
 30 31  1  0
 25 32  1  0
 32 33  1  1
 32 34  1  0
 34 35  1  0
 32 36  1  0
 36 37  1  1
 36 38  1  0
 38 39  1  0
  3 40  1  0
 40 41  1  0
 40 42  1  0
 40 43  1  0
 36  5  1  0
 22 10  1  0
M  END
>  <UniqueID>  (302) 
301

>  <SMILES>  (302) 
C/C(O)=N/[C@H]1[C@H](Oc2ccc(C)cc2)O[C@H](CO)[C@@H](O)[C@H]1O

>  <Energy>  (302) 
38.672288406561556

>  <Genealogy>  (302) 
CC(O)=N[C@H]1[C@H](Oc2ccc(C)cc2)O[C@H](CO)[C@@H](O)[C@H]1O (tautomer)
C/C(O)=N/[C@H]1[C@H](Oc2ccc(C)cc2)O[C@H](CO)[C@@H](O)[C@H]1O (cis-trans isomerization)
C/C(O)=N/[C@H]1[C@H](Oc2ccc(C)cc2)O[C@H](CO)[C@@H](O)[C@H]1O (3D coordinates assigned)
C/C(O)=N/[C@H]1[C@H](Oc2ccc(C)cc2)O[C@H](CO)[C@@H](O)[C@H]1O (nonaromatic ring conformer: 38.672288406561556 kcal/mol)

$$$$
ZINC000001471333
     RDKit          3D

 43 44  0  0  0  0  0  0  0  0999 V2000
   -2.4249    3.6839    1.0833 H   0  0  0  0  0  0  0  0  0  0  0  0
   -2.1079    2.8112    0.6785 O   0  0  0  0  0  0  0  0  0  0  0  0
   -1.1984    1.9935    1.3483 C   0  0  0  0  0  0  0  0  0  0  0  0
   -0.7809    0.8877    0.8103 N   0  0  0  0  0  0  0  0  0  0  0  0
   -1.2148    0.3810   -0.4921 C   0  0  1  0  0  0  0  0  0  0  0  0
   -1.2218    1.2177   -1.2279 H   0  0  0  0  0  0  0  0  0  0  0  0
   -0.2253   -0.6899   -1.0066 C   0  0  2  0  0  0  0  0  0  0  0  0
   -0.1578   -1.5484   -0.3021 H   0  0  0  0  0  0  0  0  0  0  0  0
    1.0716   -0.1103   -1.1765 O   0  0  0  0  0  0  0  0  0  0  0  0
    2.0358    0.0996   -0.1744 C   0  0  0  0  0  0  0  0  0  0  0  0
    3.1632    0.8623   -0.5023 C   0  0  0  0  0  0  0  0  0  0  0  0
    3.2655    1.2710   -1.4996 H   0  0  0  0  0  0  0  0  0  0  0  0
    4.1554    1.1148    0.4491 C   0  0  0  0  0  0  0  0  0  0  0  0
    5.0109    1.7200    0.1753 H   0  0  0  0  0  0  0  0  0  0  0  0
    4.0423    0.5900    1.7441 C   0  0  0  0  0  0  0  0  0  0  0  0
    5.0844    0.8967    2.7784 C   0  0  0  0  0  0  0  0  0  0  0  0
    6.0806    1.0276    2.3045 H   0  0  0  0  0  0  0  0  0  0  0  0
    4.8112    1.8312    3.3114 H   0  0  0  0  0  0  0  0  0  0  0  0
    5.1610    0.0685    3.5148 H   0  0  0  0  0  0  0  0  0  0  0  0
    2.9125   -0.1682    2.0821 C   0  0  0  0  0  0  0  0  0  0  0  0
    2.7990   -0.5639    3.0840 H   0  0  0  0  0  0  0  0  0  0  0  0
    1.9209   -0.4229    1.1301 C   0  0  0  0  0  0  0  0  0  0  0  0
    1.0718   -1.0182    1.4301 H   0  0  0  0  0  0  0  0  0  0  0  0
   -0.6516   -1.1591   -2.2737 O   0  0  0  0  0  0  0  0  0  0  0  0
   -1.8835   -1.8552   -2.1699 C   0  0  2  0  0  0  0  0  0  0  0  0
   -1.8010   -2.6912   -1.4358 H   0  0  0  0  0  0  0  0  0  0  0  0
   -2.2020   -2.4808   -3.5361 C   0  0  0  0  0  0  0  0  0  0  0  0
   -3.1481   -3.0663   -3.4888 H   0  0  0  0  0  0  0  0  0  0  0  0
   -2.3355   -1.6777   -4.2922 H   0  0  0  0  0  0  0  0  0  0  0  0
   -1.1508   -3.3107   -3.9518 O   0  0  0  0  0  0  0  0  0  0  0  0
   -1.2143   -4.1419   -3.4125 H   0  0  0  0  0  0  0  0  0  0  0  0
   -3.0078   -0.8860   -1.7300 C   0  0  1  0  0  0  0  0  0  0  0  0
   -3.1131   -0.0790   -2.4959 H   0  0  0  0  0  0  0  0  0  0  0  0
   -4.2228   -1.5768   -1.5746 O   0  0  0  0  0  0  0  0  0  0  0  0
   -4.7176   -1.4973   -2.4316 H   0  0  0  0  0  0  0  0  0  0  0  0
   -2.6331   -0.2204   -0.3964 C   0  0  1  0  0  0  0  0  0  0  0  0
   -3.3688    0.5959   -0.2049 H   0  0  0  0  0  0  0  0  0  0  0  0
   -2.6937   -1.1718    0.6391 O   0  0  0  0  0  0  0  0  0  0  0  0
   -2.8665   -0.6750    1.4810 H   0  0  0  0  0  0  0  0  0  0  0  0
   -0.6625    2.4088    2.6800 C   0  0  0  0  0  0  0  0  0  0  0  0
   -0.2430    1.5351    3.2236 H   0  0  0  0  0  0  0  0  0  0  0  0
    0.1377    3.1640    2.5354 H   0  0  0  0  0  0  0  0  0  0  0  0
   -1.4762    2.8506    3.2921 H   0  0  0  0  0  0  0  0  0  0  0  0
  1  2  1  0
  2  3  1  0
  3  4  2  0
  4  5  1  0
  5  6  1  6
  5  7  1  0
  7  8  1  1
  7  9  1  0
  9 10  1  0
 10 11  2  0
 11 12  1  0
 11 13  1  0
 13 14  1  0
 13 15  2  0
 15 16  1  0
 16 17  1  0
 16 18  1  0
 16 19  1  0
 15 20  1  0
 20 21  1  0
 20 22  2  0
 22 23  1  0
  7 24  1  0
 24 25  1  0
 25 26  1  1
 25 27  1  0
 27 28  1  0
 27 29  1  0
 27 30  1  0
 30 31  1  0
 25 32  1  0
 32 33  1  6
 32 34  1  0
 34 35  1  0
 32 36  1  0
 36 37  1  1
 36 38  1  0
 38 39  1  0
  3 40  1  0
 40 41  1  0
 40 42  1  0
 40 43  1  0
 36  5  1  0
 22 10  1  0
M  END
>  <UniqueID>  (303) 
302

>  <SMILES>  (303) 
C/C(O)=N\[C@H]1[C@H](Oc2ccc(C)cc2)O[C@H](CO)[C@@H](O)[C@H]1O

>  <Energy>  (303) 
39.93616267387598

>  <Genealogy>  (303) 
CC(O)=N[C@H]1[C@H](Oc2ccc(C)cc2)O[C@H](CO)[C@@H](O)[C@H]1O (tautomer)
C/C(O)=N\[C@H]1[C@H](Oc2ccc(C)cc2)O[C@H](CO)[C@@H](O)[C@H]1O (cis-trans isomerization)
C/C(O)=N\[C@H]1[C@H](Oc2ccc(C)cc2)O[C@H](CO)[C@@H](O)[C@H]1O (3D coordinates assigned)
C/C(O)=N\[C@H]1[C@H](Oc2ccc(C)cc2)O[C@H](CO)[C@@H](O)[C@H]1O (nonaromatic ring conformer: 39.93616267387598 kcal/mol)

$$$$
ZINC000001471333
     RDKit          3D

 43 44  0  0  0  0  0  0  0  0999 V2000
   -3.1665    1.7505   -0.3544 C   0  0  0  0  0  0  0  0  0  0  0  0
   -2.3457    0.7939   -1.1563 C   0  0  0  0  0  0  0  0  0  0  0  0
   -2.4033    0.8347   -2.4149 O   0  0  0  0  0  0  0  0  0  0  0  0
   -1.4565   -0.1180   -0.4938 N   0  0  0  0  0  0  0  0  0  0  0  0
   -0.5318   -1.0010   -1.2141 C   0  0  1  0  0  0  0  0  0  0  0  0
    0.9337   -0.5365   -1.0400 C   0  0  2  0  0  0  0  0  0  0  0  0
    1.0927    0.7767   -1.5853 O   0  0  0  0  0  0  0  0  0  0  0  0
    0.7828    1.9929   -0.9520 C   0  0  0  0  0  0  0  0  0  0  0  0
    0.7041    3.1420   -1.7477 C   0  0  0  0  0  0  0  0  0  0  0  0
    0.3815    4.3794   -1.1841 C   0  0  0  0  0  0  0  0  0  0  0  0
    0.1278    4.4847    0.1905 C   0  0  0  0  0  0  0  0  0  0  0  0
   -0.1856    5.8177    0.8022 C   0  0  0  0  0  0  0  0  0  0  0  0
    0.2383    3.3446    0.9989 C   0  0  0  0  0  0  0  0  0  0  0  0
    0.5599    2.1062    0.4352 C   0  0  0  0  0  0  0  0  0  0  0  0
    1.7931   -1.4022   -1.7613 O   0  0  0  0  0  0  0  0  0  0  0  0
    1.7776   -2.7116   -1.2151 C   0  0  2  0  0  0  0  0  0  0  0  0
    2.8610   -3.5326   -1.9283 C   0  0  0  0  0  0  0  0  0  0  0  0
    3.0869   -4.7383   -1.2512 O   0  0  0  0  0  0  0  0  0  0  0  0
    0.3733   -3.3437   -1.3950 C   0  0  1  0  0  0  0  0  0  0  0  0
    0.3263   -4.6257   -0.8191 O   0  0  0  0  0  0  0  0  0  0  0  0
   -0.6878   -2.4552   -0.7264 C   0  0  1  0  0  0  0  0  0  0  0  0
   -0.5431   -2.5261    0.6724 O   0  0  0  0  0  0  0  0  0  0  0  0
   -4.0525    2.0810   -0.9368 H   0  0  0  0  0  0  0  0  0  0  0  0
   -3.5169    1.2624    0.5790 H   0  0  0  0  0  0  0  0  0  0  0  0
   -2.5513    2.6367   -0.0949 H   0  0  0  0  0  0  0  0  0  0  0  0
   -1.4045   -0.0814    0.5493 H   0  0  0  0  0  0  0  0  0  0  0  0
   -0.7644   -0.9882   -2.3025 H   0  0  0  0  0  0  0  0  0  0  0  0
    1.2301   -0.5374    0.0312 H   0  0  0  0  0  0  0  0  0  0  0  0
    0.8858    3.0730   -2.8128 H   0  0  0  0  0  0  0  0  0  0  0  0
    0.3269    5.2540   -1.8205 H   0  0  0  0  0  0  0  0  0  0  0  0
   -0.8365    5.6955    1.6941 H   0  0  0  0  0  0  0  0  0  0  0  0
    0.7585    6.3149    1.1078 H   0  0  0  0  0  0  0  0  0  0  0  0
   -0.7186    6.4669    0.0752 H   0  0  0  0  0  0  0  0  0  0  0  0
    0.0728    3.4134    2.0671 H   0  0  0  0  0  0  0  0  0  0  0  0
    0.6326    1.2548    1.0937 H   0  0  0  0  0  0  0  0  0  0  0  0
    2.0459   -2.6811   -0.1325 H   0  0  0  0  0  0  0  0  0  0  0  0
    2.5568   -3.7341   -2.9803 H   0  0  0  0  0  0  0  0  0  0  0  0
    3.8066   -2.9451   -1.9447 H   0  0  0  0  0  0  0  0  0  0  0  0
    3.7777   -5.2225   -1.7738 H   0  0  0  0  0  0  0  0  0  0  0  0
    0.1361   -3.3956   -2.4861 H   0  0  0  0  0  0  0  0  0  0  0  0
    0.4733   -5.2821   -1.5493 H   0  0  0  0  0  0  0  0  0  0  0  0
   -1.6943   -2.8312   -1.0313 H   0  0  0  0  0  0  0  0  0  0  0  0
   -1.4532   -2.4710    1.0653 H   0  0  0  0  0  0  0  0  0  0  0  0
  1  2  1  0
  2  3  2  0
  2  4  1  0
  4  5  1  0
  5  6  1  0
  6  7  1  0
  7  8  1  0
  8  9  2  0
  9 10  1  0
 10 11  2  0
 11 12  1  0
 11 13  1  0
 13 14  2  0
  6 15  1  0
 15 16  1  0
 16 17  1  0
 17 18  1  0
 16 19  1  0
 19 20  1  0
 19 21  1  0
 21 22  1  0
 21  5  1  0
 14  8  1  0
  1 23  1  0
  1 24  1  0
  1 25  1  0
  4 26  1  0
  5 27  1  6
  6 28  1  1
  9 29  1  0
 10 30  1  0
 12 31  1  0
 12 32  1  0
 12 33  1  0
 13 34  1  0
 14 35  1  0
 16 36  1  1
 17 37  1  0
 17 38  1  0
 18 39  1  0
 19 40  1  6
 20 41  1  0
 21 42  1  1
 22 43  1  0
M  END
>  <UniqueID>  (304) 
303

>  <SMILES>  (304) 
CC(=O)N[C@H]1[C@H](Oc2ccc(C)cc2)O[C@H](CO)[C@@H](O)[C@H]1O

>  <Energy>  (304) 
40.39357747819332

>  <Genealogy>  (304) 
CC(=O)N[C@H]1[C@H](Oc2ccc(C)cc2)O[C@H](CO)[C@@H](O)[C@H]1O (3D coordinates assigned)
CC(=O)N[C@H]1[C@H](Oc2ccc(C)cc2)O[C@H](CO)[C@@H](O)[C@H]1O (nonaromatic ring conformer: 40.39357747819332 kcal/mol)

$$$$
ZINC000003956714
     RDKit          3D

 43 44  0  0  0  0  0  0  0  0999 V2000
   -0.8561    0.0460   -4.5040 C   0  0  0  0  0  0  0  0  0  0  0  0
   -1.3586    0.4248   -3.1492 C   0  0  0  0  0  0  0  0  0  0  0  0
   -2.5498    0.1605   -2.8317 O   0  0  0  0  0  0  0  0  0  0  0  0
   -0.4992    1.1234   -2.2373 N   0  0  0  0  0  0  0  0  0  0  0  0
   -0.9189    1.4781   -0.8749 C   0  0  1  0  0  0  0  0  0  0  0  0
   -0.9701    0.2243    0.0267 C   0  0  1  0  0  0  0  0  0  0  0  0
    0.2899   -0.4368    0.0209 O   0  0  0  0  0  0  0  0  0  0  0  0
    0.1520   -1.8340    0.1988 C   0  0  0  0  0  0  0  0  0  0  0  0
   -0.0810   -2.1797    1.6454 C   0  0  0  0  0  0  0  0  0  0  0  0
    0.9539   -2.0230    2.5814 C   0  0  0  0  0  0  0  0  0  0  0  0
    0.7403   -2.3400    3.9264 C   0  0  0  0  0  0  0  0  0  0  0  0
   -0.5081   -2.8082    4.3459 C   0  0  0  0  0  0  0  0  0  0  0  0
   -1.5464   -2.9550    3.4216 C   0  0  0  0  0  0  0  0  0  0  0  0
   -1.3366   -2.6393    2.0755 C   0  0  0  0  0  0  0  0  0  0  0  0
   -1.3659    0.5670    1.3479 O   0  0  0  0  0  0  0  0  0  0  0  0
   -0.4519    1.4616    1.9663 C   0  0  2  0  0  0  0  0  0  0  0  0
   -0.9063    1.6924    3.4157 C   0  0  0  0  0  0  0  0  0  0  0  0
   -0.9551    0.4779    4.1143 O   0  0  0  0  0  0  0  0  0  0  0  0
   -0.3939    2.8026    1.1943 C   0  0  1  0  0  0  0  0  0  0  0  0
    0.5372    3.6746    1.7866 O   0  0  0  0  0  0  0  0  0  0  0  0
    0.0097    2.5474   -0.2668 C   0  0  1  0  0  0  0  0  0  0  0  0
    1.3507    2.1247   -0.3353 O   0  0  0  0  0  0  0  0  0  0  0  0
   -1.5454   -0.6792   -4.9866 H   0  0  0  0  0  0  0  0  0  0  0  0
   -0.7819    0.9540   -5.1377 H   0  0  0  0  0  0  0  0  0  0  0  0
    0.1470   -0.4210   -4.4146 H   0  0  0  0  0  0  0  0  0  0  0  0
    0.4405    1.4205   -2.5859 H   0  0  0  0  0  0  0  0  0  0  0  0
   -1.9419    1.9163   -0.9233 H   0  0  0  0  0  0  0  0  0  0  0  0
   -1.7765   -0.4182   -0.3943 H   0  0  0  0  0  0  0  0  0  0  0  0
   -0.6259   -2.2741   -0.4663 H   0  0  0  0  0  0  0  0  0  0  0  0
    1.1032   -2.3107   -0.1193 H   0  0  0  0  0  0  0  0  0  0  0  0
    1.9237   -1.6562    2.2684 H   0  0  0  0  0  0  0  0  0  0  0  0
    1.5414   -2.2196    4.6441 H   0  0  0  0  0  0  0  0  0  0  0  0
   -0.6727   -3.0511    5.3876 H   0  0  0  0  0  0  0  0  0  0  0  0
   -2.5148   -3.3106    3.7488 H   0  0  0  0  0  0  0  0  0  0  0  0
   -2.1510   -2.7526    1.3709 H   0  0  0  0  0  0  0  0  0  0  0  0
    0.5662    1.0107    2.0123 H   0  0  0  0  0  0  0  0  0  0  0  0
   -1.9015    2.1944    3.4362 H   0  0  0  0  0  0  0  0  0  0  0  0
   -0.1822    2.3548    3.9350 H   0  0  0  0  0  0  0  0  0  0  0  0
   -1.8304    0.0602    3.9030 H   0  0  0  0  0  0  0  0  0  0  0  0
   -1.4118    3.2642    1.1912 H   0  0  0  0  0  0  0  0  0  0  0  0
    0.0348    4.2652    2.4065 H   0  0  0  0  0  0  0  0  0  0  0  0
   -0.1211    3.4909   -0.8487 H   0  0  0  0  0  0  0  0  0  0  0  0
    1.9140    2.9422   -0.3347 H   0  0  0  0  0  0  0  0  0  0  0  0
  1  2  1  0
  2  3  2  0
  2  4  1  0
  4  5  1  0
  5  6  1  0
  6  7  1  0
  7  8  1  0
  8  9  1  0
  9 10  2  0
 10 11  1  0
 11 12  2  0
 12 13  1  0
 13 14  2  0
  6 15  1  0
 15 16  1  0
 16 17  1  0
 17 18  1  0
 16 19  1  0
 19 20  1  0
 19 21  1  0
 21 22  1  0
 21  5  1  0
 14  9  1  0
  1 23  1  0
  1 24  1  0
  1 25  1  0
  4 26  1  0
  5 27  1  6
  6 28  1  6
  8 29  1  0
  8 30  1  0
 10 31  1  0
 11 32  1  0
 12 33  1  0
 13 34  1  0
 14 35  1  0
 16 36  1  1
 17 37  1  0
 17 38  1  0
 18 39  1  0
 19 40  1  6
 20 41  1  0
 21 42  1  6
 22 43  1  0
M  END
>  <UniqueID>  (305) 
304

>  <SMILES>  (305) 
CC(=O)N[C@H]1[C@@H](OCc2ccccc2)O[C@H](CO)[C@@H](O)[C@H]1O

>  <Energy>  (305) 
42.21798789116355

>  <Genealogy>  (305) 
CC(=O)N[C@H]1[C@@H](OCc2ccccc2)O[C@H](CO)[C@@H](O)[C@H]1O (3D coordinates assigned)
CC(=O)N[C@H]1[C@@H](OCc2ccccc2)O[C@H](CO)[C@@H](O)[C@H]1O (nonaromatic ring conformer: 42.21798789116355 kcal/mol)

$$$$
ZINC000003956714
     RDKit          3D

 43 44  0  0  0  0  0  0  0  0999 V2000
    2.6908    5.0376    1.8809 H   0  0  0  0  0  0  0  0  0  0  0  0
    2.2496    4.1766    1.5807 O   0  0  0  0  0  0  0  0  0  0  0  0
    3.0020    3.0299    1.3277 C   0  0  0  0  0  0  0  0  0  0  0  0
    2.4281    1.9371    0.9216 N   0  0  0  0  0  0  0  0  0  0  0  0
    0.9844    1.7829    0.7270 C   0  0  1  0  0  0  0  0  0  0  0  0
    0.5929    2.6703    0.1778 H   0  0  0  0  0  0  0  0  0  0  0  0
    0.7106    0.5412   -0.1468 C   0  0  1  0  0  0  0  0  0  0  0  0
    1.1466    0.7843   -1.1435 H   0  0  0  0  0  0  0  0  0  0  0  0
    1.3297   -0.6105    0.4142 O   0  0  0  0  0  0  0  0  0  0  0  0
    1.5358   -1.6201   -0.5584 C   0  0  0  0  0  0  0  0  0  0  0  0
    2.3391   -2.2899   -0.1849 H   0  0  0  0  0  0  0  0  0  0  0  0
    1.9205   -1.2211   -1.5248 H   0  0  0  0  0  0  0  0  0  0  0  0
    0.2932   -2.4478   -0.7521 C   0  0  0  0  0  0  0  0  0  0  0  0
   -0.1489   -3.3028    0.2706 C   0  0  0  0  0  0  0  0  0  0  0  0
    0.4116   -3.3871    1.1934 H   0  0  0  0  0  0  0  0  0  0  0  0
   -1.3251   -4.0418    0.1110 C   0  0  0  0  0  0  0  0  0  0  0  0
   -1.6641   -4.6960    0.9037 H   0  0  0  0  0  0  0  0  0  0  0  0
   -2.0658   -3.9332   -1.0692 C   0  0  0  0  0  0  0  0  0  0  0  0
   -2.9770   -4.5044   -1.1905 H   0  0  0  0  0  0  0  0  0  0  0  0
   -1.6323   -3.0840   -2.0911 C   0  0  0  0  0  0  0  0  0  0  0  0
   -2.2095   -2.9967   -3.0024 H   0  0  0  0  0  0  0  0  0  0  0  0
   -0.4582   -2.3409   -1.9342 C   0  0  0  0  0  0  0  0  0  0  0  0
   -0.1410   -1.6767   -2.7285 H   0  0  0  0  0  0  0  0  0  0  0  0
   -0.6857    0.3482   -0.3267 O   0  0  0  0  0  0  0  0  0  0  0  0
   -1.3536    0.1029    0.9027 C   0  0  2  0  0  0  0  0  0  0  0  0
   -0.9253   -0.7945    1.4037 H   0  0  0  0  0  0  0  0  0  0  0  0
   -2.8211   -0.2156    0.5804 C   0  0  0  0  0  0  0  0  0  0  0  0
   -2.8525   -0.9797   -0.2250 H   0  0  0  0  0  0  0  0  0  0  0  0
   -3.3394    0.6925    0.1907 H   0  0  0  0  0  0  0  0  0  0  0  0
   -3.4746   -0.7486    1.7026 O   0  0  0  0  0  0  0  0  0  0  0  0
   -4.0856   -0.0465    2.0471 H   0  0  0  0  0  0  0  0  0  0  0  0
   -1.2285    1.3345    1.8384 C   0  0  1  0  0  0  0  0  0  0  0  0
   -1.6985    2.2050    1.3289 H   0  0  0  0  0  0  0  0  0  0  0  0
   -1.8991    1.1465    3.0611 O   0  0  0  0  0  0  0  0  0  0  0  0
   -1.5876    0.2892    3.4524 H   0  0  0  0  0  0  0  0  0  0  0  0
    0.2546    1.6770    2.0799 C   0  0  1  0  0  0  0  0  0  0  0  0
    0.3093    2.6688    2.5880 H   0  0  0  0  0  0  0  0  0  0  0  0
    0.8697    0.6927    2.8760 O   0  0  0  0  0  0  0  0  0  0  0  0
    0.7494    0.9651    3.8231 H   0  0  0  0  0  0  0  0  0  0  0  0
    4.4879    3.0658    1.4846 C   0  0  0  0  0  0  0  0  0  0  0  0
    4.8944    2.0389    1.6054 H   0  0  0  0  0  0  0  0  0  0  0  0
    4.9420    3.5339    0.5868 H   0  0  0  0  0  0  0  0  0  0  0  0
    4.7574    3.6608    2.3820 H   0  0  0  0  0  0  0  0  0  0  0  0
  1  2  1  0
  2  3  1  0
  3  4  2  0
  4  5  1  0
  5  6  1  6
  5  7  1  0
  7  8  1  6
  7  9  1  0
  9 10  1  0
 10 11  1  0
 10 12  1  0
 10 13  1  0
 13 14  2  0
 14 15  1  0
 14 16  1  0
 16 17  1  0
 16 18  2  0
 18 19  1  0
 18 20  1  0
 20 21  1  0
 20 22  2  0
 22 23  1  0
  7 24  1  0
 24 25  1  0
 25 26  1  1
 25 27  1  0
 27 28  1  0
 27 29  1  0
 27 30  1  0
 30 31  1  0
 25 32  1  0
 32 33  1  6
 32 34  1  0
 34 35  1  0
 32 36  1  0
 36 37  1  1
 36 38  1  0
 38 39  1  0
  3 40  1  0
 40 41  1  0
 40 42  1  0
 40 43  1  0
 36  5  1  0
 22 13  1  0
M  END
>  <UniqueID>  (306) 
305

>  <SMILES>  (306) 
C/C(O)=N\[C@H]1[C@@H](OCc2ccccc2)O[C@H](CO)[C@@H](O)[C@H]1O

>  <Energy>  (306) 
43.97235051542483

>  <Genealogy>  (306) 
CC(O)=N[C@H]1[C@@H](OCc2ccccc2)O[C@H](CO)[C@@H](O)[C@H]1O (tautomer)
C/C(O)=N\[C@H]1[C@@H](OCc2ccccc2)O[C@H](CO)[C@@H](O)[C@H]1O (cis-trans isomerization)
C/C(O)=N\[C@H]1[C@@H](OCc2ccccc2)O[C@H](CO)[C@@H](O)[C@H]1O (3D coordinates assigned)
C/C(O)=N\[C@H]1[C@@H](OCc2ccccc2)O[C@H](CO)[C@@H](O)[C@H]1O (nonaromatic ring conformer: 43.97235051542483 kcal/mol)

$$$$
ZINC000003956714
     RDKit          3D

 43 44  0  0  0  0  0  0  0  0999 V2000
   -0.7802   -0.7608   -4.0400 C   0  0  0  0  0  0  0  0  0  0  0  0
   -1.2128    0.2651   -3.0439 C   0  0  0  0  0  0  0  0  0  0  0  0
   -2.3517    0.7952   -3.1519 O   0  0  0  0  0  0  0  0  0  0  0  0
   -0.3469    0.6129   -1.9543 N   0  0  0  0  0  0  0  0  0  0  0  0
   -0.7665    1.5156   -0.8754 C   0  0  1  0  0  0  0  0  0  0  0  0
   -1.5206    0.7345    0.2206 C   0  0  1  0  0  0  0  0  0  0  0  0
   -0.7474   -0.3623    0.6794 O   0  0  0  0  0  0  0  0  0  0  0  0
   -1.5581   -1.2728    1.3913 C   0  0  0  0  0  0  0  0  0  0  0  0
   -0.6706   -2.2785    2.0630 C   0  0  0  0  0  0  0  0  0  0  0  0
   -0.0869   -1.9824    3.3060 C   0  0  0  0  0  0  0  0  0  0  0  0
    0.7762   -2.8991    3.9145 C   0  0  0  0  0  0  0  0  0  0  0  0
    1.0718   -4.1096    3.2814 C   0  0  0  0  0  0  0  0  0  0  0  0
    0.5094   -4.4028    2.0358 C   0  0  0  0  0  0  0  0  0  0  0  0
   -0.3539   -3.4886    1.4235 C   0  0  0  0  0  0  0  0  0  0  0  0
   -1.8935    1.5964    1.2868 O   0  0  0  0  0  0  0  0  0  0  0  0
   -0.7610    2.1498    1.9394 C   0  0  2  0  0  0  0  0  0  0  0  0
   -1.2494    2.9328    3.1672 C   0  0  0  0  0  0  0  0  0  0  0  0
   -1.9195    2.0785    4.0554 O   0  0  0  0  0  0  0  0  0  0  0  0
    0.0228    3.0732    0.9734 C   0  0  1  0  0  0  0  0  0  0  0  0
    1.1766    3.5781    1.5994 O   0  0  0  0  0  0  0  0  0  0  0  0
    0.4312    2.3115   -0.3053 C   0  0  1  0  0  0  0  0  0  0  0  0
    1.5671    1.5029   -0.0976 O   0  0  0  0  0  0  0  0  0  0  0  0
    0.2535   -0.5409   -4.3800 H   0  0  0  0  0  0  0  0  0  0  0  0
   -1.4552   -0.7571   -4.9223 H   0  0  0  0  0  0  0  0  0  0  0  0
   -0.8041   -1.7654   -3.5688 H   0  0  0  0  0  0  0  0  0  0  0  0
    0.5442    0.0763   -1.8540 H   0  0  0  0  0  0  0  0  0  0  0  0
   -1.4746    2.2694   -1.2893 H   0  0  0  0  0  0  0  0  0  0  0  0
   -2.4585    0.3667   -0.2584 H   0  0  0  0  0  0  0  0  0  0  0  0
   -2.1684   -0.7602    2.1706 H   0  0  0  0  0  0  0  0  0  0  0  0
   -2.2535   -1.7925    0.6941 H   0  0  0  0  0  0  0  0  0  0  0  0
   -0.2983   -1.0423    3.8007 H   0  0  0  0  0  0  0  0  0  0  0  0
    1.2198   -2.6688    4.8744 H   0  0  0  0  0  0  0  0  0  0  0  0
    1.7414   -4.8173    3.7527 H   0  0  0  0  0  0  0  0  0  0  0  0
    0.7465   -5.3364    1.5421 H   0  0  0  0  0  0  0  0  0  0  0  0
   -0.7727   -3.7228    0.4525 H   0  0  0  0  0  0  0  0  0  0  0  0
   -0.0948    1.3457    2.3255 H   0  0  0  0  0  0  0  0  0  0  0  0
   -1.9142    3.7714    2.8556 H   0  0  0  0  0  0  0  0  0  0  0  0
   -0.3816    3.3697    3.7046 H   0  0  0  0  0  0  0  0  0  0  0  0
   -2.8474    1.9815    3.7160 H   0  0  0  0  0  0  0  0  0  0  0  0
   -0.6495    3.9100    0.6617 H   0  0  0  0  0  0  0  0  0  0  0  0
    0.9462    4.4710    1.9667 H   0  0  0  0  0  0  0  0  0  0  0  0
    0.7173    3.0704   -1.0666 H   0  0  0  0  0  0  0  0  0  0  0  0
    1.3830    0.8835    0.6517 H   0  0  0  0  0  0  0  0  0  0  0  0
  1  2  1  0
  2  3  2  0
  2  4  1  0
  4  5  1  0
  5  6  1  0
  6  7  1  0
  7  8  1  0
  8  9  1  0
  9 10  2  0
 10 11  1  0
 11 12  2  0
 12 13  1  0
 13 14  2  0
  6 15  1  0
 15 16  1  0
 16 17  1  0
 17 18  1  0
 16 19  1  0
 19 20  1  0
 19 21  1  0
 21 22  1  0
 21  5  1  0
 14  9  1  0
  1 23  1  0
  1 24  1  0
  1 25  1  0
  4 26  1  0
  5 27  1  6
  6 28  1  6
  8 29  1  0
  8 30  1  0
 10 31  1  0
 11 32  1  0
 12 33  1  0
 13 34  1  0
 14 35  1  0
 16 36  1  1
 17 37  1  0
 17 38  1  0
 18 39  1  0
 19 40  1  6
 20 41  1  0
 21 42  1  6
 22 43  1  0
M  END
>  <UniqueID>  (307) 
306

>  <SMILES>  (307) 
CC(=O)N[C@H]1[C@@H](OCc2ccccc2)O[C@H](CO)[C@@H](O)[C@H]1O

>  <Energy>  (307) 
44.38410299017065

>  <Genealogy>  (307) 
CC(=O)N[C@H]1[C@@H](OCc2ccccc2)O[C@H](CO)[C@@H](O)[C@H]1O (3D coordinates assigned)
CC(=O)N[C@H]1[C@@H](OCc2ccccc2)O[C@H](CO)[C@@H](O)[C@H]1O (nonaromatic ring conformer: 44.38410299017065 kcal/mol)

$$$$
ZINC000004027857
     RDKit          3D

 41 43  0  0  0  0  0  0  0  0999 V2000
    0.9562    3.5947    4.0485 C   0  0  0  0  0  0  0  0  0  0  0  0
    0.9754    2.5471    2.9839 C   0  0  0  0  0  0  0  0  0  0  0  0
    2.0780    2.1663    2.5053 O   0  0  0  0  0  0  0  0  0  0  0  0
   -0.2535    1.9543    2.5416 N   0  0  0  0  0  0  0  0  0  0  0  0
   -0.2992    0.9406    1.4811 C   0  0  2  0  0  0  0  0  0  0  0  0
   -0.0650    1.5937    0.1015 C   0  0  2  0  0  0  0  0  0  0  0  0
   -0.9457    2.6777   -0.0683 O   0  0  0  0  0  0  0  0  0  0  0  0
   -0.2845    0.5430   -0.9984 C   0  0  2  0  0  0  0  0  0  0  0  0
   -0.2039    1.1391   -2.2787 O   0  0  0  0  0  0  0  0  0  0  0  0
   -0.4189    0.1800   -3.3118 C   0  0  1  0  0  0  0  0  0  0  0  0
    0.7543   -0.7703   -3.5137 C   0  0  0  0  0  0  0  0  0  0  0  0
    0.5625   -2.0235   -4.1263 C   0  0  0  0  0  0  0  0  0  0  0  0
    1.6493   -2.8706   -4.3632 C   0  0  0  0  0  0  0  0  0  0  0  0
    2.9408   -2.4668   -4.0182 C   0  0  0  0  0  0  0  0  0  0  0  0
    3.1495   -1.2098   -3.4470 C   0  0  0  0  0  0  0  0  0  0  0  0
    2.0660   -0.3591   -3.2084 C   0  0  0  0  0  0  0  0  0  0  0  0
   -1.6751   -0.4839   -3.1878 O   0  0  0  0  0  0  0  0  0  0  0  0
   -1.8140   -1.1215   -1.9323 C   0  0  0  0  0  0  0  0  0  0  0  0
   -1.6523   -0.1141   -0.8049 C   0  0  1  0  0  0  0  0  0  0  0  0
   -1.7123   -0.7679    0.4495 O   0  0  0  0  0  0  0  0  0  0  0  0
   -1.6536    0.1890    1.4977 C   0  0  1  0  0  0  0  0  0  0  0  0
   -1.7865   -0.4762    2.7245 O   0  0  0  0  0  0  0  0  0  0  0  0
    0.7172    3.1246    5.0250 H   0  0  0  0  0  0  0  0  0  0  0  0
    0.1847    4.3566    3.8106 H   0  0  0  0  0  0  0  0  0  0  0  0
    1.9444    4.0971    4.1192 H   0  0  0  0  0  0  0  0  0  0  0  0
   -1.1397    2.2460    3.0139 H   0  0  0  0  0  0  0  0  0  0  0  0
    0.5036    0.1905    1.6641 H   0  0  0  0  0  0  0  0  0  0  0  0
    0.9902    1.9510    0.0501 H   0  0  0  0  0  0  0  0  0  0  0  0
   -0.5429    3.2735   -0.7525 H   0  0  0  0  0  0  0  0  0  0  0  0
    0.5165   -0.2243   -0.8812 H   0  0  0  0  0  0  0  0  0  0  0  0
   -0.4772    0.7615   -4.2555 H   0  0  0  0  0  0  0  0  0  0  0  0
   -0.4271   -2.3486   -4.4211 H   0  0  0  0  0  0  0  0  0  0  0  0
    1.4905   -3.8380   -4.8219 H   0  0  0  0  0  0  0  0  0  0  0  0
    3.7812   -3.1230   -4.2047 H   0  0  0  0  0  0  0  0  0  0  0  0
    4.1528   -0.8906   -3.1958 H   0  0  0  0  0  0  0  0  0  0  0  0
    2.2532    0.6189   -2.7834 H   0  0  0  0  0  0  0  0  0  0  0  0
   -2.8304   -1.5650   -1.8739 H   0  0  0  0  0  0  0  0  0  0  0  0
   -1.0860   -1.9568   -1.8269 H   0  0  0  0  0  0  0  0  0  0  0  0
   -2.4707    0.6384   -0.9036 H   0  0  0  0  0  0  0  0  0  0  0  0
   -2.4898    0.9244    1.4022 H   0  0  0  0  0  0  0  0  0  0  0  0
   -2.7060   -0.8499    2.7429 H   0  0  0  0  0  0  0  0  0  0  0  0
  1  2  1  0
  2  3  2  0
  2  4  1  0
  4  5  1  0
  5  6  1  0
  6  7  1  0
  6  8  1  0
  8  9  1  0
  9 10  1  0
 10 11  1  0
 11 12  2  0
 12 13  1  0
 13 14  2  0
 14 15  1  0
 15 16  2  0
 10 17  1  0
 17 18  1  0
 18 19  1  0
 19 20  1  0
 20 21  1  0
 21 22  1  0
 21  5  1  0
 19  8  1  0
 16 11  1  0
  1 23  1  0
  1 24  1  0
  1 25  1  0
  4 26  1  0
  5 27  1  1
  6 28  1  1
  7 29  1  0
  8 30  1  6
 10 31  1  6
 12 32  1  0
 13 33  1  0
 14 34  1  0
 15 35  1  0
 16 36  1  0
 18 37  1  0
 18 38  1  0
 19 39  1  1
 21 40  1  6
 22 41  1  0
M  END
>  <UniqueID>  (308) 
307

>  <SMILES>  (308) 
CC(=O)N[C@@H]1[C@H](O)[C@@H]2O[C@@H](c3ccccc3)OC[C@H]2O[C@H]1O

>  <Energy>  (308) 
50.601230536177916

>  <Genealogy>  (308) 
CC(=O)N[C@@H]1[C@H](O)[C@@H]2O[C@@H](c3ccccc3)OC[C@H]2O[C@H]1O (3D coordinates assigned)
CC(=O)N[C@@H]1[C@H](O)[C@@H]2O[C@@H](c3ccccc3)OC[C@H]2O[C@H]1O (nonaromatic ring conformer: 50.601230536177916 kcal/mol)

$$$$
ZINC000004027857
     RDKit          3D

 41 43  0  0  0  0  0  0  0  0999 V2000
    1.0395    3.6068    4.2030 C   0  0  0  0  0  0  0  0  0  0  0  0
    0.8531    2.4165    3.3200 C   0  0  0  0  0  0  0  0  0  0  0  0
    1.7809    1.5695    3.2126 O   0  0  0  0  0  0  0  0  0  0  0  0
   -0.3895    2.2260    2.6297 N   0  0  0  0  0  0  0  0  0  0  0  0
   -0.6191    1.0932    1.7251 C   0  0  2  0  0  0  0  0  0  0  0  0
    0.1453    1.2943    0.3964 C   0  0  2  0  0  0  0  0  0  0  0  0
   -0.1646    2.5450   -0.1685 O   0  0  0  0  0  0  0  0  0  0  0  0
   -0.2380    0.1773   -0.5831 C   0  0  2  0  0  0  0  0  0  0  0  0
    0.3582    0.4083   -1.8470 O   0  0  0  0  0  0  0  0  0  0  0  0
   -0.1963   -0.4147   -2.8736 C   0  0  1  0  0  0  0  0  0  0  0  0
    0.9307   -0.9680   -3.7038 C   0  0  0  0  0  0  0  0  0  0  0  0
    0.9946   -0.7227   -5.0871 C   0  0  0  0  0  0  0  0  0  0  0  0
    2.0433   -1.2487   -5.8484 C   0  0  0  0  0  0  0  0  0  0  0  0
    3.0326   -2.0242   -5.2380 C   0  0  0  0  0  0  0  0  0  0  0  0
    2.9749   -2.2765   -3.8649 C   0  0  0  0  0  0  0  0  0  0  0  0
    1.9284   -1.7529   -3.0995 C   0  0  0  0  0  0  0  0  0  0  0  0
   -0.9620   -1.5038   -2.3735 O   0  0  0  0  0  0  0  0  0  0  0  0
   -2.1130   -1.0227   -1.7027 C   0  0  0  0  0  0  0  0  0  0  0  0
   -1.7708    0.0941   -0.6997 C   0  0  1  0  0  0  0  0  0  0  0  0
   -2.3488   -0.1814    0.5645 O   0  0  0  0  0  0  0  0  0  0  0  0
   -2.1306    0.9069    1.4503 C   0  0  1  0  0  0  0  0  0  0  0  0
   -2.7813    0.6392    2.6628 O   0  0  0  0  0  0  0  0  0  0  0  0
    0.4227    3.4883    5.1179 H   0  0  0  0  0  0  0  0  0  0  0  0
    0.7235    4.5250    3.6651 H   0  0  0  0  0  0  0  0  0  0  0  0
    2.1059    3.7130    4.4950 H   0  0  0  0  0  0  0  0  0  0  0  0
   -1.1584    2.9144    2.7987 H   0  0  0  0  0  0  0  0  0  0  0  0
   -0.2495    0.1627    2.2133 H   0  0  0  0  0  0  0  0  0  0  0  0
    1.2426    1.2234    0.5839 H   0  0  0  0  0  0  0  0  0  0  0  0
    0.4303    3.2131    0.2619 H   0  0  0  0  0  0  0  0  0  0  0  0
    0.1539   -0.7825   -0.1711 H   0  0  0  0  0  0  0  0  0  0  0  0
   -0.8378    0.2289   -3.5207 H   0  0  0  0  0  0  0  0  0  0  0  0
    0.2357   -0.1259   -5.5775 H   0  0  0  0  0  0  0  0  0  0  0  0
    2.0884   -1.0556   -6.9124 H   0  0  0  0  0  0  0  0  0  0  0  0
    3.8431   -2.4305   -5.8292 H   0  0  0  0  0  0  0  0  0  0  0  0
    3.7406   -2.8788   -3.3934 H   0  0  0  0  0  0  0  0  0  0  0  0
    1.8944   -1.9582   -2.0365 H   0  0  0  0  0  0  0  0  0  0  0  0
   -2.8619   -0.6644   -2.4440 H   0  0  0  0  0  0  0  0  0  0  0  0
   -2.5763   -1.8795   -1.1683 H   0  0  0  0  0  0  0  0  0  0  0  0
   -2.1703    1.0502   -1.1149 H   0  0  0  0  0  0  0  0  0  0  0  0
   -2.5520    1.8500    1.0238 H   0  0  0  0  0  0  0  0  0  0  0  0
   -3.7541    0.6371    2.4647 H   0  0  0  0  0  0  0  0  0  0  0  0
  1  2  1  0
  2  3  2  0
  2  4  1  0
  4  5  1  0
  5  6  1  0
  6  7  1  0
  6  8  1  0
  8  9  1  0
  9 10  1  0
 10 11  1  0
 11 12  2  0
 12 13  1  0
 13 14  2  0
 14 15  1  0
 15 16  2  0
 10 17  1  0
 17 18  1  0
 18 19  1  0
 19 20  1  0
 20 21  1  0
 21 22  1  0
 21  5  1  0
 19  8  1  0
 16 11  1  0
  1 23  1  0
  1 24  1  0
  1 25  1  0
  4 26  1  0
  5 27  1  1
  6 28  1  1
  7 29  1  0
  8 30  1  1
 10 31  1  6
 12 32  1  0
 13 33  1  0
 14 34  1  0
 15 35  1  0
 16 36  1  0
 18 37  1  0
 18 38  1  0
 19 39  1  6
 21 40  1  6
 22 41  1  0
M  END
>  <UniqueID>  (309) 
308

>  <SMILES>  (309) 
CC(=O)N[C@@H]1[C@H](O)[C@@H]2O[C@@H](c3ccccc3)OC[C@H]2O[C@H]1O

>  <Energy>  (309) 
53.17711869855538

>  <Genealogy>  (309) 
CC(=O)N[C@@H]1[C@H](O)[C@@H]2O[C@@H](c3ccccc3)OC[C@H]2O[C@H]1O (3D coordinates assigned)
CC(=O)N[C@@H]1[C@H](O)[C@@H]2O[C@@H](c3ccccc3)OC[C@H]2O[C@H]1O (nonaromatic ring conformer: 53.17711869855538 kcal/mol)

$$$$
ZINC000004027857
     RDKit          3D

 41 43  0  0  0  0  0  0  0  0999 V2000
   -0.3881    2.7090   -6.5162 H   0  0  0  0  0  0  0  0  0  0  0  0
   -0.8452    2.8944   -5.6316 O   0  0  0  0  0  0  0  0  0  0  0  0
   -0.4370    2.2747   -4.4531 C   0  0  0  0  0  0  0  0  0  0  0  0
   -1.0653    2.5700   -3.3511 N   0  0  0  0  0  0  0  0  0  0  0  0
   -0.8072    2.0177   -2.0167 C   0  0  2  0  0  0  0  0  0  0  0  0
    0.2817    1.8324   -1.8815 H   0  0  0  0  0  0  0  0  0  0  0  0
   -1.5768    0.6898   -1.8162 C   0  0  2  0  0  0  0  0  0  0  0  0
   -1.1269   -0.1078   -2.4500 H   0  0  0  0  0  0  0  0  0  0  0  0
   -2.9359    0.8493   -2.1436 O   0  0  0  0  0  0  0  0  0  0  0  0
   -3.0134    0.7294   -3.1260 H   0  0  0  0  0  0  0  0  0  0  0  0
   -1.4460    0.2503   -0.3522 C   0  0  2  0  0  0  0  0  0  0  0  0
   -0.3703    0.0132   -0.1761 H   0  0  0  0  0  0  0  0  0  0  0  0
   -2.2443   -0.8912   -0.1061 O   0  0  0  0  0  0  0  0  0  0  0  0
   -2.1447   -1.3088    1.2539 C   0  0  1  0  0  0  0  0  0  0  0  0
   -2.9030   -2.1095    1.3797 H   0  0  0  0  0  0  0  0  0  0  0  0
   -0.8170   -1.9758    1.5900 C   0  0  0  0  0  0  0  0  0  0  0  0
   -0.0922   -2.6623    0.5968 C   0  0  0  0  0  0  0  0  0  0  0  0
   -0.4445   -2.6861   -0.4267 H   0  0  0  0  0  0  0  0  0  0  0  0
    1.0977   -3.3229    0.9165 C   0  0  0  0  0  0  0  0  0  0  0  0
    1.6555   -3.8357    0.1436 H   0  0  0  0  0  0  0  0  0  0  0  0
    1.5629   -3.3307    2.2331 C   0  0  0  0  0  0  0  0  0  0  0  0
    2.4829   -3.8449    2.4791 H   0  0  0  0  0  0  0  0  0  0  0  0
    0.8324   -2.6880    3.2348 C   0  0  0  0  0  0  0  0  0  0  0  0
    1.1847   -2.7094    4.2580 H   0  0  0  0  0  0  0  0  0  0  0  0
   -0.3580   -2.0258    2.9201 C   0  0  0  0  0  0  0  0  0  0  0  0
   -0.9186   -1.5525    3.7161 H   0  0  0  0  0  0  0  0  0  0  0  0
   -2.5128   -0.2793    2.1700 O   0  0  0  0  0  0  0  0  0  0  0  0
   -1.7384    0.8913    1.9892 C   0  0  0  0  0  0  0  0  0  0  0  0
   -0.6716    0.7071    2.2477 H   0  0  0  0  0  0  0  0  0  0  0  0
   -2.1131    1.6716    2.6849 H   0  0  0  0  0  0  0  0  0  0  0  0
   -1.8722    1.4001    0.5626 C   0  0  1  0  0  0  0  0  0  0  0  0
   -2.9443    1.6625    0.3967 H   0  0  0  0  0  0  0  0  0  0  0  0
   -1.0381    2.5260    0.3615 O   0  0  0  0  0  0  0  0  0  0  0  0
   -1.2348    3.0466   -0.9458 C   0  0  1  0  0  0  0  0  0  0  0  0
   -2.3069    3.3216   -1.1016 H   0  0  0  0  0  0  0  0  0  0  0  0
   -0.4563    4.2030   -1.0936 O   0  0  0  0  0  0  0  0  0  0  0  0
   -0.8306    4.8753   -0.4663 H   0  0  0  0  0  0  0  0  0  0  0  0
    0.7195    1.3122   -4.4873 C   0  0  0  0  0  0  0  0  0  0  0  0
    1.0881    1.1838   -5.5261 H   0  0  0  0  0  0  0  0  0  0  0  0
    1.5564    1.7028   -3.8719 H   0  0  0  0  0  0  0  0  0  0  0  0
    0.4095    0.3172   -4.1116 H   0  0  0  0  0  0  0  0  0  0  0  0
  1  2  1  0
  2  3  1  0
  3  4  2  0
  4  5  1  0
  5  6  1  6
  5  7  1  0
  7  8  1  6
  7  9  1  0
  9 10  1  0
  7 11  1  0
 11 12  1  1
 11 13  1  0
 13 14  1  0
 14 15  1  6
 14 16  1  0
 16 17  2  0
 17 18  1  0
 17 19  1  0
 19 20  1  0
 19 21  2  0
 21 22  1  0
 21 23  1  0
 23 24  1  0
 23 25  2  0
 25 26  1  0
 14 27  1  0
 27 28  1  0
 28 29  1  0
 28 30  1  0
 28 31  1  0
 31 32  1  6
 31 33  1  0
 33 34  1  0
 34 35  1  6
 34 36  1  0
 36 37  1  0
  3 38  1  0
 38 39  1  0
 38 40  1  0
 38 41  1  0
 34  5  1  0
 31 11  1  0
 25 16  1  0
M  END
>  <UniqueID>  (310) 
309

>  <SMILES>  (310) 
C/C(O)=N\[C@@H]1[C@H](O)[C@@H]2O[C@@H](c3ccccc3)OC[C@H]2O[C@H]1O

>  <Energy>  (310) 
53.3692684376483

>  <Genealogy>  (310) 
CC(O)=N[C@@H]1[C@H](O)[C@@H]2O[C@@H](c3ccccc3)OC[C@H]2O[C@H]1O (tautomer)
C/C(O)=N\[C@@H]1[C@H](O)[C@@H]2O[C@@H](c3ccccc3)OC[C@H]2O[C@H]1O (cis-trans isomerization)
C/C(O)=N\[C@@H]1[C@H](O)[C@@H]2O[C@@H](c3ccccc3)OC[C@H]2O[C@H]1O (3D coordinates assigned)
C/C(O)=N\[C@@H]1[C@H](O)[C@@H]2O[C@@H](c3ccccc3)OC[C@H]2O[C@H]1O (nonaromatic ring conformer: 53.3692684376483 kcal/mol)

$$$$
ZINC000004027859
     RDKit          3D

 41 43  0  0  0  0  0  0  0  0999 V2000
   -5.3109   -2.0419   -1.7252 C   0  0  0  0  0  0  0  0  0  0  0  0
   -4.1177   -1.1438   -1.7597 C   0  0  0  0  0  0  0  0  0  0  0  0
   -3.4339   -1.0559   -2.8153 O   0  0  0  0  0  0  0  0  0  0  0  0
   -3.7573   -0.3901   -0.5939 N   0  0  0  0  0  0  0  0  0  0  0  0
   -2.5742    0.4775   -0.5541 C   0  0  2  0  0  0  0  0  0  0  0  0
   -1.2875   -0.3714   -0.4481 C   0  0  2  0  0  0  0  0  0  0  0  0
   -1.4000   -1.2771    0.6226 O   0  0  0  0  0  0  0  0  0  0  0  0
   -0.0869    0.5643   -0.2406 C   0  0  2  0  0  0  0  0  0  0  0  0
    1.0973   -0.1744   -0.0152 O   0  0  0  0  0  0  0  0  0  0  0  0
    2.1897    0.7203    0.1476 C   0  0  2  0  0  0  0  0  0  0  0  0
    3.4445   -0.0931    0.3241 C   0  0  0  0  0  0  0  0  0  0  0  0
    3.5532   -0.9941    1.3982 C   0  0  0  0  0  0  0  0  0  0  0  0
    4.7149   -1.7533    1.5688 C   0  0  0  0  0  0  0  0  0  0  0  0
    5.7763   -1.6204    0.6703 C   0  0  0  0  0  0  0  0  0  0  0  0
    5.6783   -0.7275   -0.4000 C   0  0  0  0  0  0  0  0  0  0  0  0
    4.5185    0.0342   -0.5748 C   0  0  0  0  0  0  0  0  0  0  0  0
    2.0181    1.5336    1.3003 O   0  0  0  0  0  0  0  0  0  0  0  0
    0.8733    2.3517    1.1529 C   0  0  0  0  0  0  0  0  0  0  0  0
   -0.3669    1.4849    0.9545 C   0  0  1  0  0  0  0  0  0  0  0  0
   -1.5021    2.2900    0.6971 O   0  0  0  0  0  0  0  0  0  0  0  0
   -2.6649    1.4755    0.6288 C   0  0  1  0  0  0  0  0  0  0  0  0
   -3.7829    2.2996    0.4399 O   0  0  0  0  0  0  0  0  0  0  0  0
   -6.2126   -1.4523   -1.4578 H   0  0  0  0  0  0  0  0  0  0  0  0
   -5.4719   -2.5181   -2.7156 H   0  0  0  0  0  0  0  0  0  0  0  0
   -5.1547   -2.8358   -0.9652 H   0  0  0  0  0  0  0  0  0  0  0  0
   -4.3796   -0.4513    0.2442 H   0  0  0  0  0  0  0  0  0  0  0  0
   -2.5332    1.0744   -1.4936 H   0  0  0  0  0  0  0  0  0  0  0  0
   -1.1472   -0.9299   -1.4030 H   0  0  0  0  0  0  0  0  0  0  0  0
   -0.7494   -2.0076    0.4532 H   0  0  0  0  0  0  0  0  0  0  0  0
    0.0188    1.1753   -1.1699 H   0  0  0  0  0  0  0  0  0  0  0  0
    2.3079    1.3600   -0.7614 H   0  0  0  0  0  0  0  0  0  0  0  0
    2.7382   -1.1070    2.1023 H   0  0  0  0  0  0  0  0  0  0  0  0
    4.7922   -2.4446    2.3979 H   0  0  0  0  0  0  0  0  0  0  0  0
    6.6750   -2.2085    0.8039 H   0  0  0  0  0  0  0  0  0  0  0  0
    6.5022   -0.6250   -1.0944 H   0  0  0  0  0  0  0  0  0  0  0  0
    4.4612    0.7212   -1.4097 H   0  0  0  0  0  0  0  0  0  0  0  0
    0.7478    2.9553    2.0765 H   0  0  0  0  0  0  0  0  0  0  0  0
    1.0040    3.0637    0.3059 H   0  0  0  0  0  0  0  0  0  0  0  0
   -0.5048    0.8864    1.8867 H   0  0  0  0  0  0  0  0  0  0  0  0
   -2.8011    0.9101    1.5831 H   0  0  0  0  0  0  0  0  0  0  0  0
   -3.8718    2.8453    1.2644 H   0  0  0  0  0  0  0  0  0  0  0  0
  1  2  1  0
  2  3  2  0
  2  4  1  0
  4  5  1  0
  5  6  1  0
  6  7  1  0
  6  8  1  0
  8  9  1  0
  9 10  1  0
 10 11  1  0
 11 12  2  0
 12 13  1  0
 13 14  2  0
 14 15  1  0
 15 16  2  0
 10 17  1  0
 17 18  1  0
 18 19  1  0
 19 20  1  0
 20 21  1  0
 21 22  1  0
 21  5  1  0
 19  8  1  0
 16 11  1  0
  1 23  1  0
  1 24  1  0
  1 25  1  0
  4 26  1  0
  5 27  1  6
  6 28  1  6
  7 29  1  0
  8 30  1  6
 10 31  1  6
 12 32  1  0
 13 33  1  0
 14 34  1  0
 15 35  1  0
 16 36  1  0
 18 37  1  0
 18 38  1  0
 19 39  1  1
 21 40  1  1
 22 41  1  0
M  END
>  <UniqueID>  (311) 
310

>  <SMILES>  (311) 
CC(=O)N[C@@H]1[C@H](O)[C@@H]2O[C@H](c3ccccc3)OC[C@H]2O[C@H]1O

>  <Energy>  (311) 
45.35753908846827

>  <Genealogy>  (311) 
CC(=O)N[C@@H]1[C@H](O)[C@@H]2O[C@H](c3ccccc3)OC[C@H]2O[C@H]1O (3D coordinates assigned)
CC(=O)N[C@@H]1[C@H](O)[C@@H]2O[C@H](c3ccccc3)OC[C@H]2O[C@H]1O (nonaromatic ring conformer: 45.35753908846827 kcal/mol)

$$$$
ZINC000004027859
     RDKit          3D

 41 43  0  0  0  0  0  0  0  0999 V2000
    4.3313   -2.4681   -2.1109 H   0  0  0  0  0  0  0  0  0  0  0  0
    3.7219   -1.6663   -2.0028 O   0  0  0  0  0  0  0  0  0  0  0  0
    3.0483   -1.1194   -3.0946 C   0  0  0  0  0  0  0  0  0  0  0  0
    2.2538   -0.1025   -2.9417 N   0  0  0  0  0  0  0  0  0  0  0  0
    1.9882    0.5534   -1.6594 C   0  0  2  0  0  0  0  0  0  0  0  0
    2.9490    0.7047   -1.1156 H   0  0  0  0  0  0  0  0  0  0  0  0
    1.0512   -0.3127   -0.7868 C   0  0  2  0  0  0  0  0  0  0  0  0
    1.6083   -1.2192   -0.4534 H   0  0  0  0  0  0  0  0  0  0  0  0
   -0.0795   -0.6944   -1.5319 O   0  0  0  0  0  0  0  0  0  0  0  0
   -0.4602   -1.4972   -1.0890 H   0  0  0  0  0  0  0  0  0  0  0  0
    0.6344    0.4952    0.4518 C   0  0  2  0  0  0  0  0  0  0  0  0
    1.5569    0.6701    1.0569 H   0  0  0  0  0  0  0  0  0  0  0  0
   -0.3160   -0.2146    1.2209 O   0  0  0  0  0  0  0  0  0  0  0  0
   -0.6627    0.5488    2.3687 C   0  0  2  0  0  0  0  0  0  0  0  0
    0.2456    0.7577    2.9859 H   0  0  0  0  0  0  0  0  0  0  0  0
   -1.6275   -0.2562    3.1986 C   0  0  0  0  0  0  0  0  0  0  0  0
   -2.8514   -0.6739    2.6462 C   0  0  0  0  0  0  0  0  0  0  0  0
   -3.1051   -0.4209    1.6240 H   0  0  0  0  0  0  0  0  0  0  0  0
   -3.7532   -1.4204    3.4108 C   0  0  0  0  0  0  0  0  0  0  0  0
   -4.6932   -1.7392    2.9794 H   0  0  0  0  0  0  0  0  0  0  0  0
   -3.4424   -1.7553    4.7312 C   0  0  0  0  0  0  0  0  0  0  0  0
   -4.1415   -2.3331    5.3217 H   0  0  0  0  0  0  0  0  0  0  0  0
   -2.2294   -1.3439    5.2896 C   0  0  0  0  0  0  0  0  0  0  0  0
   -1.9903   -1.6036    6.3127 H   0  0  0  0  0  0  0  0  0  0  0  0
   -1.3240   -0.5971    4.5290 C   0  0  0  0  0  0  0  0  0  0  0  0
   -0.3892   -0.2869    4.9791 H   0  0  0  0  0  0  0  0  0  0  0  0
   -1.2971    1.7661    2.0012 O   0  0  0  0  0  0  0  0  0  0  0  0
   -0.4040    2.5757    1.2609 C   0  0  0  0  0  0  0  0  0  0  0  0
    0.4691    2.8733    1.8861 H   0  0  0  0  0  0  0  0  0  0  0  0
   -0.9319    3.5069    0.9652 H   0  0  0  0  0  0  0  0  0  0  0  0
    0.0477    1.8403    0.0023 C   0  0  1  0  0  0  0  0  0  0  0  0
   -0.8577    1.6812   -0.6308 H   0  0  0  0  0  0  0  0  0  0  0  0
    1.0233    2.5951   -0.6921 O   0  0  0  0  0  0  0  0  0  0  0  0
    1.3565    1.9460   -1.9129 C   0  0  1  0  0  0  0  0  0  0  0  0
    0.4441    1.8283   -2.5424 H   0  0  0  0  0  0  0  0  0  0  0  0
    2.2492    2.7517   -2.6368 O   0  0  0  0  0  0  0  0  0  0  0  0
    3.0062    2.9667   -2.0311 H   0  0  0  0  0  0  0  0  0  0  0  0
    3.2196   -1.7226   -4.4514 C   0  0  0  0  0  0  0  0  0  0  0  0
    4.2868   -1.9795   -4.6162 H   0  0  0  0  0  0  0  0  0  0  0  0
    2.6072   -2.6452   -4.5238 H   0  0  0  0  0  0  0  0  0  0  0  0
    2.8998   -1.0104   -5.2419 H   0  0  0  0  0  0  0  0  0  0  0  0
  1  2  1  0
  2  3  1  0
  3  4  2  0
  4  5  1  0
  5  6  1  1
  5  7  1  0
  7  8  1  1
  7  9  1  0
  9 10  1  0
  7 11  1  0
 11 12  1  1
 11 13  1  0
 13 14  1  0
 14 15  1  1
 14 16  1  0
 16 17  2  0
 17 18  1  0
 17 19  1  0
 19 20  1  0
 19 21  2  0
 21 22  1  0
 21 23  1  0
 23 24  1  0
 23 25  2  0
 25 26  1  0
 14 27  1  0
 27 28  1  0
 28 29  1  0
 28 30  1  0
 28 31  1  0
 31 32  1  6
 31 33  1  0
 33 34  1  0
 34 35  1  6
 34 36  1  0
 36 37  1  0
  3 38  1  0
 38 39  1  0
 38 40  1  0
 38 41  1  0
 34  5  1  0
 31 11  1  0
 25 16  1  0
M  END
>  <UniqueID>  (312) 
311

>  <SMILES>  (312) 
C/C(O)=N\[C@@H]1[C@H](O)[C@@H]2O[C@H](c3ccccc3)OC[C@H]2O[C@H]1O

>  <Energy>  (312) 
46.15328353382246

>  <Genealogy>  (312) 
CC(O)=N[C@@H]1[C@H](O)[C@@H]2O[C@H](c3ccccc3)OC[C@H]2O[C@H]1O (tautomer)
C/C(O)=N\[C@@H]1[C@H](O)[C@@H]2O[C@H](c3ccccc3)OC[C@H]2O[C@H]1O (cis-trans isomerization)
C/C(O)=N\[C@@H]1[C@H](O)[C@@H]2O[C@H](c3ccccc3)OC[C@H]2O[C@H]1O (3D coordinates assigned)
C/C(O)=N\[C@@H]1[C@H](O)[C@@H]2O[C@H](c3ccccc3)OC[C@H]2O[C@H]1O (nonaromatic ring conformer: 46.15328353382246 kcal/mol)

$$$$
ZINC000004027859
     RDKit          3D

 41 43  0  0  0  0  0  0  0  0999 V2000
    4.7681    0.9964   -4.0487 H   0  0  0  0  0  0  0  0  0  0  0  0
    4.0460    0.7645   -3.3773 O   0  0  0  0  0  0  0  0  0  0  0  0
    3.2344   -0.3565   -3.5480 C   0  0  0  0  0  0  0  0  0  0  0  0
    2.2984   -0.6365   -2.6909 N   0  0  0  0  0  0  0  0  0  0  0  0
    1.9883    0.1586   -1.4998 C   0  0  2  0  0  0  0  0  0  0  0  0
    2.9266    0.5881   -1.0792 H   0  0  0  0  0  0  0  0  0  0  0  0
    1.3735   -0.7560   -0.4159 C   0  0  2  0  0  0  0  0  0  0  0  0
    2.1631   -1.4398   -0.0224 H   0  0  0  0  0  0  0  0  0  0  0  0
    0.3052   -1.5063   -0.9419 O   0  0  0  0  0  0  0  0  0  0  0  0
    0.6964   -2.3216   -1.3513 H   0  0  0  0  0  0  0  0  0  0  0  0
    0.8746    0.1151    0.7424 C   0  0  2  0  0  0  0  0  0  0  0  0
    1.7687    0.5983    1.2070 H   0  0  0  0  0  0  0  0  0  0  0  0
    0.1919   -0.6551    1.7039 O   0  0  0  0  0  0  0  0  0  0  0  0
   -0.1958    0.1452    2.8231 C   0  0  2  0  0  0  0  0  0  0  0  0
    0.5082   -0.1112    3.6443 H   0  0  0  0  0  0  0  0  0  0  0  0
   -1.5857   -0.2243    3.2932 C   0  0  0  0  0  0  0  0  0  0  0  0
   -1.9440   -0.0120    4.6358 C   0  0  0  0  0  0  0  0  0  0  0  0
   -1.2232    0.3880    5.3384 H   0  0  0  0  0  0  0  0  0  0  0  0
   -3.2351   -0.3140    5.0798 C   0  0  0  0  0  0  0  0  0  0  0  0
   -3.5016   -0.1532    6.1164 H   0  0  0  0  0  0  0  0  0  0  0  0
   -4.1834   -0.8177    4.1861 C   0  0  0  0  0  0  0  0  0  0  0  0
   -5.1831   -1.0484    4.5309 H   0  0  0  0  0  0  0  0  0  0  0  0
   -3.8435   -1.0168    2.8458 C   0  0  0  0  0  0  0  0  0  0  0  0
   -4.5818   -1.3983    2.1525 H   0  0  0  0  0  0  0  0  0  0  0  0
   -2.5535   -0.7176    2.3972 C   0  0  0  0  0  0  0  0  0  0  0  0
   -2.3157   -0.8660    1.3517 H   0  0  0  0  0  0  0  0  0  0  0  0
   -0.0930    1.5571    2.6223 O   0  0  0  0  0  0  0  0  0  0  0  0
   -0.6600    1.9622    1.3881 C   0  0  0  0  0  0  0  0  0  0  0  0
   -1.7666    1.8535    1.4246 H   0  0  0  0  0  0  0  0  0  0  0  0
   -0.4605    3.0471    1.2578 H   0  0  0  0  0  0  0  0  0  0  0  0
   -0.0782    1.1811    0.1981 C   0  0  1  0  0  0  0  0  0  0  0  0
   -0.9394    0.6970   -0.3222 H   0  0  0  0  0  0  0  0  0  0  0  0
    0.6165    2.0382   -0.6897 O   0  0  0  0  0  0  0  0  0  0  0  0
    1.0115    1.3170   -1.8520 C   0  0  1  0  0  0  0  0  0  0  0  0
    0.1137    0.8958   -2.3607 H   0  0  0  0  0  0  0  0  0  0  0  0
    1.6131    2.2026   -2.7583 O   0  0  0  0  0  0  0  0  0  0  0  0
    2.3259    2.6859   -2.2638 H   0  0  0  0  0  0  0  0  0  0  0  0
    3.4256   -1.2360   -4.7413 C   0  0  0  0  0  0  0  0  0  0  0  0
    2.9601   -0.7587   -5.6285 H   0  0  0  0  0  0  0  0  0  0  0  0
    2.9587   -2.2306   -4.5758 H   0  0  0  0  0  0  0  0  0  0  0  0
    4.5097   -1.3806   -4.9317 H   0  0  0  0  0  0  0  0  0  0  0  0
  1  2  1  0
  2  3  1  0
  3  4  2  0
  4  5  1  0
  5  6  1  1
  5  7  1  0
  7  8  1  1
  7  9  1  0
  9 10  1  0
  7 11  1  0
 11 12  1  1
 11 13  1  0
 13 14  1  0
 14 15  1  1
 14 16  1  0
 16 17  2  0
 17 18  1  0
 17 19  1  0
 19 20  1  0
 19 21  2  0
 21 22  1  0
 21 23  1  0
 23 24  1  0
 23 25  2  0
 25 26  1  0
 14 27  1  0
 27 28  1  0
 28 29  1  0
 28 30  1  0
 28 31  1  0
 31 32  1  6
 31 33  1  0
 33 34  1  0
 34 35  1  6
 34 36  1  0
 36 37  1  0
  3 38  1  0
 38 39  1  0
 38 40  1  0
 38 41  1  0
 34  5  1  0
 31 11  1  0
 25 16  1  0
M  END
>  <UniqueID>  (313) 
312

>  <SMILES>  (313) 
C/C(O)=N\[C@@H]1[C@H](O)[C@@H]2O[C@H](c3ccccc3)OC[C@H]2O[C@H]1O

>  <Energy>  (313) 
56.9593281129587

>  <Genealogy>  (313) 
CC(O)=N[C@@H]1[C@H](O)[C@@H]2O[C@H](c3ccccc3)OC[C@H]2O[C@H]1O (tautomer)
C/C(O)=N\[C@@H]1[C@H](O)[C@@H]2O[C@H](c3ccccc3)OC[C@H]2O[C@H]1O (cis-trans isomerization)
C/C(O)=N\[C@@H]1[C@H](O)[C@@H]2O[C@H](c3ccccc3)OC[C@H]2O[C@H]1O (3D coordinates assigned)
C/C(O)=N\[C@@H]1[C@H](O)[C@@H]2O[C@H](c3ccccc3)OC[C@H]2O[C@H]1O (nonaromatic ring conformer: 56.9593281129587 kcal/mol)

$$$$
ZINC000012364260
     RDKit          3D

 41 43  0  0  0  0  0  0  0  0999 V2000
    0.1677    5.8346    3.4615 H   0  0  0  0  0  0  0  0  0  0  0  0
   -0.2085    5.1633    4.1208 O   0  0  0  0  0  0  0  0  0  0  0  0
   -0.5227    3.8659    3.7262 C   0  0  0  0  0  0  0  0  0  0  0  0
   -0.3156    3.5132    2.4885 N   0  0  0  0  0  0  0  0  0  0  0  0
   -0.6019    2.2064    1.8861 C   0  0  1  0  0  0  0  0  0  0  0  0
   -0.4525    1.3994    2.6373 H   0  0  0  0  0  0  0  0  0  0  0  0
   -2.0665    2.1449    1.3808 C   0  0  1  0  0  0  0  0  0  0  0  0
   -2.7304    2.1769    2.2713 H   0  0  0  0  0  0  0  0  0  0  0  0
   -2.3658    3.2557    0.5720 O   0  0  0  0  0  0  0  0  0  0  0  0
   -3.3378    3.2062    0.3766 H   0  0  0  0  0  0  0  0  0  0  0  0
   -2.3369    0.9264    0.6971 O   0  0  0  0  0  0  0  0  0  0  0  0
   -1.4902    0.7780   -0.4300 C   0  0  2  0  0  0  0  0  0  0  0  0
   -1.6230    1.6233   -1.1450 H   0  0  0  0  0  0  0  0  0  0  0  0
   -1.8296   -0.5049   -1.1728 C   0  0  0  0  0  0  0  0  0  0  0  0
   -1.8127   -1.3793   -0.4844 H   0  0  0  0  0  0  0  0  0  0  0  0
   -2.8624   -0.4249   -1.5731 H   0  0  0  0  0  0  0  0  0  0  0  0
   -0.9428   -0.6974   -2.2583 O   0  0  0  0  0  0  0  0  0  0  0  0
    0.4179   -0.7336   -1.8334 C   0  0  2  0  0  0  0  0  0  0  0  0
    1.0242   -0.7368   -2.7632 H   0  0  0  0  0  0  0  0  0  0  0  0
    0.7982   -2.0237   -1.1182 C   0  0  0  0  0  0  0  0  0  0  0  0
    1.9119   -2.0603   -0.2572 C   0  0  0  0  0  0  0  0  0  0  0  0
    2.4839   -1.1634   -0.0559 H   0  0  0  0  0  0  0  0  0  0  0  0
    2.2959   -3.2572    0.3549 C   0  0  0  0  0  0  0  0  0  0  0  0
    3.1446   -3.2727    1.0264 H   0  0  0  0  0  0  0  0  0  0  0  0
    1.5926   -4.4349    0.0936 C   0  0  0  0  0  0  0  0  0  0  0  0
    1.8930   -5.3611    0.5663 H   0  0  0  0  0  0  0  0  0  0  0  0
    0.5113   -4.4203   -0.7899 C   0  0  0  0  0  0  0  0  0  0  0  0
   -0.0223   -5.3370   -1.0053 H   0  0  0  0  0  0  0  0  0  0  0  0
    0.1233   -3.2258   -1.4043 C   0  0  0  0  0  0  0  0  0  0  0  0
   -0.7044   -3.2421   -2.1018 H   0  0  0  0  0  0  0  0  0  0  0  0
    0.8000    0.4439   -1.1261 O   0  0  0  0  0  0  0  0  0  0  0  0
   -0.0276    0.6593    0.0009 C   0  0  1  0  0  0  0  0  0  0  0  0
    0.0809   -0.1838    0.7229 H   0  0  0  0  0  0  0  0  0  0  0  0
    0.3890    1.9415    0.7361 C   0  0  1  0  0  0  0  0  0  0  0  0
    1.4036    1.7939    1.1770 H   0  0  0  0  0  0  0  0  0  0  0  0
    0.4091    3.0360   -0.1478 O   0  0  0  0  0  0  0  0  0  0  0  0
    1.2713    2.9961   -0.6382 H   0  0  0  0  0  0  0  0  0  0  0  0
   -1.0664    2.9200    4.7570 C   0  0  0  0  0  0  0  0  0  0  0  0
   -2.0589    2.5348    4.4503 H   0  0  0  0  0  0  0  0  0  0  0  0
   -1.1864    3.4471    5.7267 H   0  0  0  0  0  0  0  0  0  0  0  0
   -0.3625    2.0752    4.9071 H   0  0  0  0  0  0  0  0  0  0  0  0
  1  2  1  0
  2  3  1  0
  3  4  2  0
  4  5  1  0
  5  6  1  1
  5  7  1  0
  7  8  1  1
  7  9  1  0
  9 10  1  0
  7 11  1  0
 11 12  1  0
 12 13  1  6
 12 14  1  0
 14 15  1  0
 14 16  1  0
 14 17  1  0
 17 18  1  0
 18 19  1  6
 18 20  1  0
 20 21  2  0
 21 22  1  0
 21 23  1  0
 23 24  1  0
 23 25  2  0
 25 26  1  0
 25 27  1  0
 27 28  1  0
 27 29  2  0
 29 30  1  0
 18 31  1  0
 31 32  1  0
 32 33  1  1
 32 34  1  0
 34 35  1  1
 34 36  1  0
 36 37  1  0
  3 38  1  0
 38 39  1  0
 38 40  1  0
 38 41  1  0
 34  5  1  0
 32 12  1  0
 29 20  1  0
M  END
>  <UniqueID>  (314) 
313

>  <SMILES>  (314) 
C/C(O)=N/[C@H]1[C@@H](O)O[C@@H]2CO[C@H](c3ccccc3)O[C@H]2[C@H]1O

>  <Energy>  (314) 
55.1745251771166

>  <Genealogy>  (314) 
CC(O)=N[C@H]1[C@@H](O)O[C@@H]2CO[C@H](c3ccccc3)O[C@H]2[C@H]1O (tautomer)
C/C(O)=N/[C@H]1[C@@H](O)O[C@@H]2CO[C@H](c3ccccc3)O[C@H]2[C@H]1O (cis-trans isomerization)
C/C(O)=N/[C@H]1[C@@H](O)O[C@@H]2CO[C@H](c3ccccc3)O[C@H]2[C@H]1O (3D coordinates assigned)
C/C(O)=N/[C@H]1[C@@H](O)O[C@@H]2CO[C@H](c3ccccc3)O[C@H]2[C@H]1O (nonaromatic ring conformer: 55.1745251771166 kcal/mol)

$$$$
ZINC000012364260
     RDKit          3D

 41 43  0  0  0  0  0  0  0  0999 V2000
   -4.1417   -0.0891   -5.3160 H   0  0  0  0  0  0  0  0  0  0  0  0
   -3.7359    0.6054   -4.7003 O   0  0  0  0  0  0  0  0  0  0  0  0
   -2.5687    0.3547   -3.9831 C   0  0  0  0  0  0  0  0  0  0  0  0
   -2.0989    1.2997   -3.2197 N   0  0  0  0  0  0  0  0  0  0  0  0
   -0.9035    1.2343   -2.3714 C   0  0  1  0  0  0  0  0  0  0  0  0
   -0.1265    0.6023   -2.8561 H   0  0  0  0  0  0  0  0  0  0  0  0
   -0.2966    2.6499   -2.2230 C   0  0  1  0  0  0  0  0  0  0  0  0
    0.0722    2.9523   -3.2295 H   0  0  0  0  0  0  0  0  0  0  0  0
   -1.2717    3.5775   -1.8147 O   0  0  0  0  0  0  0  0  0  0  0  0
   -0.8406    4.4709   -1.8515 H   0  0  0  0  0  0  0  0  0  0  0  0
    0.8180    2.6562   -1.3385 O   0  0  0  0  0  0  0  0  0  0  0  0
    0.4389    2.2207   -0.0438 C   0  0  2  0  0  0  0  0  0  0  0  0
   -0.3565    2.8755    0.3825 H   0  0  0  0  0  0  0  0  0  0  0  0
    1.6318    2.2807    0.8976 C   0  0  0  0  0  0  0  0  0  0  0  0
    2.4991    1.7246    0.4765 H   0  0  0  0  0  0  0  0  0  0  0  0
    1.9469    3.3396    1.0100 H   0  0  0  0  0  0  0  0  0  0  0  0
    1.2808    1.7806    2.1738 O   0  0  0  0  0  0  0  0  0  0  0  0
    0.7895    0.4437    2.1046 C   0  0  2  0  0  0  0  0  0  0  0  0
    0.4094    0.2092    3.1207 H   0  0  0  0  0  0  0  0  0  0  0  0
    1.8769   -0.5920    1.8486 C   0  0  0  0  0  0  0  0  0  0  0  0
    1.5497   -1.8518    1.3113 C   0  0  0  0  0  0  0  0  0  0  0  0
    0.5304   -2.0843    1.0300 H   0  0  0  0  0  0  0  0  0  0  0  0
    2.5383   -2.8234    1.1291 C   0  0  0  0  0  0  0  0  0  0  0  0
    2.2800   -3.7837    0.7019 H   0  0  0  0  0  0  0  0  0  0  0  0
    3.8568   -2.5607    1.5066 C   0  0  0  0  0  0  0  0  0  0  0  0
    4.6203   -3.3151    1.3673 H   0  0  0  0  0  0  0  0  0  0  0  0
    4.1868   -1.3302    2.0783 C   0  0  0  0  0  0  0  0  0  0  0  0
    5.2056   -1.1339    2.3866 H   0  0  0  0  0  0  0  0  0  0  0  0
    3.2018   -0.3552    2.2621 C   0  0  0  0  0  0  0  0  0  0  0  0
    3.4761    0.5835    2.7265 H   0  0  0  0  0  0  0  0  0  0  0  0
   -0.3321    0.3193    1.2333 O   0  0  0  0  0  0  0  0  0  0  0  0
   -0.0206    0.7623   -0.0737 C   0  0  1  0  0  0  0  0  0  0  0  0
    0.7849    0.1273   -0.5120 H   0  0  0  0  0  0  0  0  0  0  0  0
   -1.2455    0.6334   -0.9909 C   0  0  1  0  0  0  0  0  0  0  0  0
   -1.4820   -0.4475   -1.1160 H   0  0  0  0  0  0  0  0  0  0  0  0
   -2.3534    1.3000   -0.4362 O   0  0  0  0  0  0  0  0  0  0  0  0
   -2.7507    0.6901    0.2389 H   0  0  0  0  0  0  0  0  0  0  0  0
   -1.8827   -0.9767   -4.1316 C   0  0  0  0  0  0  0  0  0  0  0  0
   -2.4673   -1.6431   -4.7992 H   0  0  0  0  0  0  0  0  0  0  0  0
   -0.8774   -0.8371   -4.5806 H   0  0  0  0  0  0  0  0  0  0  0  0
   -1.7886   -1.4790   -3.1488 H   0  0  0  0  0  0  0  0  0  0  0  0
  1  2  1  0
  2  3  1  0
  3  4  2  0
  4  5  1  0
  5  6  1  6
  5  7  1  0
  7  8  1  6
  7  9  1  0
  9 10  1  0
  7 11  1  0
 11 12  1  0
 12 13  1  1
 12 14  1  0
 14 15  1  0
 14 16  1  0
 14 17  1  0
 17 18  1  0
 18 19  1  1
 18 20  1  0
 20 21  2  0
 21 22  1  0
 21 23  1  0
 23 24  1  0
 23 25  2  0
 25 26  1  0
 25 27  1  0
 27 28  1  0
 27 29  2  0
 29 30  1  0
 18 31  1  0
 31 32  1  0
 32 33  1  6
 32 34  1  0
 34 35  1  6
 34 36  1  0
 36 37  1  0
  3 38  1  0
 38 39  1  0
 38 40  1  0
 38 41  1  0
 34  5  1  0
 32 12  1  0
 29 20  1  0
M  END
>  <UniqueID>  (315) 
314

>  <SMILES>  (315) 
C/C(O)=N\[C@H]1[C@@H](O)O[C@@H]2CO[C@H](c3ccccc3)O[C@H]2[C@H]1O

>  <Energy>  (315) 
55.244359160608575

>  <Genealogy>  (315) 
CC(O)=N[C@H]1[C@@H](O)O[C@@H]2CO[C@H](c3ccccc3)O[C@H]2[C@H]1O (tautomer)
C/C(O)=N\[C@H]1[C@@H](O)O[C@@H]2CO[C@H](c3ccccc3)O[C@H]2[C@H]1O (cis-trans isomerization)
C/C(O)=N\[C@H]1[C@@H](O)O[C@@H]2CO[C@H](c3ccccc3)O[C@H]2[C@H]1O (3D coordinates assigned)
C/C(O)=N\[C@H]1[C@@H](O)O[C@@H]2CO[C@H](c3ccccc3)O[C@H]2[C@H]1O (nonaromatic ring conformer: 55.244359160608575 kcal/mol)

$$$$
ZINC000012364260
     RDKit          3D

 41 43  0  0  0  0  0  0  0  0999 V2000
   -5.9156    0.3048   -0.1422 C   0  0  0  0  0  0  0  0  0  0  0  0
   -4.4785   -0.0427    0.0710 C   0  0  0  0  0  0  0  0  0  0  0  0
   -3.9162    0.2738    1.1542 O   0  0  0  0  0  0  0  0  0  0  0  0
   -3.7608   -0.7680   -0.9373 N   0  0  0  0  0  0  0  0  0  0  0  0
   -2.3403   -1.1121   -0.7955 C   0  0  1  0  0  0  0  0  0  0  0  0
   -1.9261   -2.2106   -1.8067 C   0  0  1  0  0  0  0  0  0  0  0  0
   -2.2484   -1.8386   -3.1243 O   0  0  0  0  0  0  0  0  0  0  0  0
   -0.5449   -2.5301   -1.6903 O   0  0  0  0  0  0  0  0  0  0  0  0
    0.2665   -1.3964   -1.9570 C   0  0  2  0  0  0  0  0  0  0  0  0
    1.7565   -1.7817   -1.9041 C   0  0  0  0  0  0  0  0  0  0  0  0
    2.5062   -0.8943   -1.0938 O   0  0  0  0  0  0  0  0  0  0  0  0
    2.2098    0.4526   -1.4400 C   0  0  2  0  0  0  0  0  0  0  0  0
    3.1323    1.3560   -0.6662 C   0  0  0  0  0  0  0  0  0  0  0  0
    3.0511    1.4077    0.7364 C   0  0  0  0  0  0  0  0  0  0  0  0
    3.9092    2.2388    1.4630 C   0  0  0  0  0  0  0  0  0  0  0  0
    4.8559    3.0217    0.7973 C   0  0  0  0  0  0  0  0  0  0  0  0
    4.9470    2.9738   -0.5963 C   0  0  0  0  0  0  0  0  0  0  0  0
    4.0910    2.1442   -1.3276 C   0  0  0  0  0  0  0  0  0  0  0  0
    0.8624    0.8283   -1.1545 O   0  0  0  0  0  0  0  0  0  0  0  0
    0.0245   -0.2886   -0.9155 C   0  0  1  0  0  0  0  0  0  0  0  0
   -1.4474    0.1399   -0.9458 C   0  0  1  0  0  0  0  0  0  0  0  0
   -1.7239    0.8099   -2.1514 O   0  0  0  0  0  0  0  0  0  0  0  0
   -6.0504    0.7366   -1.1560 H   0  0  0  0  0  0  0  0  0  0  0  0
   -6.2525    1.0490    0.6104 H   0  0  0  0  0  0  0  0  0  0  0  0
   -6.5348   -0.6115   -0.0496 H   0  0  0  0  0  0  0  0  0  0  0  0
   -4.2922   -1.0936   -1.7765 H   0  0  0  0  0  0  0  0  0  0  0  0
   -2.1815   -1.5340    0.2229 H   0  0  0  0  0  0  0  0  0  0  0  0
   -2.5058   -3.1259   -1.5491 H   0  0  0  0  0  0  0  0  0  0  0  0
   -2.0632   -2.6315   -3.6919 H   0  0  0  0  0  0  0  0  0  0  0  0
    0.0652   -0.9987   -2.9791 H   0  0  0  0  0  0  0  0  0  0  0  0
    1.8662   -2.8022   -1.4788 H   0  0  0  0  0  0  0  0  0  0  0  0
    2.1874   -1.8142   -2.9299 H   0  0  0  0  0  0  0  0  0  0  0  0
    2.3859    0.6072   -2.5306 H   0  0  0  0  0  0  0  0  0  0  0  0
    2.3234    0.8042    1.2651 H   0  0  0  0  0  0  0  0  0  0  0  0
    3.8406    2.2751    2.5426 H   0  0  0  0  0  0  0  0  0  0  0  0
    5.5196    3.6643    1.3612 H   0  0  0  0  0  0  0  0  0  0  0  0
    5.6822    3.5795   -1.1105 H   0  0  0  0  0  0  0  0  0  0  0  0
    4.1776    2.1183   -2.4066 H   0  0  0  0  0  0  0  0  0  0  0  0
    0.2400   -0.6869    0.1040 H   0  0  0  0  0  0  0  0  0  0  0  0
   -1.6196    0.8265   -0.0841 H   0  0  0  0  0  0  0  0  0  0  0  0
   -2.5181    1.3826   -1.9887 H   0  0  0  0  0  0  0  0  0  0  0  0
  1  2  1  0
  2  3  2  0
  2  4  1  0
  4  5  1  0
  5  6  1  0
  6  7  1  0
  6  8  1  0
  8  9  1  0
  9 10  1  0
 10 11  1  0
 11 12  1  0
 12 13  1  0
 13 14  2  0
 14 15  1  0
 15 16  2  0
 16 17  1  0
 17 18  2  0
 12 19  1  0
 19 20  1  0
 20 21  1  0
 21 22  1  0
 21  5  1  0
 20  9  1  0
 18 13  1  0
  1 23  1  0
  1 24  1  0
  1 25  1  0
  4 26  1  0
  5 27  1  1
  6 28  1  1
  7 29  1  0
  9 30  1  6
 10 31  1  0
 10 32  1  0
 12 33  1  6
 14 34  1  0
 15 35  1  0
 16 36  1  0
 17 37  1  0
 18 38  1  0
 20 39  1  1
 21 40  1  1
 22 41  1  0
M  END
>  <UniqueID>  (316) 
315

>  <SMILES>  (316) 
CC(=O)N[C@H]1[C@@H](O)O[C@@H]2CO[C@H](c3ccccc3)O[C@H]2[C@H]1O

>  <Energy>  (316) 
55.24586805616203

>  <Genealogy>  (316) 
CC(=O)N[C@H]1[C@@H](O)O[C@@H]2CO[C@H](c3ccccc3)O[C@H]2[C@H]1O (3D coordinates assigned)
CC(=O)N[C@H]1[C@@H](O)O[C@@H]2CO[C@H](c3ccccc3)O[C@H]2[C@H]1O (nonaromatic ring conformer: 55.24586805616203 kcal/mol)

$$$$
ZINC000013545464
     RDKit          3D

 40 41  0  0  0  0  0  0  0  0999 V2000
   -1.6962   -3.0002   -0.0477 H   0  0  0  0  0  0  0  0  0  0  0  0
   -0.8353   -2.4706    0.0175 O   0  0  0  0  0  0  0  0  0  0  0  0
   -0.6226   -1.5669    1.0580 C   0  0  0  0  0  0  0  0  0  0  0  0
    0.4743   -0.8718    1.1213 N   0  0  0  0  0  0  0  0  0  0  0  0
    1.5695   -0.9492    0.1511 C   0  0  1  0  0  0  0  0  0  0  0  0
    1.5923   -1.9607   -0.3154 H   0  0  0  0  0  0  0  0  0  0  0  0
    1.4180    0.1140   -0.9667 C   0  0  2  0  0  0  0  0  0  0  0  0
    1.4321    1.1429   -0.5448 H   0  0  0  0  0  0  0  0  0  0  0  0
    0.1986   -0.0912   -1.6854 O   0  0  0  0  0  0  0  0  0  0  0  0
   -1.0582    0.4660   -1.3874 C   0  0  0  0  0  0  0  0  0  0  0  0
   -1.2753    1.3637   -0.3198 C   0  0  0  0  0  0  0  0  0  0  0  0
   -0.4777    1.6670    0.3409 H   0  0  0  0  0  0  0  0  0  0  0  0
   -2.5564    1.8678   -0.0737 C   0  0  0  0  0  0  0  0  0  0  0  0
   -2.7192    2.5496    0.7511 H   0  0  0  0  0  0  0  0  0  0  0  0
   -3.6279    1.4895   -0.8853 C   0  0  0  0  0  0  0  0  0  0  0  0
   -4.6185    1.8803   -0.6915 H   0  0  0  0  0  0  0  0  0  0  0  0
   -3.4209    0.6054   -1.9460 C   0  0  0  0  0  0  0  0  0  0  0  0
   -4.2514    0.3114   -2.5747 H   0  0  0  0  0  0  0  0  0  0  0  0
   -2.1425    0.0980   -2.1951 C   0  0  0  0  0  0  0  0  0  0  0  0
   -1.9931   -0.5902   -3.0175 H   0  0  0  0  0  0  0  0  0  0  0  0
    2.4844   -0.0200   -1.8910 O   0  0  0  0  0  0  0  0  0  0  0  0
    3.7260    0.3074   -1.2862 C   0  0  2  0  0  0  0  0  0  0  0  0
    3.6946    1.3421   -0.8702 H   0  0  0  0  0  0  0  0  0  0  0  0
    4.8131    0.2855   -2.3663 C   0  0  0  0  0  0  0  0  0  0  0  0
    4.8793   -0.7334   -2.8108 H   0  0  0  0  0  0  0  0  0  0  0  0
    5.7972    0.5460   -1.9165 H   0  0  0  0  0  0  0  0  0  0  0  0
    4.5020    1.2155   -3.3667 O   0  0  0  0  0  0  0  0  0  0  0  0
    5.2299    1.1513   -4.0384 H   0  0  0  0  0  0  0  0  0  0  0  0
    4.0536   -0.7056   -0.1579 C   0  0  1  0  0  0  0  0  0  0  0  0
    4.1333   -1.7184   -0.6126 H   0  0  0  0  0  0  0  0  0  0  0  0
    5.2837   -0.4223    0.4647 O   0  0  0  0  0  0  0  0  0  0  0  0
    5.2668    0.5256    0.7586 H   0  0  0  0  0  0  0  0  0  0  0  0
    2.9127   -0.7445    0.8768 C   0  0  1  0  0  0  0  0  0  0  0  0
    3.0940   -1.6087    1.5596 H   0  0  0  0  0  0  0  0  0  0  0  0
    2.8933    0.4547    1.6135 O   0  0  0  0  0  0  0  0  0  0  0  0
    2.4825    0.2495    2.4937 H   0  0  0  0  0  0  0  0  0  0  0  0
   -1.6788   -1.3741    2.0974 C   0  0  0  0  0  0  0  0  0  0  0  0
   -1.3069   -0.7359    2.9274 H   0  0  0  0  0  0  0  0  0  0  0  0
   -1.9789   -2.3597    2.5100 H   0  0  0  0  0  0  0  0  0  0  0  0
   -2.5632   -0.8873    1.6362 H   0  0  0  0  0  0  0  0  0  0  0  0
  1  2  1  0
  2  3  1  0
  3  4  2  0
  4  5  1  0
  5  6  1  6
  5  7  1  0
  7  8  1  1
  7  9  1  0
  9 10  1  0
 10 11  2  0
 11 12  1  0
 11 13  1  0
 13 14  1  0
 13 15  2  0
 15 16  1  0
 15 17  1  0
 17 18  1  0
 17 19  2  0
 19 20  1  0
  7 21  1  0
 21 22  1  0
 22 23  1  1
 22 24  1  0
 24 25  1  0
 24 26  1  0
 24 27  1  0
 27 28  1  0
 22 29  1  0
 29 30  1  6
 29 31  1  0
 31 32  1  0
 29 33  1  0
 33 34  1  1
 33 35  1  0
 35 36  1  0
  3 37  1  0
 37 38  1  0
 37 39  1  0
 37 40  1  0
 33  5  1  0
 19 10  1  0
M  END
>  <UniqueID>  (317) 
316

>  <SMILES>  (317) 
C/C(O)=N/[C@H]1[C@H](Oc2ccccc2)O[C@H](CO)[C@@H](O)[C@H]1O

>  <Energy>  (317) 
39.25476450014139

>  <Genealogy>  (317) 
CC(O)=N[C@H]1[C@H](Oc2ccccc2)O[C@H](CO)[C@@H](O)[C@H]1O (tautomer)
C/C(O)=N/[C@H]1[C@H](Oc2ccccc2)O[C@H](CO)[C@@H](O)[C@H]1O (cis-trans isomerization)
C/C(O)=N/[C@H]1[C@H](Oc2ccccc2)O[C@H](CO)[C@@H](O)[C@H]1O (3D coordinates assigned)
C/C(O)=N/[C@H]1[C@H](Oc2ccccc2)O[C@H](CO)[C@@H](O)[C@H]1O (nonaromatic ring conformer: 39.25476450014139 kcal/mol)

$$$$
ZINC000013545464
     RDKit          3D

 40 41  0  0  0  0  0  0  0  0999 V2000
    1.0388    0.7978    2.8606 H   0  0  0  0  0  0  0  0  0  0  0  0
    1.1128    0.8170    1.8506 O   0  0  0  0  0  0  0  0  0  0  0  0
    0.0836    1.3316    1.0628 C   0  0  0  0  0  0  0  0  0  0  0  0
    0.1748    1.3304   -0.2342 N   0  0  0  0  0  0  0  0  0  0  0  0
    1.3169    0.8103   -0.9904 C   0  0  1  0  0  0  0  0  0  0  0  0
    2.2456    0.8878   -0.3798 H   0  0  0  0  0  0  0  0  0  0  0  0
    1.1048   -0.6704   -1.3950 C   0  0  2  0  0  0  0  0  0  0  0  0
    0.2003   -0.7861   -2.0314 H   0  0  0  0  0  0  0  0  0  0  0  0
    0.9777   -1.4896   -0.2295 O   0  0  0  0  0  0  0  0  0  0  0  0
   -0.2119   -1.8086    0.4502 C   0  0  0  0  0  0  0  0  0  0  0  0
   -0.1110   -2.5902    1.6088 C   0  0  0  0  0  0  0  0  0  0  0  0
    0.8597   -2.9289    1.9479 H   0  0  0  0  0  0  0  0  0  0  0  0
   -1.2529   -2.9328    2.3387 C   0  0  0  0  0  0  0  0  0  0  0  0
   -1.1622   -3.5344    3.2339 H   0  0  0  0  0  0  0  0  0  0  0  0
   -2.5102   -2.4980    1.9150 C   0  0  0  0  0  0  0  0  0  0  0  0
   -3.3938   -2.7616    2.4818 H   0  0  0  0  0  0  0  0  0  0  0  0
   -2.6268   -1.7212    0.7604 C   0  0  0  0  0  0  0  0  0  0  0  0
   -3.6016   -1.3809    0.4357 H   0  0  0  0  0  0  0  0  0  0  0  0
   -1.4873   -1.3769    0.0263 C   0  0  0  0  0  0  0  0  0  0  0  0
   -1.6184   -0.7612   -0.8503 H   0  0  0  0  0  0  0  0  0  0  0  0
    2.2359   -1.1284   -2.1154 O   0  0  0  0  0  0  0  0  0  0  0  0
    2.3597   -0.4483   -3.3549 C   0  0  2  0  0  0  0  0  0  0  0  0
    1.4254   -0.5629   -3.9534 H   0  0  0  0  0  0  0  0  0  0  0  0
    3.4816   -1.1140   -4.1683 C   0  0  0  0  0  0  0  0  0  0  0  0
    3.5478   -0.6467   -5.1734 H   0  0  0  0  0  0  0  0  0  0  0  0
    3.2404   -2.1901   -4.3273 H   0  0  0  0  0  0  0  0  0  0  0  0
    4.7226   -0.9838   -3.5264 O   0  0  0  0  0  0  0  0  0  0  0  0
    4.7449   -1.6658   -2.8055 H   0  0  0  0  0  0  0  0  0  0  0  0
    2.6376    1.0578   -3.1193 C   0  0  1  0  0  0  0  0  0  0  0  0
    3.5965    1.1718   -2.5578 H   0  0  0  0  0  0  0  0  0  0  0  0
    2.7049    1.7458   -4.3436 O   0  0  0  0  0  0  0  0  0  0  0  0
    3.6574    1.7545   -4.6230 H   0  0  0  0  0  0  0  0  0  0  0  0
    1.5193    1.6651   -2.2525 C   0  0  1  0  0  0  0  0  0  0  0  0
    1.8262    2.6895   -1.9325 H   0  0  0  0  0  0  0  0  0  0  0  0
    0.3155    1.7316   -2.9791 O   0  0  0  0  0  0  0  0  0  0  0  0
    0.3452    2.5666   -3.5152 H   0  0  0  0  0  0  0  0  0  0  0  0
   -1.1499    1.8665    1.7151 C   0  0  0  0  0  0  0  0  0  0  0  0
   -1.8149    2.3520    0.9690 H   0  0  0  0  0  0  0  0  0  0  0  0
   -1.6998    1.0332    2.1999 H   0  0  0  0  0  0  0  0  0  0  0  0
   -0.8686    2.6146    2.4850 H   0  0  0  0  0  0  0  0  0  0  0  0
  1  2  1  0
  2  3  1  0
  3  4  2  0
  4  5  1  0
  5  6  1  1
  5  7  1  0
  7  8  1  6
  7  9  1  0
  9 10  1  0
 10 11  2  0
 11 12  1  0
 11 13  1  0
 13 14  1  0
 13 15  2  0
 15 16  1  0
 15 17  1  0
 17 18  1  0
 17 19  2  0
 19 20  1  0
  7 21  1  0
 21 22  1  0
 22 23  1  6
 22 24  1  0
 24 25  1  0
 24 26  1  0
 24 27  1  0
 27 28  1  0
 22 29  1  0
 29 30  1  1
 29 31  1  0
 31 32  1  0
 29 33  1  0
 33 34  1  1
 33 35  1  0
 35 36  1  0
  3 37  1  0
 37 38  1  0
 37 39  1  0
 37 40  1  0
 33  5  1  0
 19 10  1  0
M  END
>  <UniqueID>  (318) 
317

>  <SMILES>  (318) 
C/C(O)=N\[C@H]1[C@H](Oc2ccccc2)O[C@H](CO)[C@@H](O)[C@H]1O

>  <Energy>  (318) 
39.3616246925425

>  <Genealogy>  (318) 
CC(O)=N[C@H]1[C@H](Oc2ccccc2)O[C@H](CO)[C@@H](O)[C@H]1O (tautomer)
C/C(O)=N\[C@H]1[C@H](Oc2ccccc2)O[C@H](CO)[C@@H](O)[C@H]1O (cis-trans isomerization)
C/C(O)=N\[C@H]1[C@H](Oc2ccccc2)O[C@H](CO)[C@@H](O)[C@H]1O (3D coordinates assigned)
C/C(O)=N\[C@H]1[C@H](Oc2ccccc2)O[C@H](CO)[C@@H](O)[C@H]1O (nonaromatic ring conformer: 39.3616246925425 kcal/mol)

$$$$
ZINC000013545464
     RDKit          3D

 40 41  0  0  0  0  0  0  0  0999 V2000
   -0.4222    0.9040    3.0002 C   0  0  0  0  0  0  0  0  0  0  0  0
    0.1648    0.0118    1.9556 C   0  0  0  0  0  0  0  0  0  0  0  0
    0.3178   -1.2144    2.2050 O   0  0  0  0  0  0  0  0  0  0  0  0
    0.4917    0.5415    0.6620 N   0  0  0  0  0  0  0  0  0  0  0  0
    0.9691   -0.2933   -0.4468 C   0  0  1  0  0  0  0  0  0  0  0  0
   -0.1321   -0.4893   -1.5160 C   0  0  2  0  0  0  0  0  0  0  0  0
   -1.2629   -1.1432   -0.9327 O   0  0  0  0  0  0  0  0  0  0  0  0
   -2.3102   -0.5363   -0.2174 C   0  0  0  0  0  0  0  0  0  0  0  0
   -3.1828   -1.3696    0.4952 C   0  0  0  0  0  0  0  0  0  0  0  0
   -4.2374   -0.8290    1.2365 C   0  0  0  0  0  0  0  0  0  0  0  0
   -4.4348    0.5529    1.2663 C   0  0  0  0  0  0  0  0  0  0  0  0
   -3.5801    1.3948    0.5516 C   0  0  0  0  0  0  0  0  0  0  0  0
   -2.5231    0.8583   -0.1908 C   0  0  0  0  0  0  0  0  0  0  0  0
    0.3570   -1.3281   -2.5483 O   0  0  0  0  0  0  0  0  0  0  0  0
    1.4117   -0.7032   -3.2632 C   0  0  2  0  0  0  0  0  0  0  0  0
    1.7698   -1.6060   -4.4532 C   0  0  0  0  0  0  0  0  0  0  0  0
    2.6177   -0.9378   -5.3504 O   0  0  0  0  0  0  0  0  0  0  0  0
    2.6322   -0.4856   -2.3258 C   0  0  1  0  0  0  0  0  0  0  0  0
    3.7130    0.1248   -2.9886 O   0  0  0  0  0  0  0  0  0  0  0  0
    2.2191    0.3368   -1.0878 C   0  0  1  0  0  0  0  0  0  0  0  0
    1.9476    1.6687   -1.4539 O   0  0  0  0  0  0  0  0  0  0  0  0
   -1.5122    1.0118    2.8227 H   0  0  0  0  0  0  0  0  0  0  0  0
   -0.2592    0.4743    4.0112 H   0  0  0  0  0  0  0  0  0  0  0  0
    0.0561    1.9049    2.9581 H   0  0  0  0  0  0  0  0  0  0  0  0
    0.2924    1.5512    0.4804 H   0  0  0  0  0  0  0  0  0  0  0  0
    1.2586   -1.2987   -0.0668 H   0  0  0  0  0  0  0  0  0  0  0  0
   -0.4451    0.4832   -1.9541 H   0  0  0  0  0  0  0  0  0  0  0  0
   -3.0359   -2.4422    0.4813 H   0  0  0  0  0  0  0  0  0  0  0  0
   -4.9010   -1.4820    1.7885 H   0  0  0  0  0  0  0  0  0  0  0  0
   -5.2509    0.9712    1.8412 H   0  0  0  0  0  0  0  0  0  0  0  0
   -3.7359    2.4657    0.5733 H   0  0  0  0  0  0  0  0  0  0  0  0
   -1.8871    1.5419   -0.7311 H   0  0  0  0  0  0  0  0  0  0  0  0
    1.0668    0.2733   -3.6779 H   0  0  0  0  0  0  0  0  0  0  0  0
    0.8366   -1.8670   -4.9968 H   0  0  0  0  0  0  0  0  0  0  0  0
    2.2184   -2.5626   -4.0940 H   0  0  0  0  0  0  0  0  0  0  0  0
    3.5252   -1.3241   -5.2393 H   0  0  0  0  0  0  0  0  0  0  0  0
    2.9774   -1.4818   -1.9699 H   0  0  0  0  0  0  0  0  0  0  0  0
    3.3737    0.9409   -3.4403 H   0  0  0  0  0  0  0  0  0  0  0  0
    3.0463    0.3042   -0.3387 H   0  0  0  0  0  0  0  0  0  0  0  0
    2.8000    2.1719   -1.3784 H   0  0  0  0  0  0  0  0  0  0  0  0
  1  2  1  0
  2  3  2  0
  2  4  1  0
  4  5  1  0
  5  6  1  0
  6  7  1  0
  7  8  1  0
  8  9  2  0
  9 10  1  0
 10 11  2  0
 11 12  1  0
 12 13  2  0
  6 14  1  0
 14 15  1  0
 15 16  1  0
 16 17  1  0
 15 18  1  0
 18 19  1  0
 18 20  1  0
 20 21  1  0
 20  5  1  0
 13  8  1  0
  1 22  1  0
  1 23  1  0
  1 24  1  0
  4 25  1  0
  5 26  1  1
  6 27  1  6
  9 28  1  0
 10 29  1  0
 11 30  1  0
 12 31  1  0
 13 32  1  0
 15 33  1  6
 16 34  1  0
 16 35  1  0
 17 36  1  0
 18 37  1  1
 19 38  1  0
 20 39  1  1
 21 40  1  0
M  END
>  <UniqueID>  (319) 
318

>  <SMILES>  (319) 
CC(=O)N[C@H]1[C@H](Oc2ccccc2)O[C@H](CO)[C@@H](O)[C@H]1O

>  <Energy>  (319) 
40.03931080840346

>  <Genealogy>  (319) 
CC(=O)N[C@H]1[C@H](Oc2ccccc2)O[C@H](CO)[C@@H](O)[C@H]1O (3D coordinates assigned)
CC(=O)N[C@H]1[C@H](Oc2ccccc2)O[C@H](CO)[C@@H](O)[C@H]1O (nonaromatic ring conformer: 40.03931080840346 kcal/mol)

$$$$
ZINC000015205814
     RDKit          3D

 42 43  0  0  0  0  0  0  0  0999 V2000
   -3.0765   -1.3706    0.0918 C   0  0  0  0  0  0  0  0  0  0  0  0
   -2.1724   -0.1861    0.1986 C   0  0  0  0  0  0  0  0  0  0  0  0
   -2.1912    0.5129    1.2475 O   0  0  0  0  0  0  0  0  0  0  0  0
   -1.2502    0.1100   -0.8612 N   0  0  0  0  0  0  0  0  0  0  0  0
   -0.2581    1.1884   -0.7806 C   0  0  1  0  0  0  0  0  0  0  0  0
    1.1690    0.6234   -0.5821 C   0  0  2  0  0  0  0  0  0  0  0  0
    1.2351   -0.1042    0.6479 O   0  0  0  0  0  0  0  0  0  0  0  0
    0.8498   -1.4401    0.8570 C   0  0  0  0  0  0  0  0  0  0  0  0
    0.5972   -2.3447   -0.1928 C   0  0  0  0  0  0  0  0  0  0  0  0
    0.2030   -3.6568    0.0852 C   0  0  0  0  0  0  0  0  0  0  0  0
    0.0589   -4.0948    1.4133 C   0  0  0  0  0  0  0  0  0  0  0  0
   -0.3529   -5.4434    1.7025 N   0  0  0  0  0  4  0  0  0  0  0  0
   -0.5933   -6.2480    0.7784 O   0  0  0  0  0  0  0  0  0  0  0  0
   -0.4917   -5.8683    3.0040 O   0  0  0  0  0  1  0  0  0  0  0  0
    0.3251   -3.1934    2.4569 C   0  0  0  0  0  0  0  0  0  0  0  0
    0.7202   -1.8825    2.1777 C   0  0  0  0  0  0  0  0  0  0  0  0
    2.0931    1.6940   -0.4921 O   0  0  0  0  0  0  0  0  0  0  0  0
    2.1675    2.4090   -1.7157 C   0  0  2  0  0  0  0  0  0  0  0  0
    3.3020    3.4387   -1.6055 C   0  0  0  0  0  0  0  0  0  0  0  0
    4.5093    2.8044   -1.2790 O   0  0  0  0  0  0  0  0  0  0  0  0
    0.8158    3.1044   -2.0101 C   0  0  1  0  0  0  0  0  0  0  0  0
    0.8660    3.7833   -3.2406 O   0  0  0  0  0  0  0  0  0  0  0  0
   -0.3102    2.0554   -2.0524 C   0  0  1  0  0  0  0  0  0  0  0  0
   -0.1736    1.2426   -3.1935 O   0  0  0  0  0  0  0  0  0  0  0  0
   -2.5270   -2.2832    0.4023 H   0  0  0  0  0  0  0  0  0  0  0  0
   -3.4242   -1.4914   -0.9555 H   0  0  0  0  0  0  0  0  0  0  0  0
   -3.9632   -1.2395    0.7476 H   0  0  0  0  0  0  0  0  0  0  0  0
   -1.2294   -0.5298   -1.6874 H   0  0  0  0  0  0  0  0  0  0  0  0
   -0.4862    1.8502    0.0848 H   0  0  0  0  0  0  0  0  0  0  0  0
    1.4601   -0.0384   -1.4264 H   0  0  0  0  0  0  0  0  0  0  0  0
    0.6965   -2.0561   -1.2276 H   0  0  0  0  0  0  0  0  0  0  0  0
    0.0088   -4.3290   -0.7407 H   0  0  0  0  0  0  0  0  0  0  0  0
    0.2266   -3.4998    3.4902 H   0  0  0  0  0  0  0  0  0  0  0  0
    0.9166   -1.2002    2.9952 H   0  0  0  0  0  0  0  0  0  0  0  0
    2.4261    1.7221   -2.5558 H   0  0  0  0  0  0  0  0  0  0  0  0
    3.0633    4.1724   -0.8060 H   0  0  0  0  0  0  0  0  0  0  0  0
    3.4174    3.9995   -2.5607 H   0  0  0  0  0  0  0  0  0  0  0  0
    4.8254    2.3524   -2.1047 H   0  0  0  0  0  0  0  0  0  0  0  0
    0.5855    3.8180   -1.1815 H   0  0  0  0  0  0  0  0  0  0  0  0
    1.1186    4.7238   -3.0474 H   0  0  0  0  0  0  0  0  0  0  0  0
   -1.2949    2.5803   -2.0744 H   0  0  0  0  0  0  0  0  0  0  0  0
   -0.6138    1.7194   -3.9447 H   0  0  0  0  0  0  0  0  0  0  0  0
  1  2  1  0
  2  3  2  0
  2  4  1  0
  4  5  1  0
  5  6  1  0
  6  7  1  0
  7  8  1  0
  8  9  2  0
  9 10  1  0
 10 11  2  0
 11 12  1  0
 12 13  2  0
 12 14  1  0
 11 15  1  0
 15 16  2  0
  6 17  1  0
 17 18  1  0
 18 19  1  0
 19 20  1  0
 18 21  1  0
 21 22  1  0
 21 23  1  0
 23 24  1  0
 23  5  1  0
 16  8  1  0
  1 25  1  0
  1 26  1  0
  1 27  1  0
  4 28  1  0
  5 29  1  1
  6 30  1  6
  9 31  1  0
 10 32  1  0
 15 33  1  0
 16 34  1  0
 18 35  1  6
 19 36  1  0
 19 37  1  0
 20 38  1  0
 21 39  1  1
 22 40  1  0
 23 41  1  6
 24 42  1  0
M  CHG  2  12   1  14  -1
M  END
>  <UniqueID>  (320) 
319

>  <SMILES>  (320) 
CC(=O)N[C@H]1[C@H](Oc2ccc([N+](=O)[O-])cc2)O[C@H](CO)[C@@H](O)[C@H]1O

>  <Energy>  (320) 
41.17648837315606

>  <Genealogy>  (320) 
CC(=O)N[C@H]1[C@H](Oc2ccc([N+](=O)[O-])cc2)O[C@H](CO)[C@@H](O)[C@H]1O (3D coordinates assigned)
CC(=O)N[C@H]1[C@H](Oc2ccc([N+](=O)[O-])cc2)O[C@H](CO)[C@@H](O)[C@H]1O (nonaromatic ring conformer: 41.17648837315606 kcal/mol)

$$$$
ZINC000015205814
     RDKit          3D

 42 43  0  0  0  0  0  0  0  0999 V2000
    4.4661   -2.7681    0.7764 H   0  0  0  0  0  0  0  0  0  0  0  0
    3.6204   -2.2271    0.9111 O   0  0  0  0  0  0  0  0  0  0  0  0
    2.7719   -1.9363   -0.1567 C   0  0  0  0  0  0  0  0  0  0  0  0
    1.6798   -1.2586    0.0304 N   0  0  0  0  0  0  0  0  0  0  0  0
    1.2365   -0.7361    1.3234 C   0  0  1  0  0  0  0  0  0  0  0  0
    2.1049   -0.2857    1.8569 H   0  0  0  0  0  0  0  0  0  0  0  0
    0.1813    0.3757    1.1173 C   0  0  2  0  0  0  0  0  0  0  0  0
   -0.7045   -0.0067    0.5630 H   0  0  0  0  0  0  0  0  0  0  0  0
    0.7609    1.4659    0.3946 O   0  0  0  0  0  0  0  0  0  0  0  0
    0.9268    1.5570   -0.9990 C   0  0  0  0  0  0  0  0  0  0  0  0
    0.3520    0.6456   -1.9065 C   0  0  0  0  0  0  0  0  0  0  0  0
   -0.2559   -0.1811   -1.5713 H   0  0  0  0  0  0  0  0  0  0  0  0
    0.5641    0.7883   -3.2809 C   0  0  0  0  0  0  0  0  0  0  0  0
    0.1161    0.0695   -3.9551 H   0  0  0  0  0  0  0  0  0  0  0  0
    1.3449    1.8463   -3.7786 C   0  0  0  0  0  0  0  0  0  0  0  0
    1.5663    1.9950   -5.1931 N   0  0  0  0  0  4  0  0  0  0  0  0
    1.0707    1.1851   -6.0040 O   0  0  0  0  0  0  0  0  0  0  0  0
    2.3302    3.0328   -5.6760 O   0  0  0  0  0  1  0  0  0  0  0  0
    1.9062    2.7597   -2.8710 C   0  0  0  0  0  0  0  0  0  0  0  0
    2.5100    3.5865   -3.2218 H   0  0  0  0  0  0  0  0  0  0  0  0
    1.6952    2.6145   -1.4972 C   0  0  0  0  0  0  0  0  0  0  0  0
    2.1384    3.3267   -0.8126 H   0  0  0  0  0  0  0  0  0  0  0  0
   -0.2366    0.8736    2.3761 O   0  0  0  0  0  0  0  0  0  0  0  0
   -0.9290   -0.1221    3.1122 C   0  0  2  0  0  0  0  0  0  0  0  0
   -1.7911   -0.5169    2.5244 H   0  0  0  0  0  0  0  0  0  0  0  0
   -1.5031    0.5260    4.3809 C   0  0  0  0  0  0  0  0  0  0  0  0
   -0.6725    0.8956    5.0197 H   0  0  0  0  0  0  0  0  0  0  0  0
   -2.0847   -0.2168    4.9726 H   0  0  0  0  0  0  0  0  0  0  0  0
   -2.3233    1.6135    4.0473 O   0  0  0  0  0  0  0  0  0  0  0  0
   -3.1727    1.2333    3.7012 H   0  0  0  0  0  0  0  0  0  0  0  0
    0.0310   -1.2822    3.4694 C   0  0  1  0  0  0  0  0  0  0  0  0
    0.8682   -0.8822    4.0922 H   0  0  0  0  0  0  0  0  0  0  0  0
   -0.6542   -2.2957    4.1629 O   0  0  0  0  0  0  0  0  0  0  0  0
   -0.5356   -2.1202    5.1328 H   0  0  0  0  0  0  0  0  0  0  0  0
    0.6436   -1.8682    2.1845 C   0  0  1  0  0  0  0  0  0  0  0  0
    1.4672   -2.5648    2.4688 H   0  0  0  0  0  0  0  0  0  0  0  0
   -0.3350   -2.5597    1.4459 O   0  0  0  0  0  0  0  0  0  0  0  0
   -0.3894   -3.4769    1.8218 H   0  0  0  0  0  0  0  0  0  0  0  0
    3.1033   -2.4285   -1.5284 C   0  0  0  0  0  0  0  0  0  0  0  0
    4.1966   -2.3500   -1.7032 H   0  0  0  0  0  0  0  0  0  0  0  0
    2.7934   -3.4897   -1.6238 H   0  0  0  0  0  0  0  0  0  0  0  0
    2.5774   -1.8242   -2.2987 H   0  0  0  0  0  0  0  0  0  0  0  0
  1  2  1  0
  2  3  1  0
  3  4  2  0
  4  5  1  0
  5  6  1  1
  5  7  1  0
  7  8  1  6
  7  9  1  0
  9 10  1  0
 10 11  2  0
 11 12  1  0
 11 13  1  0
 13 14  1  0
 13 15  2  0
 15 16  1  0
 16 17  2  0
 16 18  1  0
 15 19  1  0
 19 20  1  0
 19 21  2  0
 21 22  1  0
  7 23  1  0
 23 24  1  0
 24 25  1  6
 24 26  1  0
 26 27  1  0
 26 28  1  0
 26 29  1  0
 29 30  1  0
 24 31  1  0
 31 32  1  1
 31 33  1  0
 33 34  1  0
 31 35  1  0
 35 36  1  1
 35 37  1  0
 37 38  1  0
  3 39  1  0
 39 40  1  0
 39 41  1  0
 39 42  1  0
 35  5  1  0
 21 10  1  0
M  CHG  2  16   1  18  -1
M  END
>  <UniqueID>  (321) 
320

>  <SMILES>  (321) 
C/C(O)=N/[C@H]1[C@H](Oc2ccc([N+](=O)[O-])cc2)O[C@H](CO)[C@@H](O)[C@H]1O

>  <Energy>  (321) 
41.30207158871883

>  <Genealogy>  (321) 
CC(O)=N[C@H]1[C@H](Oc2ccc([N+](=O)[O-])cc2)O[C@H](CO)[C@@H](O)[C@H]1O (tautomer)
C/C(O)=N/[C@H]1[C@H](Oc2ccc([N+](=O)[O-])cc2)O[C@H](CO)[C@@H](O)[C@H]1O (cis-trans isomerization)
C/C(O)=N/[C@H]1[C@H](Oc2ccc([N+](=O)[O-])cc2)O[C@H](CO)[C@@H](O)[C@H]1O (3D coordinates assigned)
C/C(O)=N/[C@H]1[C@H](Oc2ccc([N+](=O)[O-])cc2)O[C@H](CO)[C@@H](O)[C@H]1O (nonaromatic ring conformer: 41.30207158871883 kcal/mol)

$$$$
ZINC000015205814
     RDKit          3D

 42 43  0  0  0  0  0  0  0  0999 V2000
   -3.0600   -1.3813   -0.0140 C   0  0  0  0  0  0  0  0  0  0  0  0
   -2.1484   -0.2080    0.1420 C   0  0  0  0  0  0  0  0  0  0  0  0
   -2.2107    0.4875    1.1915 O   0  0  0  0  0  0  0  0  0  0  0  0
   -1.1716    0.0806   -0.8698 N   0  0  0  0  0  0  0  0  0  0  0  0
   -0.1715    1.1463   -0.7357 C   0  0  1  0  0  0  0  0  0  0  0  0
    1.2363    0.5636   -0.4679 C   0  0  2  0  0  0  0  0  0  0  0  0
    1.2311   -0.1711    0.7597 O   0  0  0  0  0  0  0  0  0  0  0  0
    0.8208   -1.5036    0.9411 C   0  0  0  0  0  0  0  0  0  0  0  0
    0.6195   -1.9514    2.2510 C   0  0  0  0  0  0  0  0  0  0  0  0
    0.1961   -3.2592    2.5021 C   0  0  0  0  0  0  0  0  0  0  0  0
   -0.0270   -4.1520    1.4411 C   0  0  0  0  0  0  0  0  0  0  0  0
   -0.4680   -5.4972    1.7010 N   0  0  0  0  0  4  0  0  0  0  0  0
   -0.6702   -6.2941    0.7612 O   0  0  0  0  0  0  0  0  0  0  0  0
   -0.6773   -5.9274    2.9913 O   0  0  0  0  0  1  0  0  0  0  0  0
    0.1892   -3.7085    0.1245 C   0  0  0  0  0  0  0  0  0  0  0  0
    0.6116   -2.3996   -0.1254 C   0  0  0  0  0  0  0  0  0  0  0  0
    2.1659    1.6235   -0.3241 O   0  0  0  0  0  0  0  0  0  0  0  0
    2.3162    2.3425   -1.5382 C   0  0  2  0  0  0  0  0  0  0  0  0
    3.4602    3.3527   -1.3477 C   0  0  0  0  0  0  0  0  0  0  0  0
    3.8000    3.9731   -2.5588 O   0  0  0  0  0  0  0  0  0  0  0  0
    0.9891    3.0532   -1.9032 C   0  0  1  0  0  0  0  0  0  0  0  0
    1.1236    3.7406   -3.1209 O   0  0  0  0  0  0  0  0  0  0  0  0
   -0.1485    2.0170   -2.0051 C   0  0  1  0  0  0  0  0  0  0  0  0
    0.0355    1.2063   -3.1407 O   0  0  0  0  0  0  0  0  0  0  0  0
   -2.5371   -2.3015    0.3190 H   0  0  0  0  0  0  0  0  0  0  0  0
   -3.3574   -1.4940   -1.0776 H   0  0  0  0  0  0  0  0  0  0  0  0
   -3.9761   -1.2421    0.5982 H   0  0  0  0  0  0  0  0  0  0  0  0
   -1.1176   -0.5566   -1.6966 H   0  0  0  0  0  0  0  0  0  0  0  0
   -0.4349    1.8088    0.1192 H   0  0  0  0  0  0  0  0  0  0  0  0
    1.5629   -0.0972   -1.2999 H   0  0  0  0  0  0  0  0  0  0  0  0
    0.7818   -1.2759    3.0814 H   0  0  0  0  0  0  0  0  0  0  0  0
    0.0419   -3.5700    3.5272 H   0  0  0  0  0  0  0  0  0  0  0  0
    0.0295   -4.3740   -0.7141 H   0  0  0  0  0  0  0  0  0  0  0  0
    0.7664   -2.1066   -1.1521 H   0  0  0  0  0  0  0  0  0  0  0  0
    2.6157    1.6511   -2.3609 H   0  0  0  0  0  0  0  0  0  0  0  0
    4.3523    2.8337   -0.9278 H   0  0  0  0  0  0  0  0  0  0  0  0
    3.1581    4.1325   -0.6161 H   0  0  0  0  0  0  0  0  0  0  0  0
    4.3082    3.3046   -3.0884 H   0  0  0  0  0  0  0  0  0  0  0  0
    0.7417    3.7769   -1.0904 H   0  0  0  0  0  0  0  0  0  0  0  0
    0.3584    4.3706   -3.1793 H   0  0  0  0  0  0  0  0  0  0  0  0
   -1.1248    2.5533   -2.0744 H   0  0  0  0  0  0  0  0  0  0  0  0
   -0.3514    1.6958   -3.9129 H   0  0  0  0  0  0  0  0  0  0  0  0
  1  2  1  0
  2  3  2  0
  2  4  1  0
  4  5  1  0
  5  6  1  0
  6  7  1  0
  7  8  1  0
  8  9  2  0
  9 10  1  0
 10 11  2  0
 11 12  1  0
 12 13  2  0
 12 14  1  0
 11 15  1  0
 15 16  2  0
  6 17  1  0
 17 18  1  0
 18 19  1  0
 19 20  1  0
 18 21  1  0
 21 22  1  0
 21 23  1  0
 23 24  1  0
 23  5  1  0
 16  8  1  0
  1 25  1  0
  1 26  1  0
  1 27  1  0
  4 28  1  0
  5 29  1  1
  6 30  1  6
  9 31  1  0
 10 32  1  0
 15 33  1  0
 16 34  1  0
 18 35  1  6
 19 36  1  0
 19 37  1  0
 20 38  1  0
 21 39  1  1
 22 40  1  0
 23 41  1  6
 24 42  1  0
M  CHG  2  12   1  14  -1
M  END
>  <UniqueID>  (322) 
321

>  <SMILES>  (322) 
CC(=O)N[C@H]1[C@H](Oc2ccc([N+](=O)[O-])cc2)O[C@H](CO)[C@@H](O)[C@H]1O

>  <Energy>  (322) 
41.41729344680487

>  <Genealogy>  (322) 
CC(=O)N[C@H]1[C@H](Oc2ccc([N+](=O)[O-])cc2)O[C@H](CO)[C@@H](O)[C@H]1O (3D coordinates assigned)
CC(=O)N[C@H]1[C@H](Oc2ccc([N+](=O)[O-])cc2)O[C@H](CO)[C@@H](O)[C@H]1O (nonaromatic ring conformer: 41.41729344680487 kcal/mol)

$$$$
ZINC000015205840
     RDKit          3D

 42 43  0  0  0  0  0  0  0  0999 V2000
   -2.5767    3.4111   -1.3673 H   0  0  0  0  0  0  0  0  0  0  0  0
   -2.1777    2.5397   -1.0397 O   0  0  0  0  0  0  0  0  0  0  0  0
   -1.1306    2.5268   -0.1188 C   0  0  0  0  0  0  0  0  0  0  0  0
   -0.6101    1.4047    0.2767 N   0  0  0  0  0  0  0  0  0  0  0  0
   -1.0564    0.0811   -0.1595 C   0  0  1  0  0  0  0  0  0  0  0  0
   -1.2232    0.0941   -1.2612 H   0  0  0  0  0  0  0  0  0  0  0  0
    0.0389   -0.9733    0.1253 C   0  0  2  0  0  0  0  0  0  0  0  0
    0.3103   -1.0046    1.2024 H   0  0  0  0  0  0  0  0  0  0  0  0
    1.2066   -0.6745   -0.6461 O   0  0  0  0  0  0  0  0  0  0  0  0
    2.1944    0.2866   -0.3569 C   0  0  0  0  0  0  0  0  0  0  0  0
    2.2905    0.8989    0.9117 C   0  0  0  0  0  0  0  0  0  0  0  0
    1.6047    0.6617    1.7103 H   0  0  0  0  0  0  0  0  0  0  0  0
    3.2869    1.8391    1.1740 C   0  0  0  0  0  0  0  0  0  0  0  0
    3.3471    2.3051    2.1492 H   0  0  0  0  0  0  0  0  0  0  0  0
    4.2075    2.1766    0.1860 C   0  0  0  0  0  0  0  0  0  0  0  0
    4.9802    2.9054    0.3941 H   0  0  0  0  0  0  0  0  0  0  0  0
    4.1353    1.5767   -1.0708 C   0  0  0  0  0  0  0  0  0  0  0  0
    4.8613    1.8613   -1.8212 H   0  0  0  0  0  0  0  0  0  0  0  0
    3.1336    0.6317   -1.3627 C   0  0  0  0  0  0  0  0  0  0  0  0
    3.0847    0.0414   -2.6793 N   0  0  0  0  0  4  0  0  0  0  0  0
    2.0874   -0.6033   -3.0639 O   0  0  0  0  0  0  0  0  0  0  0  0
    4.1252    0.2260   -3.5612 O   0  0  0  0  0  1  0  0  0  0  0  0
   -0.4175   -2.2516   -0.2778 O   0  0  0  0  0  0  0  0  0  0  0  0
   -1.4956   -2.6849    0.5346 C   0  0  2  0  0  0  0  0  0  0  0  0
   -1.2097   -2.6698    1.6121 H   0  0  0  0  0  0  0  0  0  0  0  0
   -1.8150   -4.1450    0.1802 C   0  0  0  0  0  0  0  0  0  0  0  0
   -2.6722   -4.5007    0.7903 H   0  0  0  0  0  0  0  0  0  0  0  0
   -2.1043   -4.2314   -0.8929 H   0  0  0  0  0  0  0  0  0  0  0  0
   -0.7136   -4.9675    0.4589 O   0  0  0  0  0  0  0  0  0  0  0  0
   -0.0925   -4.8862   -0.3113 H   0  0  0  0  0  0  0  0  0  0  0  0
   -2.7316   -1.7861    0.3010 C   0  0  1  0  0  0  0  0  0  0  0  0
   -3.0482   -1.9055   -0.7628 H   0  0  0  0  0  0  0  0  0  0  0  0
   -3.7791   -2.1784    1.1512 O   0  0  0  0  0  0  0  0  0  0  0  0
   -4.6078   -1.7656    0.7924 H   0  0  0  0  0  0  0  0  0  0  0  0
   -2.3838   -0.2996    0.5377 C   0  0  1  0  0  0  0  0  0  0  0  0
   -3.1947    0.3062    0.0781 H   0  0  0  0  0  0  0  0  0  0  0  0
   -2.3644    0.0180    1.9105 O   0  0  0  0  0  0  0  0  0  0  0  0
   -1.6438   -0.5065    2.3425 H   0  0  0  0  0  0  0  0  0  0  0  0
   -0.5680    3.8149    0.3887 C   0  0  0  0  0  0  0  0  0  0  0  0
    0.1257    4.2366   -0.3680 H   0  0  0  0  0  0  0  0  0  0  0  0
   -0.0144    3.6535    1.3385 H   0  0  0  0  0  0  0  0  0  0  0  0
   -1.3896    4.5375    0.5748 H   0  0  0  0  0  0  0  0  0  0  0  0
  1  2  1  0
  2  3  1  0
  3  4  2  0
  4  5  1  0
  5  6  1  6
  5  7  1  0
  7  8  1  1
  7  9  1  0
  9 10  1  0
 10 11  2  0
 11 12  1  0
 11 13  1  0
 13 14  1  0
 13 15  2  0
 15 16  1  0
 15 17  1  0
 17 18  1  0
 17 19  2  0
 19 20  1  0
 20 21  2  0
 20 22  1  0
  7 23  1  0
 23 24  1  0
 24 25  1  1
 24 26  1  0
 26 27  1  0
 26 28  1  0
 26 29  1  0
 29 30  1  0
 24 31  1  0
 31 32  1  6
 31 33  1  0
 33 34  1  0
 31 35  1  0
 35 36  1  6
 35 37  1  0
 37 38  1  0
  3 39  1  0
 39 40  1  0
 39 41  1  0
 39 42  1  0
 35  5  1  0
 19 10  1  0
M  CHG  2  20   1  22  -1
M  END
>  <UniqueID>  (323) 
322

>  <SMILES>  (323) 
C/C(O)=N\[C@H]1[C@H](Oc2ccccc2[N+](=O)[O-])O[C@H](CO)[C@@H](O)[C@H]1O

>  <Energy>  (323) 
44.79321637869891

>  <Genealogy>  (323) 
CC(O)=N[C@H]1[C@H](Oc2ccccc2[N+](=O)[O-])O[C@H](CO)[C@@H](O)[C@H]1O (tautomer)
C/C(O)=N\[C@H]1[C@H](Oc2ccccc2[N+](=O)[O-])O[C@H](CO)[C@@H](O)[C@H]1O (cis-trans isomerization)
C/C(O)=N\[C@H]1[C@H](Oc2ccccc2[N+](=O)[O-])O[C@H](CO)[C@@H](O)[C@H]1O (3D coordinates assigned)
C/C(O)=N\[C@H]1[C@H](Oc2ccccc2[N+](=O)[O-])O[C@H](CO)[C@@H](O)[C@H]1O (nonaromatic ring conformer: 44.79321637869891 kcal/mol)

$$$$
ZINC000015205840
     RDKit          3D

 42 43  0  0  0  0  0  0  0  0999 V2000
    1.7337    3.3457    0.5959 C   0  0  0  0  0  0  0  0  0  0  0  0
    0.7442    2.5232   -0.1629 C   0  0  0  0  0  0  0  0  0  0  0  0
    0.6692    2.6465   -1.4153 O   0  0  0  0  0  0  0  0  0  0  0  0
   -0.0663    1.5600    0.5275 N   0  0  0  0  0  0  0  0  0  0  0  0
   -0.9831    0.6435   -0.1601 C   0  0  1  0  0  0  0  0  0  0  0  0
   -0.4708   -0.8146   -0.0905 C   0  0  2  0  0  0  0  0  0  0  0  0
    0.7828   -0.9159   -0.7730 O   0  0  0  0  0  0  0  0  0  0  0  0
    2.0487   -0.5496   -0.2786 C   0  0  0  0  0  0  0  0  0  0  0  0
    2.3010   -0.4289    1.1048 C   0  0  0  0  0  0  0  0  0  0  0  0
    3.5692   -0.0785    1.5680 C   0  0  0  0  0  0  0  0  0  0  0  0
    4.6049    0.1491    0.6662 C   0  0  0  0  0  0  0  0  0  0  0  0
    4.3778    0.0272   -0.7043 C   0  0  0  0  0  0  0  0  0  0  0  0
    3.1052   -0.3188   -1.1962 C   0  0  0  0  0  0  0  0  0  0  0  0
    2.9041   -0.4181   -2.6219 N   0  0  0  0  0  4  0  0  0  0  0  0
    1.7570   -0.4460   -3.1133 O   0  0  0  0  0  0  0  0  0  0  0  0
    3.9834   -0.4216   -3.4759 O   0  0  0  0  0  1  0  0  0  0  0  0
   -1.3842   -1.6669   -0.7575 O   0  0  0  0  0  0  0  0  0  0  0  0
   -2.6235   -1.7272   -0.0709 C   0  0  2  0  0  0  0  0  0  0  0  0
   -3.4786   -2.8152   -0.7427 C   0  0  0  0  0  0  0  0  0  0  0  0
   -4.6545   -3.0598   -0.0184 O   0  0  0  0  0  0  0  0  0  0  0  0
   -3.3279   -0.3480   -0.1204 C   0  0  1  0  0  0  0  0  0  0  0  0
   -4.5241   -0.3868    0.6151 O   0  0  0  0  0  0  0  0  0  0  0  0
   -2.4048    0.7608    0.4333 C   0  0  1  0  0  0  0  0  0  0  0  0
   -2.3943    0.7688    1.8425 O   0  0  0  0  0  0  0  0  0  0  0  0
    1.3114    3.6367    1.5803 H   0  0  0  0  0  0  0  0  0  0  0  0
    2.6592    2.7547    0.7552 H   0  0  0  0  0  0  0  0  0  0  0  0
    1.9843    4.2678    0.0299 H   0  0  0  0  0  0  0  0  0  0  0  0
    0.0617    1.4586    1.5598 H   0  0  0  0  0  0  0  0  0  0  0  0
   -1.0564    0.9151   -1.2370 H   0  0  0  0  0  0  0  0  0  0  0  0
   -0.3516   -1.1563    0.9588 H   0  0  0  0  0  0  0  0  0  0  0  0
    1.5332   -0.6094    1.8404 H   0  0  0  0  0  0  0  0  0  0  0  0
    3.7499    0.0139    2.6312 H   0  0  0  0  0  0  0  0  0  0  0  0
    5.5876    0.4210    1.0296 H   0  0  0  0  0  0  0  0  0  0  0  0
    5.1993    0.2155   -1.3832 H   0  0  0  0  0  0  0  0  0  0  0  0
   -2.4655   -2.0436    0.9861 H   0  0  0  0  0  0  0  0  0  0  0  0
   -2.8876   -3.7558   -0.8294 H   0  0  0  0  0  0  0  0  0  0  0  0
   -3.7499   -2.5010   -1.7734 H   0  0  0  0  0  0  0  0  0  0  0  0
   -4.3915   -3.5831    0.7833 H   0  0  0  0  0  0  0  0  0  0  0  0
   -3.5526   -0.1137   -1.1883 H   0  0  0  0  0  0  0  0  0  0  0  0
   -5.0553    0.4053    0.3389 H   0  0  0  0  0  0  0  0  0  0  0  0
   -2.8223    1.7393    0.1085 H   0  0  0  0  0  0  0  0  0  0  0  0
   -2.0231   -0.0937    2.1576 H   0  0  0  0  0  0  0  0  0  0  0  0
  1  2  1  0
  2  3  2  0
  2  4  1  0
  4  5  1  0
  5  6  1  0
  6  7  1  0
  7  8  1  0
  8  9  2  0
  9 10  1  0
 10 11  2  0
 11 12  1  0
 12 13  2  0
 13 14  1  0
 14 15  2  0
 14 16  1  0
  6 17  1  0
 17 18  1  0
 18 19  1  0
 19 20  1  0
 18 21  1  0
 21 22  1  0
 21 23  1  0
 23 24  1  0
 23  5  1  0
 13  8  1  0
  1 25  1  0
  1 26  1  0
  1 27  1  0
  4 28  1  0
  5 29  1  6
  6 30  1  1
  9 31  1  0
 10 32  1  0
 11 33  1  0
 12 34  1  0
 18 35  1  1
 19 36  1  0
 19 37  1  0
 20 38  1  0
 21 39  1  6
 22 40  1  0
 23 41  1  6
 24 42  1  0
M  CHG  2  14   1  16  -1
M  END
>  <UniqueID>  (324) 
323

>  <SMILES>  (324) 
CC(=O)N[C@H]1[C@H](Oc2ccccc2[N+](=O)[O-])O[C@H](CO)[C@@H](O)[C@H]1O

>  <Energy>  (324) 
45.13631894204772

>  <Genealogy>  (324) 
CC(=O)N[C@H]1[C@H](Oc2ccccc2[N+](=O)[O-])O[C@H](CO)[C@@H](O)[C@H]1O (3D coordinates assigned)
CC(=O)N[C@H]1[C@H](Oc2ccccc2[N+](=O)[O-])O[C@H](CO)[C@@H](O)[C@H]1O (nonaromatic ring conformer: 45.13631894204772 kcal/mol)

$$$$
ZINC000015205840
     RDKit          3D

 42 43  0  0  0  0  0  0  0  0999 V2000
   -2.3112    4.4683    1.8618 C   0  0  0  0  0  0  0  0  0  0  0  0
   -1.6495    3.7214    0.7503 C   0  0  0  0  0  0  0  0  0  0  0  0
   -1.4018    4.3112   -0.3363 O   0  0  0  0  0  0  0  0  0  0  0  0
   -1.3043    2.3401    0.9256 N   0  0  0  0  0  0  0  0  0  0  0  0
   -0.7037    1.5290   -0.1425 C   0  0  1  0  0  0  0  0  0  0  0  0
    0.1829    0.4254    0.4640 C   0  0  2  0  0  0  0  0  0  0  0  0
    1.0240   -0.1436   -0.5414 O   0  0  0  0  0  0  0  0  0  0  0  0
    2.1104   -1.0044   -0.3100 C   0  0  0  0  0  0  0  0  0  0  0  0
    2.4976   -1.3632    0.9981 C   0  0  0  0  0  0  0  0  0  0  0  0
    3.5622   -2.2395    1.2085 C   0  0  0  0  0  0  0  0  0  0  0  0
    4.2550   -2.7702    0.1236 C   0  0  0  0  0  0  0  0  0  0  0  0
    3.8876   -2.4255   -1.1775 C   0  0  0  0  0  0  0  0  0  0  0  0
    2.8191   -1.5381   -1.4148 C   0  0  0  0  0  0  0  0  0  0  0  0
    2.4626   -1.1993   -2.7726 N   0  0  0  0  0  4  0  0  0  0  0  0
    2.9644   -1.8234   -3.7309 O   0  0  0  0  0  0  0  0  0  0  0  0
    1.6039   -0.1602   -3.0483 O   0  0  0  0  0  1  0  0  0  0  0  0
   -0.5631   -0.5742    1.1516 O   0  0  0  0  0  0  0  0  0  0  0  0
   -1.5862   -1.1934    0.3744 C   0  0  2  0  0  0  0  0  0  0  0  0
   -1.0435   -2.2454   -0.6114 C   0  0  0  0  0  0  0  0  0  0  0  0
   -0.1659   -3.1121    0.0528 O   0  0  0  0  0  0  0  0  0  0  0  0
   -2.5543   -0.1854   -0.2938 C   0  0  1  0  0  0  0  0  0  0  0  0
   -3.3813    0.4036    0.6789 O   0  0  0  0  0  0  0  0  0  0  0  0
   -1.7794    0.9070   -1.0465 C   0  0  1  0  0  0  0  0  0  0  0  0
   -2.6562    1.9007   -1.5121 O   0  0  0  0  0  0  0  0  0  0  0  0
   -2.4845    5.5275    1.5738 H   0  0  0  0  0  0  0  0  0  0  0  0
   -3.2873    3.9939    2.0968 H   0  0  0  0  0  0  0  0  0  0  0  0
   -1.6646    4.4413    2.7643 H   0  0  0  0  0  0  0  0  0  0  0  0
   -1.4990    1.8989    1.8537 H   0  0  0  0  0  0  0  0  0  0  0  0
   -0.0480    2.1787   -0.7648 H   0  0  0  0  0  0  0  0  0  0  0  0
    0.8394    0.9294    1.2067 H   0  0  0  0  0  0  0  0  0  0  0  0
    1.9771   -0.9785    1.8633 H   0  0  0  0  0  0  0  0  0  0  0  0
    3.8486   -2.5103    2.2166 H   0  0  0  0  0  0  0  0  0  0  0  0
    5.0800   -3.4510    0.2902 H   0  0  0  0  0  0  0  0  0  0  0  0
    4.4465   -2.8496   -2.0018 H   0  0  0  0  0  0  0  0  0  0  0  0
   -2.2002   -1.7777    1.0948 H   0  0  0  0  0  0  0  0  0  0  0  0
   -1.8966   -2.8349   -1.0160 H   0  0  0  0  0  0  0  0  0  0  0  0
   -0.5341   -1.7692   -1.4752 H   0  0  0  0  0  0  0  0  0  0  0  0
    0.1884   -3.7300   -0.6383 H   0  0  0  0  0  0  0  0  0  0  0  0
   -3.1941   -0.7221   -1.0341 H   0  0  0  0  0  0  0  0  0  0  0  0
   -4.0750   -0.2665    0.9139 H   0  0  0  0  0  0  0  0  0  0  0  0
   -1.2642    0.4464   -1.9218 H   0  0  0  0  0  0  0  0  0  0  0  0
   -3.1666    1.5036   -2.2656 H   0  0  0  0  0  0  0  0  0  0  0  0
  1  2  1  0
  2  3  2  0
  2  4  1  0
  4  5  1  0
  5  6  1  0
  6  7  1  0
  7  8  1  0
  8  9  2  0
  9 10  1  0
 10 11  2  0
 11 12  1  0
 12 13  2  0
 13 14  1  0
 14 15  2  0
 14 16  1  0
  6 17  1  0
 17 18  1  0
 18 19  1  0
 19 20  1  0
 18 21  1  0
 21 22  1  0
 21 23  1  0
 23 24  1  0
 23  5  1  0
 13  8  1  0
  1 25  1  0
  1 26  1  0
  1 27  1  0
  4 28  1  0
  5 29  1  6
  6 30  1  1
  9 31  1  0
 10 32  1  0
 11 33  1  0
 12 34  1  0
 18 35  1  1
 19 36  1  0
 19 37  1  0
 20 38  1  0
 21 39  1  6
 22 40  1  0
 23 41  1  6
 24 42  1  0
M  CHG  2  14   1  16  -1
M  END
>  <UniqueID>  (325) 
324

>  <SMILES>  (325) 
CC(=O)N[C@H]1[C@H](Oc2ccccc2[N+](=O)[O-])O[C@H](CO)[C@@H](O)[C@H]1O

>  <Energy>  (325) 
46.91977429643869

>  <Genealogy>  (325) 
CC(=O)N[C@H]1[C@H](Oc2ccccc2[N+](=O)[O-])O[C@H](CO)[C@@H](O)[C@H]1O (3D coordinates assigned)
CC(=O)N[C@H]1[C@H](Oc2ccccc2[N+](=O)[O-])O[C@H](CO)[C@@H](O)[C@H]1O (nonaromatic ring conformer: 46.91977429643869 kcal/mol)

$$$$
ZINC000015205946
     RDKit          3D

 42 43  0  0  0  0  0  0  0  0999 V2000
   -4.5422    0.3286   -1.2644 C   0  0  0  0  0  0  0  0  0  0  0  0
   -3.2160    0.8171   -1.7474 C   0  0  0  0  0  0  0  0  0  0  0  0
   -3.1601    1.8262   -2.5012 O   0  0  0  0  0  0  0  0  0  0  0  0
   -2.0184    0.1320   -1.3559 N   0  0  0  0  0  0  0  0  0  0  0  0
   -0.6834    0.5407   -1.8148 C   0  0  2  0  0  0  0  0  0  0  0  0
   -0.3075   -0.1569   -3.1335 C   0  0  2  0  0  0  0  0  0  0  0  0
   -1.3271    0.0213   -4.0831 O   0  0  0  0  0  0  0  0  0  0  0  0
   -0.0270   -1.6573   -2.9043 C   0  0  2  0  0  0  0  0  0  0  0  0
   -1.2262   -2.3464   -2.6501 O   0  0  0  0  0  0  0  0  0  0  0  0
    0.9331   -1.8666   -1.7075 C   0  0  1  0  0  0  0  0  0  0  0  0
    2.4148   -1.5824   -2.0449 C   0  0  0  0  0  0  0  0  0  0  0  0
    2.9030   -2.5252   -2.9618 O   0  0  0  0  0  0  0  0  0  0  0  0
    0.5010   -1.1773   -0.5403 O   0  0  0  0  0  0  0  0  0  0  0  0
    0.3753    0.2231   -0.7435 C   0  0  2  0  0  0  0  0  0  0  0  0
   -0.0268    0.8360    0.4815 O   0  0  0  0  0  0  0  0  0  0  0  0
    0.7250    0.8639    1.6683 C   0  0  0  0  0  0  0  0  0  0  0  0
    2.0346    0.3431    1.7190 C   0  0  0  0  0  0  0  0  0  0  0  0
    2.7717    0.3883    2.9021 C   0  0  0  0  0  0  0  0  0  0  0  0
    2.2187    0.9530    4.0485 C   0  0  0  0  0  0  0  0  0  0  0  0
    0.9248    1.4738    4.0179 C   0  0  0  0  0  0  0  0  0  0  0  0
    0.1593    1.4359    2.8366 C   0  0  0  0  0  0  0  0  0  0  0  0
   -1.1799    1.9772    2.8451 N   0  0  0  0  0  4  0  0  0  0  0  0
   -1.9438    1.8360    1.8681 O   0  0  0  0  0  0  0  0  0  0  0  0
   -1.6533    2.6398    3.9547 O   0  0  0  0  0  1  0  0  0  0  0  0
   -5.3575    0.9976   -1.6136 H   0  0  0  0  0  0  0  0  0  0  0  0
   -4.5474    0.3043   -0.1545 H   0  0  0  0  0  0  0  0  0  0  0  0
   -4.7233   -0.6951   -1.6532 H   0  0  0  0  0  0  0  0  0  0  0  0
   -2.1114   -0.7034   -0.7339 H   0  0  0  0  0  0  0  0  0  0  0  0
   -0.6711    1.6415   -1.9798 H   0  0  0  0  0  0  0  0  0  0  0  0
    0.6221    0.3256   -3.5160 H   0  0  0  0  0  0  0  0  0  0  0  0
   -0.9451   -0.2305   -4.9644 H   0  0  0  0  0  0  0  0  0  0  0  0
    0.4493   -2.0778   -3.8216 H   0  0  0  0  0  0  0  0  0  0  0  0
   -1.6535   -2.5237   -3.5285 H   0  0  0  0  0  0  0  0  0  0  0  0
    0.8872   -2.9491   -1.4549 H   0  0  0  0  0  0  0  0  0  0  0  0
    2.5370   -0.5755   -2.4915 H   0  0  0  0  0  0  0  0  0  0  0  0
    3.0235   -1.6096   -1.1127 H   0  0  0  0  0  0  0  0  0  0  0  0
    3.0815   -3.3566   -2.4494 H   0  0  0  0  0  0  0  0  0  0  0  0
    1.3431    0.6776   -1.0485 H   0  0  0  0  0  0  0  0  0  0  0  0
    2.4974   -0.0956    0.8472 H   0  0  0  0  0  0  0  0  0  0  0  0
    3.7762   -0.0141    2.9291 H   0  0  0  0  0  0  0  0  0  0  0  0
    2.7938    0.9870    4.9649 H   0  0  0  0  0  0  0  0  0  0  0  0
    0.5197    1.9025    4.9252 H   0  0  0  0  0  0  0  0  0  0  0  0
  1  2  1  0
  2  3  2  0
  2  4  1  0
  4  5  1  0
  5  6  1  0
  6  7  1  0
  6  8  1  0
  8  9  1  0
  8 10  1  0
 10 11  1  0
 11 12  1  0
 10 13  1  0
 13 14  1  0
 14 15  1  0
 15 16  1  0
 16 17  2  0
 17 18  1  0
 18 19  2  0
 19 20  1  0
 20 21  2  0
 21 22  1  0
 22 23  2  0
 22 24  1  0
 14  5  1  0
 21 16  1  0
  1 25  1  0
  1 26  1  0
  1 27  1  0
  4 28  1  0
  5 29  1  6
  6 30  1  6
  7 31  1  0
  8 32  1  6
  9 33  1  0
 10 34  1  1
 11 35  1  0
 11 36  1  0
 12 37  1  0
 14 38  1  6
 17 39  1  0
 18 40  1  0
 19 41  1  0
 20 42  1  0
M  CHG  2  22   1  24  -1
M  END
>  <UniqueID>  (326) 
325

>  <SMILES>  (326) 
CC(=O)N[C@@H]1[C@H](O)[C@H](O)[C@@H](CO)O[C@@H]1Oc1ccccc1[N+](=O)[O-]

>  <Energy>  (326) 
45.391976682882344

>  <Genealogy>  (326) 
CC(=O)N[C@@H]1[C@H](O)[C@H](O)[C@@H](CO)O[C@@H]1Oc1ccccc1[N+](=O)[O-] (3D coordinates assigned)
CC(=O)N[C@@H]1[C@H](O)[C@H](O)[C@@H](CO)O[C@@H]1Oc1ccccc1[N+](=O)[O-] (nonaromatic ring conformer: 45.391976682882344 kcal/mol)

$$$$
ZINC000015205946
     RDKit          3D

 42 43  0  0  0  0  0  0  0  0999 V2000
   -3.4220    3.2535   -0.8345 C   0  0  0  0  0  0  0  0  0  0  0  0
   -2.4140    2.4853   -1.6256 C   0  0  0  0  0  0  0  0  0  0  0  0
   -1.9205    2.9979   -2.6663 O   0  0  0  0  0  0  0  0  0  0  0  0
   -1.9765    1.1975   -1.1684 N   0  0  0  0  0  0  0  0  0  0  0  0
   -0.9546    0.4129   -1.8703 C   0  0  2  0  0  0  0  0  0  0  0  0
   -1.3023   -1.0859   -1.8439 C   0  0  2  0  0  0  0  0  0  0  0  0
   -1.4972   -1.5169   -0.5187 O   0  0  0  0  0  0  0  0  0  0  0  0
   -0.1667   -1.8856   -2.5053 C   0  0  2  0  0  0  0  0  0  0  0  0
   -0.4193   -3.2603   -2.3500 O   0  0  0  0  0  0  0  0  0  0  0  0
    1.1918   -1.5017   -1.8648 C   0  0  1  0  0  0  0  0  0  0  0  0
    2.3614   -2.2309   -2.5479 C   0  0  0  0  0  0  0  0  0  0  0  0
    2.3443   -3.6037   -2.2602 O   0  0  0  0  0  0  0  0  0  0  0  0
    1.4239   -0.1054   -1.9869 O   0  0  0  0  0  0  0  0  0  0  0  0
    0.4574    0.6626   -1.2864 C   0  0  2  0  0  0  0  0  0  0  0  0
    0.5269    0.3805    0.1208 O   0  0  0  0  0  0  0  0  0  0  0  0
    0.1601    1.2328    1.1805 C   0  0  0  0  0  0  0  0  0  0  0  0
   -0.1474    2.5950    0.9707 C   0  0  0  0  0  0  0  0  0  0  0  0
   -0.4970    3.4201    2.0393 C   0  0  0  0  0  0  0  0  0  0  0  0
   -0.5369    2.9096    3.3329 C   0  0  0  0  0  0  0  0  0  0  0  0
   -0.2265    1.5706    3.5646 C   0  0  0  0  0  0  0  0  0  0  0  0
    0.1223    0.7147    2.5008 C   0  0  0  0  0  0  0  0  0  0  0  0
    0.4361   -0.6668    2.7790 N   0  0  0  0  0  4  0  0  0  0  0  0
    0.6309   -1.0448    3.9532 O   0  0  0  0  0  0  0  0  0  0  0  0
    0.4755   -1.6071    1.7764 O   0  0  0  0  0  1  0  0  0  0  0  0
   -3.8760    4.0535   -1.4569 H   0  0  0  0  0  0  0  0  0  0  0  0
   -4.2271    2.5728   -0.4868 H   0  0  0  0  0  0  0  0  0  0  0  0
   -2.9281    3.7142    0.0458 H   0  0  0  0  0  0  0  0  0  0  0  0
   -2.3368    0.8570   -0.2482 H   0  0  0  0  0  0  0  0  0  0  0  0
   -0.9319    0.7192   -2.9407 H   0  0  0  0  0  0  0  0  0  0  0  0
   -2.2392   -1.2340   -2.4321 H   0  0  0  0  0  0  0  0  0  0  0  0
   -2.0912   -2.3113   -0.5549 H   0  0  0  0  0  0  0  0  0  0  0  0
   -0.1449   -1.6119   -3.5888 H   0  0  0  0  0  0  0  0  0  0  0  0
   -0.1692   -3.7047   -3.2017 H   0  0  0  0  0  0  0  0  0  0  0  0
    1.2014   -1.8017   -0.7932 H   0  0  0  0  0  0  0  0  0  0  0  0
    3.3272   -1.7896   -2.2100 H   0  0  0  0  0  0  0  0  0  0  0  0
    2.3036   -2.0920   -3.6487 H   0  0  0  0  0  0  0  0  0  0  0  0
    2.6647   -3.7033   -1.3258 H   0  0  0  0  0  0  0  0  0  0  0  0
    0.7305    1.7195   -1.4724 H   0  0  0  0  0  0  0  0  0  0  0  0
   -0.1205    3.0409   -0.0102 H   0  0  0  0  0  0  0  0  0  0  0  0
   -0.7352    4.4612    1.8627 H   0  0  0  0  0  0  0  0  0  0  0  0
   -0.8075    3.5535    4.1598 H   0  0  0  0  0  0  0  0  0  0  0  0
   -0.2677    1.1995    4.5806 H   0  0  0  0  0  0  0  0  0  0  0  0
  1  2  1  0
  2  3  2  0
  2  4  1  0
  4  5  1  0
  5  6  1  0
  6  7  1  0
  6  8  1  0
  8  9  1  0
  8 10  1  0
 10 11  1  0
 11 12  1  0
 10 13  1  0
 13 14  1  0
 14 15  1  0
 15 16  1  0
 16 17  2  0
 17 18  1  0
 18 19  2  0
 19 20  1  0
 20 21  2  0
 21 22  1  0
 22 23  2  0
 22 24  1  0
 14  5  1  0
 21 16  1  0
  1 25  1  0
  1 26  1  0
  1 27  1  0
  4 28  1  0
  5 29  1  6
  6 30  1  6
  7 31  1  0
  8 32  1  6
  9 33  1  0
 10 34  1  1
 11 35  1  0
 11 36  1  0
 12 37  1  0
 14 38  1  1
 17 39  1  0
 18 40  1  0
 19 41  1  0
 20 42  1  0
M  CHG  2  22   1  24  -1
M  END
>  <UniqueID>  (327) 
326

>  <SMILES>  (327) 
CC(=O)N[C@@H]1[C@H](O)[C@H](O)[C@@H](CO)O[C@@H]1Oc1ccccc1[N+](=O)[O-]

>  <Energy>  (327) 
45.92505754406266

>  <Genealogy>  (327) 
CC(=O)N[C@@H]1[C@H](O)[C@H](O)[C@@H](CO)O[C@@H]1Oc1ccccc1[N+](=O)[O-] (3D coordinates assigned)
CC(=O)N[C@@H]1[C@H](O)[C@H](O)[C@@H](CO)O[C@@H]1Oc1ccccc1[N+](=O)[O-] (nonaromatic ring conformer: 45.92505754406266 kcal/mol)

$$$$
ZINC000015205946
     RDKit          3D

 42 43  0  0  0  0  0  0  0  0999 V2000
   -3.3784    1.7260   -2.3510 H   0  0  0  0  0  0  0  0  0  0  0  0
   -2.8551    1.2864   -1.6035 O   0  0  0  0  0  0  0  0  0  0  0  0
   -1.9242    0.2825   -1.8682 C   0  0  0  0  0  0  0  0  0  0  0  0
   -1.2737   -0.2900   -0.9008 N   0  0  0  0  0  0  0  0  0  0  0  0
   -1.4085    0.0557    0.5147 C   0  0  2  0  0  0  0  0  0  0  0  0
   -2.4902    0.1589    0.7609 H   0  0  0  0  0  0  0  0  0  0  0  0
   -0.7007    1.3882    0.8208 C   0  0  2  0  0  0  0  0  0  0  0  0
   -1.2606    2.2090    0.3131 H   0  0  0  0  0  0  0  0  0  0  0  0
    0.6233    1.3427    0.3460 O   0  0  0  0  0  0  0  0  0  0  0  0
    0.8774    2.2696    0.0975 H   0  0  0  0  0  0  0  0  0  0  0  0
   -0.7277    1.6481    2.3396 C   0  0  2  0  0  0  0  0  0  0  0  0
   -1.7873    1.8218    2.6322 H   0  0  0  0  0  0  0  0  0  0  0  0
   -0.0057    2.8140    2.6546 O   0  0  0  0  0  0  0  0  0  0  0  0
    0.9600    2.6171    2.5360 H   0  0  0  0  0  0  0  0  0  0  0  0
   -0.2107    0.4075    3.1181 C   0  0  1  0  0  0  0  0  0  0  0  0
    0.8670    0.2392    2.8954 H   0  0  0  0  0  0  0  0  0  0  0  0
   -0.3310    0.6087    4.6363 C   0  0  0  0  0  0  0  0  0  0  0  0
   -0.1066   -0.3543    5.1430 H   0  0  0  0  0  0  0  0  0  0  0  0
   -1.3765    0.8870    4.9099 H   0  0  0  0  0  0  0  0  0  0  0  0
    0.5970    1.5594    5.0903 O   0  0  0  0  0  0  0  0  0  0  0  0
    0.0899    2.3856    5.3035 H   0  0  0  0  0  0  0  0  0  0  0  0
   -0.9685   -0.7441    2.7759 O   0  0  0  0  0  0  0  0  0  0  0  0
   -0.8431   -1.0791    1.4027 C   0  0  2  0  0  0  0  0  0  0  0  0
   -1.4693   -1.9820    1.2583 H   0  0  0  0  0  0  0  0  0  0  0  0
    0.5245   -1.3885    1.0905 O   0  0  0  0  0  0  0  0  0  0  0  0
    0.9963   -2.1651    0.0142 C   0  0  0  0  0  0  0  0  0  0  0  0
    0.1269   -2.9493   -0.7753 C   0  0  0  0  0  0  0  0  0  0  0  0
   -0.9357   -2.9808   -0.5907 H   0  0  0  0  0  0  0  0  0  0  0  0
    0.6196   -3.7149   -1.8317 C   0  0  0  0  0  0  0  0  0  0  0  0
   -0.0586   -4.3071   -2.4325 H   0  0  0  0  0  0  0  0  0  0  0  0
    1.9822   -3.7221   -2.1137 C   0  0  0  0  0  0  0  0  0  0  0  0
    2.3610   -4.3186   -2.9337 H   0  0  0  0  0  0  0  0  0  0  0  0
    2.8598   -2.9630   -1.3406 C   0  0  0  0  0  0  0  0  0  0  0  0
    3.9138   -2.9867   -1.5848 H   0  0  0  0  0  0  0  0  0  0  0  0
    2.3868   -2.1762   -0.2729 C   0  0  0  0  0  0  0  0  0  0  0  0
    3.3294   -1.4008    0.4991 N   0  0  0  0  0  4  0  0  0  0  0  0
    2.9463   -0.5540    1.3318 O   0  0  0  0  0  0  0  0  0  0  0  0
    4.6826   -1.5574    0.3019 O   0  0  0  0  0  1  0  0  0  0  0  0
   -1.6972   -0.1718   -3.2737 C   0  0  0  0  0  0  0  0  0  0  0  0
   -2.5175   -0.8548   -3.5769 H   0  0  0  0  0  0  0  0  0  0  0  0
   -1.6812    0.7050   -3.9542 H   0  0  0  0  0  0  0  0  0  0  0  0
   -0.7272   -0.7072   -3.3611 H   0  0  0  0  0  0  0  0  0  0  0  0
  1  2  1  0
  2  3  1  0
  3  4  2  0
  4  5  1  0
  5  6  1  1
  5  7  1  0
  7  8  1  6
  7  9  1  0
  9 10  1  0
  7 11  1  0
 11 12  1  1
 11 13  1  0
 13 14  1  0
 11 15  1  0
 15 16  1  1
 15 17  1  0
 17 18  1  0
 17 19  1  0
 17 20  1  0
 20 21  1  0
 15 22  1  0
 22 23  1  0
 23 24  1  1
 23 25  1  0
 25 26  1  0
 26 27  2  0
 27 28  1  0
 27 29  1  0
 29 30  1  0
 29 31  2  0
 31 32  1  0
 31 33  1  0
 33 34  1  0
 33 35  2  0
 35 36  1  0
 36 37  2  0
 36 38  1  0
  3 39  1  0
 39 40  1  0
 39 41  1  0
 39 42  1  0
 23  5  1  0
 35 26  1  0
M  CHG  2  36   1  38  -1
M  END
>  <UniqueID>  (328) 
327

>  <SMILES>  (328) 
C/C(O)=N\[C@@H]1[C@H](O)[C@H](O)[C@@H](CO)O[C@@H]1Oc1ccccc1[N+](=O)[O-]

>  <Energy>  (328) 
46.64348389524871

>  <Genealogy>  (328) 
CC(O)=N[C@@H]1[C@H](O)[C@H](O)[C@@H](CO)O[C@@H]1Oc1ccccc1[N+](=O)[O-] (tautomer)
C/C(O)=N\[C@@H]1[C@H](O)[C@H](O)[C@@H](CO)O[C@@H]1Oc1ccccc1[N+](=O)[O-] (cis-trans isomerization)
C/C(O)=N\[C@@H]1[C@H](O)[C@H](O)[C@@H](CO)O[C@@H]1Oc1ccccc1[N+](=O)[O-] (3D coordinates assigned)
C/C(O)=N\[C@@H]1[C@H](O)[C@H](O)[C@@H](CO)O[C@@H]1Oc1ccccc1[N+](=O)[O-] (nonaromatic ring conformer: 46.64348389524871 kcal/mol)

$$$$
ZINC000015205949
     RDKit          3D

 42 43  0  0  0  0  0  0  0  0999 V2000
    1.5386    3.8963    0.7139 C   0  0  0  0  0  0  0  0  0  0  0  0
    1.9355    2.7117   -0.1056 C   0  0  0  0  0  0  0  0  0  0  0  0
    3.1455    2.3596   -0.1412 O   0  0  0  0  0  0  0  0  0  0  0  0
    0.9344    1.9538   -0.8000 N   0  0  0  0  0  0  0  0  0  0  0  0
    1.2510    0.7458   -1.5703 C   0  0  2  0  0  0  0  0  0  0  0  0
    0.3735    0.6454   -2.8325 C   0  0  2  0  0  0  0  0  0  0  0  0
   -0.9934    0.6925   -2.4976 O   0  0  0  0  0  0  0  0  0  0  0  0
    0.6776   -0.6751   -3.5615 C   0  0  2  0  0  0  0  0  0  0  0  0
   -0.2253   -0.8490   -4.6238 O   0  0  0  0  0  0  0  0  0  0  0  0
    0.5770   -1.8643   -2.5726 C   0  0  1  0  0  0  0  0  0  0  0  0
    0.9546   -3.1879   -3.2530 C   0  0  0  0  0  0  0  0  0  0  0  0
   -0.0166   -3.5506   -4.1956 O   0  0  0  0  0  0  0  0  0  0  0  0
    1.4567   -1.6772   -1.4721 O   0  0  0  0  0  0  0  0  0  0  0  0
    1.1175   -0.5312   -0.7070 C   0  0  2  0  0  0  0  0  0  0  0  0
   -0.1992   -0.6794   -0.1553 O   0  0  0  0  0  0  0  0  0  0  0  0
   -0.7074   -0.0487    0.9928 C   0  0  0  0  0  0  0  0  0  0  0  0
    0.1048    0.6140    1.9327 C   0  0  0  0  0  0  0  0  0  0  0  0
   -0.4665    1.2296    3.0502 C   0  0  0  0  0  0  0  0  0  0  0  0
   -1.8566    1.1892    3.2571 C   0  0  0  0  0  0  0  0  0  0  0  0
   -2.4480    1.8241    4.4056 N   0  0  0  0  0  4  0  0  0  0  0  0
   -1.7373    2.4263    5.2370 O   0  0  0  0  0  0  0  0  0  0  0  0
   -3.8089    1.7802    4.6055 O   0  0  0  0  0  1  0  0  0  0  0  0
   -2.6614    0.5151    2.3239 C   0  0  0  0  0  0  0  0  0  0  0  0
   -2.0887   -0.0987    1.2067 C   0  0  0  0  0  0  0  0  0  0  0  0
    0.7622    4.4827    0.1795 H   0  0  0  0  0  0  0  0  0  0  0  0
    1.1312    3.5530    1.6872 H   0  0  0  0  0  0  0  0  0  0  0  0
    2.4160    4.5518    0.8978 H   0  0  0  0  0  0  0  0  0  0  0  0
   -0.0656    2.2185   -0.6527 H   0  0  0  0  0  0  0  0  0  0  0  0
    2.3073    0.8050   -1.9181 H   0  0  0  0  0  0  0  0  0  0  0  0
    0.6361    1.4873   -3.5180 H   0  0  0  0  0  0  0  0  0  0  0  0
   -1.2997    1.6266   -2.6352 H   0  0  0  0  0  0  0  0  0  0  0  0
    1.7201   -0.6340   -3.9584 H   0  0  0  0  0  0  0  0  0  0  0  0
    0.0573   -0.2271   -5.3444 H   0  0  0  0  0  0  0  0  0  0  0  0
   -0.4736   -1.9707   -2.2157 H   0  0  0  0  0  0  0  0  0  0  0  0
    1.0229   -3.9846   -2.4783 H   0  0  0  0  0  0  0  0  0  0  0  0
    1.9491   -3.0932   -3.7449 H   0  0  0  0  0  0  0  0  0  0  0  0
    0.2981   -4.3992   -4.6028 H   0  0  0  0  0  0  0  0  0  0  0  0
    1.8640   -0.4821    0.1101 H   0  0  0  0  0  0  0  0  0  0  0  0
    1.1765    0.6649    1.8204 H   0  0  0  0  0  0  0  0  0  0  0  0
    0.1809    1.7373    3.7537 H   0  0  0  0  0  0  0  0  0  0  0  0
   -3.7343    0.4627    2.4556 H   0  0  0  0  0  0  0  0  0  0  0  0
   -2.7249   -0.6107    0.4957 H   0  0  0  0  0  0  0  0  0  0  0  0
  1  2  1  0
  2  3  2  0
  2  4  1  0
  4  5  1  0
  5  6  1  0
  6  7  1  0
  6  8  1  0
  8  9  1  0
  8 10  1  0
 10 11  1  0
 11 12  1  0
 10 13  1  0
 13 14  1  0
 14 15  1  0
 15 16  1  0
 16 17  2  0
 17 18  1  0
 18 19  2  0
 19 20  1  0
 20 21  2  0
 20 22  1  0
 19 23  1  0
 23 24  2  0
 14  5  1  0
 24 16  1  0
  1 25  1  0
  1 26  1  0
  1 27  1  0
  4 28  1  0
  5 29  1  6
  6 30  1  6
  7 31  1  0
  8 32  1  6
  9 33  1  0
 10 34  1  1
 11 35  1  0
 11 36  1  0
 12 37  1  0
 14 38  1  1
 17 39  1  0
 18 40  1  0
 23 41  1  0
 24 42  1  0
M  CHG  2  20   1  22  -1
M  END
>  <UniqueID>  (329) 
328

>  <SMILES>  (329) 
CC(=O)N[C@@H]1[C@H](O)[C@H](O)[C@@H](CO)O[C@@H]1Oc1ccc([N+](=O)[O-])cc1

>  <Energy>  (329) 
43.186356205158425

>  <Genealogy>  (329) 
CC(=O)N[C@@H]1[C@H](O)[C@H](O)[C@@H](CO)O[C@@H]1Oc1ccc([N+](=O)[O-])cc1 (3D coordinates assigned)
CC(=O)N[C@@H]1[C@H](O)[C@H](O)[C@@H](CO)O[C@@H]1Oc1ccc([N+](=O)[O-])cc1 (nonaromatic ring conformer: 43.186356205158425 kcal/mol)

$$$$
ZINC000015205949
     RDKit          3D

 42 43  0  0  0  0  0  0  0  0999 V2000
   -3.1583    4.4350    0.2684 H   0  0  0  0  0  0  0  0  0  0  0  0
   -3.9057    3.8392    0.6051 O   0  0  0  0  0  0  0  0  0  0  0  0
   -3.6572    2.5287    1.0030 C   0  0  0  0  0  0  0  0  0  0  0  0
   -2.4414    2.0645    0.9283 N   0  0  0  0  0  0  0  0  0  0  0  0
   -1.9857    0.7260    1.3192 C   0  0  2  0  0  0  0  0  0  0  0  0
   -2.7776   -0.0256    1.1052 H   0  0  0  0  0  0  0  0  0  0  0  0
   -1.6442    0.6830    2.8206 C   0  0  2  0  0  0  0  0  0  0  0  0
   -2.5891    0.7760    3.4025 H   0  0  0  0  0  0  0  0  0  0  0  0
   -0.7808    1.7456    3.1462 O   0  0  0  0  0  0  0  0  0  0  0  0
   -0.8952    1.9276    4.1153 H   0  0  0  0  0  0  0  0  0  0  0  0
   -0.9889   -0.6689    3.1662 C   0  0  2  0  0  0  0  0  0  0  0  0
   -1.7483   -1.4766    3.0369 H   0  0  0  0  0  0  0  0  0  0  0  0
   -0.5364   -0.6565    4.4960 O   0  0  0  0  0  0  0  0  0  0  0  0
   -1.3408   -0.7373    5.0725 H   0  0  0  0  0  0  0  0  0  0  0  0
    0.1891   -0.9488    2.2015 C   0  0  1  0  0  0  0  0  0  0  0  0
    0.9878   -0.1861    2.3503 H   0  0  0  0  0  0  0  0  0  0  0  0
    0.8213   -2.3248    2.4711 C   0  0  0  0  0  0  0  0  0  0  0  0
    0.0366   -3.1112    2.4557 H   0  0  0  0  0  0  0  0  0  0  0  0
    1.5483   -2.5674    1.6623 H   0  0  0  0  0  0  0  0  0  0  0  0
    1.4698   -2.3539    3.7144 O   0  0  0  0  0  0  0  0  0  0  0  0
    2.3160   -1.8460    3.6061 H   0  0  0  0  0  0  0  0  0  0  0  0
   -0.2602   -0.9378    0.8549 O   0  0  0  0  0  0  0  0  0  0  0  0
   -0.7570    0.3368    0.4751 C   0  0  2  0  0  0  0  0  0  0  0  0
   -1.0975    0.2707   -0.5814 H   0  0  0  0  0  0  0  0  0  0  0  0
    0.2610    1.3410    0.5568 O   0  0  0  0  0  0  0  0  0  0  0  0
    1.4498    1.3454   -0.1888 C   0  0  0  0  0  0  0  0  0  0  0  0
    1.7422    0.3666   -1.1564 C   0  0  0  0  0  0  0  0  0  0  0  0
    1.0490   -0.4349   -1.3692 H   0  0  0  0  0  0  0  0  0  0  0  0
    2.9449    0.4148   -1.8677 C   0  0  0  0  0  0  0  0  0  0  0  0
    3.1451   -0.3511   -2.6058 H   0  0  0  0  0  0  0  0  0  0  0  0
    3.8763    1.4397   -1.6286 C   0  0  0  0  0  0  0  0  0  0  0  0
    5.1136    1.4857   -2.3627 N   0  0  0  0  0  4  0  0  0  0  0  0
    5.9444    2.3942   -2.1545 O   0  0  0  0  0  0  0  0  0  0  0  0
    5.4022    0.5274   -3.3073 O   0  0  0  0  0  1  0  0  0  0  0  0
    3.5775    2.4169   -0.6623 C   0  0  0  0  0  0  0  0  0  0  0  0
    4.2735    3.2195   -0.4549 H   0  0  0  0  0  0  0  0  0  0  0  0
    2.3749    2.3669    0.0479 C   0  0  0  0  0  0  0  0  0  0  0  0
    2.1611    3.1261    0.7898 H   0  0  0  0  0  0  0  0  0  0  0  0
   -4.8120    1.6986    1.4823 C   0  0  0  0  0  0  0  0  0  0  0  0
   -4.9615    0.8285    0.8098 H   0  0  0  0  0  0  0  0  0  0  0  0
   -5.7416    2.3054    1.4743 H   0  0  0  0  0  0  0  0  0  0  0  0
   -4.6387    1.3496    2.5195 H   0  0  0  0  0  0  0  0  0  0  0  0
  1  2  1  0
  2  3  1  0
  3  4  2  0
  4  5  1  0
  5  6  1  1
  5  7  1  0
  7  8  1  1
  7  9  1  0
  9 10  1  0
  7 11  1  0
 11 12  1  1
 11 13  1  0
 13 14  1  0
 11 15  1  0
 15 16  1  6
 15 17  1  0
 17 18  1  0
 17 19  1  0
 17 20  1  0
 20 21  1  0
 15 22  1  0
 22 23  1  0
 23 24  1  6
 23 25  1  0
 25 26  1  0
 26 27  2  0
 27 28  1  0
 27 29  1  0
 29 30  1  0
 29 31  2  0
 31 32  1  0
 32 33  2  0
 32 34  1  0
 31 35  1  0
 35 36  1  0
 35 37  2  0
 37 38  1  0
  3 39  1  0
 39 40  1  0
 39 41  1  0
 39 42  1  0
 23  5  1  0
 37 26  1  0
M  CHG  2  32   1  34  -1
M  END
>  <UniqueID>  (330) 
329

>  <SMILES>  (330) 
C/C(O)=N/[C@@H]1[C@H](O)[C@H](O)[C@@H](CO)O[C@@H]1Oc1ccc([N+](=O)[O-])cc1

>  <Energy>  (330) 
43.201484543042724

>  <Genealogy>  (330) 
CC(O)=N[C@@H]1[C@H](O)[C@H](O)[C@@H](CO)O[C@@H]1Oc1ccc([N+](=O)[O-])cc1 (tautomer)
C/C(O)=N/[C@@H]1[C@H](O)[C@H](O)[C@@H](CO)O[C@@H]1Oc1ccc([N+](=O)[O-])cc1 (cis-trans isomerization)
C/C(O)=N/[C@@H]1[C@H](O)[C@H](O)[C@@H](CO)O[C@@H]1Oc1ccc([N+](=O)[O-])cc1 (3D coordinates assigned)
C/C(O)=N/[C@@H]1[C@H](O)[C@H](O)[C@@H](CO)O[C@@H]1Oc1ccc([N+](=O)[O-])cc1 (nonaromatic ring conformer: 43.201484543042724 kcal/mol)

$$$$
ZINC000015205949
     RDKit          3D

 42 43  0  0  0  0  0  0  0  0999 V2000
   -4.9812    0.4164    0.3564 H   0  0  0  0  0  0  0  0  0  0  0  0
   -4.0776    0.8549    0.4880 O   0  0  0  0  0  0  0  0  0  0  0  0
   -3.4280    1.5001   -0.5641 C   0  0  0  0  0  0  0  0  0  0  0  0
   -2.2766    2.0746   -0.3814 N   0  0  0  0  0  0  0  0  0  0  0  0
   -1.5338    2.0786    0.8839 C   0  0  2  0  0  0  0  0  0  0  0  0
   -2.2445    2.1412    1.7391 H   0  0  0  0  0  0  0  0  0  0  0  0
   -0.6135    3.3068    0.9495 C   0  0  2  0  0  0  0  0  0  0  0  0
   -0.1882    3.3597    1.9792 H   0  0  0  0  0  0  0  0  0  0  0  0
   -1.3595    4.4726    0.7081 O   0  0  0  0  0  0  0  0  0  0  0  0
   -0.7952    5.2381    0.9937 H   0  0  0  0  0  0  0  0  0  0  0  0
    0.5431    3.1842   -0.0624 C   0  0  2  0  0  0  0  0  0  0  0  0
    1.2858    3.9842    0.1676 H   0  0  0  0  0  0  0  0  0  0  0  0
    0.0510    3.3777   -1.3652 O   0  0  0  0  0  0  0  0  0  0  0  0
    0.8282    3.6151   -1.9357 H   0  0  0  0  0  0  0  0  0  0  0  0
    1.2277    1.7953    0.0363 C   0  0  1  0  0  0  0  0  0  0  0  0
    1.8603    1.6862   -0.8723 H   0  0  0  0  0  0  0  0  0  0  0  0
    2.2017    1.6747    1.2268 C   0  0  0  0  0  0  0  0  0  0  0  0
    1.7086    1.9621    2.1798 H   0  0  0  0  0  0  0  0  0  0  0  0
    2.5421    0.6187    1.3086 H   0  0  0  0  0  0  0  0  0  0  0  0
    3.3142    2.5007    1.0169 O   0  0  0  0  0  0  0  0  0  0  0  0
    3.9074    2.3702    1.8020 H   0  0  0  0  0  0  0  0  0  0  0  0
    0.2912    0.7248   -0.0110 O   0  0  0  0  0  0  0  0  0  0  0  0
   -0.6818    0.8020    1.0208 C   0  0  2  0  0  0  0  0  0  0  0  0
   -0.2084    0.7947    2.0268 H   0  0  0  0  0  0  0  0  0  0  0  0
   -1.5356   -0.3384    0.9401 O   0  0  0  0  0  0  0  0  0  0  0  0
   -1.1326   -1.6669    1.1427 C   0  0  0  0  0  0  0  0  0  0  0  0
    0.1784   -2.0139    1.5173 C   0  0  0  0  0  0  0  0  0  0  0  0
    0.9350   -1.2580    1.6689 H   0  0  0  0  0  0  0  0  0  0  0  0
    0.5272   -3.3546    1.7056 C   0  0  0  0  0  0  0  0  0  0  0  0
    1.5428   -3.5936    1.9935 H   0  0  0  0  0  0  0  0  0  0  0  0
   -0.4245   -4.3729    1.5254 C   0  0  0  0  0  0  0  0  0  0  0  0
   -0.0616   -5.7521    1.7200 N   0  0  0  0  0  4  0  0  0  0  0  0
   -0.9032   -6.6607    1.5617 O   0  0  0  0  0  0  0  0  0  0  0  0
    1.2211   -6.0930    2.0840 O   0  0  0  0  0  1  0  0  0  0  0  0
   -1.7342   -4.0202    1.1534 C   0  0  0  0  0  0  0  0  0  0  0  0
   -2.4907   -4.7805    1.0075 H   0  0  0  0  0  0  0  0  0  0  0  0
   -2.0809   -2.6794    0.9656 C   0  0  0  0  0  0  0  0  0  0  0  0
   -3.0935   -2.4247    0.6788 H   0  0  0  0  0  0  0  0  0  0  0  0
   -4.0781    1.5684   -1.9080 C   0  0  0  0  0  0  0  0  0  0  0  0
   -3.3273    1.7907   -2.6963 H   0  0  0  0  0  0  0  0  0  0  0  0
   -4.8492    2.3664   -1.9042 H   0  0  0  0  0  0  0  0  0  0  0  0
   -4.5600    0.5963   -2.1422 H   0  0  0  0  0  0  0  0  0  0  0  0
  1  2  1  0
  2  3  1  0
  3  4  2  0
  4  5  1  0
  5  6  1  1
  5  7  1  0
  7  8  1  1
  7  9  1  0
  9 10  1  0
  7 11  1  0
 11 12  1  1
 11 13  1  0
 13 14  1  0
 11 15  1  0
 15 16  1  6
 15 17  1  0
 17 18  1  0
 17 19  1  0
 17 20  1  0
 20 21  1  0
 15 22  1  0
 22 23  1  0
 23 24  1  1
 23 25  1  0
 25 26  1  0
 26 27  2  0
 27 28  1  0
 27 29  1  0
 29 30  1  0
 29 31  2  0
 31 32  1  0
 32 33  2  0
 32 34  1  0
 31 35  1  0
 35 36  1  0
 35 37  2  0
 37 38  1  0
  3 39  1  0
 39 40  1  0
 39 41  1  0
 39 42  1  0
 23  5  1  0
 37 26  1  0
M  CHG  2  32   1  34  -1
M  END
>  <UniqueID>  (331) 
330

>  <SMILES>  (331) 
C/C(O)=N\[C@@H]1[C@H](O)[C@H](O)[C@@H](CO)O[C@@H]1Oc1ccc([N+](=O)[O-])cc1

>  <Energy>  (331) 
43.355624728473046

>  <Genealogy>  (331) 
CC(O)=N[C@@H]1[C@H](O)[C@H](O)[C@@H](CO)O[C@@H]1Oc1ccc([N+](=O)[O-])cc1 (tautomer)
C/C(O)=N\[C@@H]1[C@H](O)[C@H](O)[C@@H](CO)O[C@@H]1Oc1ccc([N+](=O)[O-])cc1 (cis-trans isomerization)
C/C(O)=N\[C@@H]1[C@H](O)[C@H](O)[C@@H](CO)O[C@@H]1Oc1ccc([N+](=O)[O-])cc1 (3D coordinates assigned)
C/C(O)=N\[C@@H]1[C@H](O)[C@H](O)[C@@H](CO)O[C@@H]1Oc1ccc([N+](=O)[O-])cc1 (nonaromatic ring conformer: 43.355624728473046 kcal/mol)

$$$$
ZINC000015205956
     RDKit          3D

 40 41  0  0  0  0  0  0  0  0999 V2000
   -1.5711    4.9306   -0.0953 C   0  0  0  0  0  0  0  0  0  0  0  0
   -1.3561    3.9234    0.9866 C   0  0  0  0  0  0  0  0  0  0  0  0
   -1.6350    4.2219    2.1793 O   0  0  0  0  0  0  0  0  0  0  0  0
   -0.8641    2.6168    0.6577 N   0  0  0  0  0  0  0  0  0  0  0  0
   -0.5726    1.5975    1.6755 C   0  0  2  0  0  0  0  0  0  0  0  0
    0.8724    1.7228    2.1952 C   0  0  2  0  0  0  0  0  0  0  0  0
    1.1456    3.0360    2.6122 O   0  0  0  0  0  0  0  0  0  0  0  0
    1.8821    1.2926    1.1155 C   0  0  2  0  0  0  0  0  0  0  0  0
    1.9434    2.2518    0.0888 O   0  0  0  0  0  0  0  0  0  0  0  0
    1.4889   -0.0726    0.5020 C   0  0  1  0  0  0  0  0  0  0  0  0
    1.8619   -1.2702    1.3988 C   0  0  0  0  0  0  0  0  0  0  0  0
    1.5026   -2.4663    0.7651 O   0  0  0  0  0  0  0  0  0  0  0  0
    0.1337   -0.1071    0.0653 O   0  0  0  0  0  0  0  0  0  0  0  0
   -0.7916    0.1845    1.1039 C   0  0  2  0  0  0  0  0  0  0  0  0
   -2.1178    0.1130    0.5788 O   0  0  0  0  0  0  0  0  0  0  0  0
   -2.7350   -1.0503    0.0942 C   0  0  0  0  0  0  0  0  0  0  0  0
   -2.1214   -2.3173    0.1538 C   0  0  0  0  0  0  0  0  0  0  0  0
   -2.7828   -3.4438   -0.3456 C   0  0  0  0  0  0  0  0  0  0  0  0
   -4.0570   -3.3184   -0.9048 C   0  0  0  0  0  0  0  0  0  0  0  0
   -4.6729   -2.0659   -0.9641 C   0  0  0  0  0  0  0  0  0  0  0  0
   -4.0143   -0.9376   -0.4656 C   0  0  0  0  0  0  0  0  0  0  0  0
   -1.7873    5.9300    0.3384 H   0  0  0  0  0  0  0  0  0  0  0  0
   -2.4274    4.6165   -0.7276 H   0  0  0  0  0  0  0  0  0  0  0  0
   -0.6593    5.0033   -0.7242 H   0  0  0  0  0  0  0  0  0  0  0  0
   -0.6848    2.3989   -0.3492 H   0  0  0  0  0  0  0  0  0  0  0  0
   -1.2714    1.7216    2.5329 H   0  0  0  0  0  0  0  0  0  0  0  0
    0.9936    1.0380    3.0672 H   0  0  0  0  0  0  0  0  0  0  0  0
    0.6703    3.1679    3.4739 H   0  0  0  0  0  0  0  0  0  0  0  0
    2.8898    1.1948    1.5857 H   0  0  0  0  0  0  0  0  0  0  0  0
    2.5422    2.9789    0.4027 H   0  0  0  0  0  0  0  0  0  0  0  0
    2.1126   -0.1908   -0.4119 H   0  0  0  0  0  0  0  0  0  0  0  0
    1.3693   -1.2045    2.3920 H   0  0  0  0  0  0  0  0  0  0  0  0
    2.9620   -1.2654    1.5690 H   0  0  0  0  0  0  0  0  0  0  0  0
    1.7541   -3.1960    1.3889 H   0  0  0  0  0  0  0  0  0  0  0  0
   -0.7143   -0.5529    1.9320 H   0  0  0  0  0  0  0  0  0  0  0  0
   -1.1408   -2.4439    0.5866 H   0  0  0  0  0  0  0  0  0  0  0  0
   -2.3075   -4.4150   -0.2976 H   0  0  0  0  0  0  0  0  0  0  0  0
   -4.5673   -4.1915   -1.2906 H   0  0  0  0  0  0  0  0  0  0  0  0
   -5.6605   -1.9689   -1.3961 H   0  0  0  0  0  0  0  0  0  0  0  0
   -4.4985    0.0295   -0.5160 H   0  0  0  0  0  0  0  0  0  0  0  0
  1  2  1  0
  2  3  2  0
  2  4  1  0
  4  5  1  0
  5  6  1  0
  6  7  1  0
  6  8  1  0
  8  9  1  0
  8 10  1  0
 10 11  1  0
 11 12  1  0
 10 13  1  0
 13 14  1  0
 14 15  1  0
 15 16  1  0
 16 17  2  0
 17 18  1  0
 18 19  2  0
 19 20  1  0
 20 21  2  0
 14  5  1  0
 21 16  1  0
  1 22  1  0
  1 23  1  0
  1 24  1  0
  4 25  1  0
  5 26  1  1
  6 27  1  1
  7 28  1  0
  8 29  1  1
  9 30  1  0
 10 31  1  6
 11 32  1  0
 11 33  1  0
 12 34  1  0
 14 35  1  1
 17 36  1  0
 18 37  1  0
 19 38  1  0
 20 39  1  0
 21 40  1  0
M  END
>  <UniqueID>  (332) 
331

>  <SMILES>  (332) 
CC(=O)N[C@@H]1[C@H](O)[C@H](O)[C@@H](CO)O[C@@H]1Oc1ccccc1

>  <Energy>  (332) 
39.95897227314676

>  <Genealogy>  (332) 
CC(=O)N[C@@H]1[C@H](O)[C@H](O)[C@@H](CO)O[C@@H]1Oc1ccccc1 (3D coordinates assigned)
CC(=O)N[C@@H]1[C@H](O)[C@H](O)[C@@H](CO)O[C@@H]1Oc1ccccc1 (nonaromatic ring conformer: 39.95897227314676 kcal/mol)

$$$$
ZINC000015205956
     RDKit          3D

 40 41  0  0  0  0  0  0  0  0999 V2000
   -0.5806    2.5532    4.3046 H   0  0  0  0  0  0  0  0  0  0  0  0
   -0.3345    1.8057    3.6669 O   0  0  0  0  0  0  0  0  0  0  0  0
   -0.6286    1.8775    2.3075 C   0  0  0  0  0  0  0  0  0  0  0  0
   -0.2681    0.8849    1.5459 N   0  0  0  0  0  0  0  0  0  0  0  0
   -0.4917    0.7524    0.1031 C   0  0  2  0  0  0  0  0  0  0  0  0
   -0.4582    1.7544   -0.3794 H   0  0  0  0  0  0  0  0  0  0  0  0
   -1.8638    0.1108   -0.1727 C   0  0  2  0  0  0  0  0  0  0  0  0
   -2.6604    0.8241    0.1398 H   0  0  0  0  0  0  0  0  0  0  0  0
   -1.9868   -1.0864    0.5573 O   0  0  0  0  0  0  0  0  0  0  0  0
   -2.9571   -1.2508    0.6872 H   0  0  0  0  0  0  0  0  0  0  0  0
   -2.0156   -0.1579   -1.6797 C   0  0  2  0  0  0  0  0  0  0  0  0
   -2.0520    0.8320   -2.1978 H   0  0  0  0  0  0  0  0  0  0  0  0
   -3.2045   -0.8750   -1.9033 O   0  0  0  0  0  0  0  0  0  0  0  0
   -3.6242   -0.5031   -2.7226 H   0  0  0  0  0  0  0  0  0  0  0  0
   -0.7911   -0.9505   -2.2020 C   0  0  1  0  0  0  0  0  0  0  0  0
   -0.7615   -1.9568   -1.7242 H   0  0  0  0  0  0  0  0  0  0  0  0
   -0.8720   -1.1733   -3.7220 C   0  0  0  0  0  0  0  0  0  0  0  0
   -1.0611   -0.2073   -4.2372 H   0  0  0  0  0  0  0  0  0  0  0  0
    0.1031   -1.5613   -4.0966 H   0  0  0  0  0  0  0  0  0  0  0  0
   -1.8958   -2.0736   -4.0518 O   0  0  0  0  0  0  0  0  0  0  0  0
   -1.5673   -2.9793   -3.8119 H   0  0  0  0  0  0  0  0  0  0  0  0
    0.4094   -0.2403   -1.9333 O   0  0  0  0  0  0  0  0  0  0  0  0
    0.6371   -0.0882   -0.5410 C   0  0  2  0  0  0  0  0  0  0  0  0
    1.5882    0.4746   -0.4506 H   0  0  0  0  0  0  0  0  0  0  0  0
    0.7817   -1.3747    0.0788 O   0  0  0  0  0  0  0  0  0  0  0  0
    1.4683   -1.6620    1.2711 C   0  0  0  0  0  0  0  0  0  0  0  0
    2.2796   -0.7229    1.9421 C   0  0  0  0  0  0  0  0  0  0  0  0
    2.4139    0.2811    1.5689 H   0  0  0  0  0  0  0  0  0  0  0  0
    2.9337   -1.0770    3.1265 C   0  0  0  0  0  0  0  0  0  0  0  0
    3.5517   -0.3517    3.6400 H   0  0  0  0  0  0  0  0  0  0  0  0
    2.7926   -2.3647    3.6487 C   0  0  0  0  0  0  0  0  0  0  0  0
    3.3003   -2.6361    4.5653 H   0  0  0  0  0  0  0  0  0  0  0  0
    1.9974   -3.3023    2.9864 C   0  0  0  0  0  0  0  0  0  0  0  0
    1.8891   -4.3008    3.3899 H   0  0  0  0  0  0  0  0  0  0  0  0
    1.3408   -2.9521    1.8030 C   0  0  0  0  0  0  0  0  0  0  0  0
    0.7252   -3.6854    1.2975 H   0  0  0  0  0  0  0  0  0  0  0  0
   -1.3197    3.0990    1.7647 C   0  0  0  0  0  0  0  0  0  0  0  0
   -0.6417    3.6393    1.0718 H   0  0  0  0  0  0  0  0  0  0  0  0
   -2.2509    2.8178    1.2343 H   0  0  0  0  0  0  0  0  0  0  0  0
   -1.5930    3.7899    2.5889 H   0  0  0  0  0  0  0  0  0  0  0  0
  1  2  1  0
  2  3  1  0
  3  4  2  0
  4  5  1  0
  5  6  1  6
  5  7  1  0
  7  8  1  1
  7  9  1  0
  9 10  1  0
  7 11  1  0
 11 12  1  6
 11 13  1  0
 13 14  1  0
 11 15  1  0
 15 16  1  1
 15 17  1  0
 17 18  1  0
 17 19  1  0
 17 20  1  0
 20 21  1  0
 15 22  1  0
 22 23  1  0
 23 24  1  6
 23 25  1  0
 25 26  1  0
 26 27  2  0
 27 28  1  0
 27 29  1  0
 29 30  1  0
 29 31  2  0
 31 32  1  0
 31 33  1  0
 33 34  1  0
 33 35  2  0
 35 36  1  0
  3 37  1  0
 37 38  1  0
 37 39  1  0
 37 40  1  0
 23  5  1  0
 35 26  1  0
M  END
>  <UniqueID>  (333) 
332

>  <SMILES>  (333) 
C/C(O)=N\[C@@H]1[C@H](O)[C@H](O)[C@@H](CO)O[C@@H]1Oc1ccccc1

>  <Energy>  (333) 
43.4445801330146

>  <Genealogy>  (333) 
CC(O)=N[C@@H]1[C@H](O)[C@H](O)[C@@H](CO)O[C@@H]1Oc1ccccc1 (tautomer)
C/C(O)=N\[C@@H]1[C@H](O)[C@H](O)[C@@H](CO)O[C@@H]1Oc1ccccc1 (cis-trans isomerization)
C/C(O)=N\[C@@H]1[C@H](O)[C@H](O)[C@@H](CO)O[C@@H]1Oc1ccccc1 (3D coordinates assigned)
C/C(O)=N\[C@@H]1[C@H](O)[C@H](O)[C@@H](CO)O[C@@H]1Oc1ccccc1 (nonaromatic ring conformer: 43.4445801330146 kcal/mol)

$$$$
ZINC000015205956
     RDKit          3D

 40 41  0  0  0  0  0  0  0  0999 V2000
   -0.3759   -3.9193    0.5441 H   0  0  0  0  0  0  0  0  0  0  0  0
   -1.3013   -3.6434    0.8521 O   0  0  0  0  0  0  0  0  0  0  0  0
   -1.6635   -2.3014    0.9260 C   0  0  0  0  0  0  0  0  0  0  0  0
   -0.7890   -1.3925    0.5990 N   0  0  0  0  0  0  0  0  0  0  0  0
   -0.9837    0.0601    0.5966 C   0  0  2  0  0  0  0  0  0  0  0  0
   -1.6763    0.3500    1.4177 H   0  0  0  0  0  0  0  0  0  0  0  0
   -1.5805    0.5217   -0.7466 C   0  0  2  0  0  0  0  0  0  0  0  0
   -2.6223    0.1345   -0.8260 H   0  0  0  0  0  0  0  0  0  0  0  0
   -0.8019    0.0256   -1.8089 O   0  0  0  0  0  0  0  0  0  0  0  0
   -1.4079   -0.0901   -2.5867 H   0  0  0  0  0  0  0  0  0  0  0  0
   -1.6298    2.0609   -0.7786 C   0  0  2  0  0  0  0  0  0  0  0  0
   -2.3615    2.3851   -0.0061 H   0  0  0  0  0  0  0  0  0  0  0  0
   -2.0952    2.5232   -2.0238 O   0  0  0  0  0  0  0  0  0  0  0  0
   -1.3789    2.3719   -2.6940 H   0  0  0  0  0  0  0  0  0  0  0  0
   -0.2419    2.6529   -0.4192 C   0  0  1  0  0  0  0  0  0  0  0  0
    0.4974    2.3671   -1.2024 H   0  0  0  0  0  0  0  0  0  0  0  0
   -0.2718    4.1885   -0.3957 C   0  0  0  0  0  0  0  0  0  0  0  0
    0.7568    4.5609   -0.2025 H   0  0  0  0  0  0  0  0  0  0  0  0
   -0.5806    4.5918   -1.3880 H   0  0  0  0  0  0  0  0  0  0  0  0
   -1.1092    4.6605    0.6271 O   0  0  0  0  0  0  0  0  0  0  0  0
   -2.0071    4.7957    0.2262 H   0  0  0  0  0  0  0  0  0  0  0  0
    0.1853    2.1904    0.8540 O   0  0  0  0  0  0  0  0  0  0  0  0
    0.3596    0.7815    0.8733 C   0  0  2  0  0  0  0  0  0  0  0  0
    0.6841    0.5324    1.9039 H   0  0  0  0  0  0  0  0  0  0  0  0
    1.3850    0.3990   -0.0555 O   0  0  0  0  0  0  0  0  0  0  0  0
    2.1695   -0.7664   -0.0099 C   0  0  0  0  0  0  0  0  0  0  0  0
    2.9772   -1.0535   -1.1182 C   0  0  0  0  0  0  0  0  0  0  0  0
    2.9786   -0.3870   -1.9716 H   0  0  0  0  0  0  0  0  0  0  0  0
    3.7789   -2.1986   -1.1374 C   0  0  0  0  0  0  0  0  0  0  0  0
    4.3959   -2.4124   -2.0006 H   0  0  0  0  0  0  0  0  0  0  0  0
    3.7835   -3.0673   -0.0441 C   0  0  0  0  0  0  0  0  0  0  0  0
    4.4035   -3.9543   -0.0598 H   0  0  0  0  0  0  0  0  0  0  0  0
    2.9890   -2.7896    1.0705 C   0  0  0  0  0  0  0  0  0  0  0  0
    2.9948   -3.4628    1.9181 H   0  0  0  0  0  0  0  0  0  0  0  0
    2.1869   -1.6441    1.0946 C   0  0  0  0  0  0  0  0  0  0  0  0
    1.5882   -1.4621    1.9741 H   0  0  0  0  0  0  0  0  0  0  0  0
   -3.0437   -1.9600    1.4055 C   0  0  0  0  0  0  0  0  0  0  0  0
   -3.6196   -2.8908    1.5913 H   0  0  0  0  0  0  0  0  0  0  0  0
   -3.5866   -1.3659    0.6439 H   0  0  0  0  0  0  0  0  0  0  0  0
   -2.9860   -1.3922    2.3574 H   0  0  0  0  0  0  0  0  0  0  0  0
  1  2  1  0
  2  3  1  0
  3  4  2  0
  4  5  1  0
  5  6  1  1
  5  7  1  0
  7  8  1  6
  7  9  1  0
  9 10  1  0
  7 11  1  0
 11 12  1  1
 11 13  1  0
 13 14  1  0
 11 15  1  0
 15 16  1  6
 15 17  1  0
 17 18  1  0
 17 19  1  0
 17 20  1  0
 20 21  1  0
 15 22  1  0
 22 23  1  0
 23 24  1  1
 23 25  1  0
 25 26  1  0
 26 27  2  0
 27 28  1  0
 27 29  1  0
 29 30  1  0
 29 31  2  0
 31 32  1  0
 31 33  1  0
 33 34  1  0
 33 35  2  0
 35 36  1  0
  3 37  1  0
 37 38  1  0
 37 39  1  0
 37 40  1  0
 23  5  1  0
 35 26  1  0
M  END
>  <UniqueID>  (334) 
333

>  <SMILES>  (334) 
C/C(O)=N/[C@@H]1[C@H](O)[C@H](O)[C@@H](CO)O[C@@H]1Oc1ccccc1

>  <Energy>  (334) 
43.60876399091952

>  <Genealogy>  (334) 
CC(O)=N[C@@H]1[C@H](O)[C@H](O)[C@@H](CO)O[C@@H]1Oc1ccccc1 (tautomer)
C/C(O)=N/[C@@H]1[C@H](O)[C@H](O)[C@@H](CO)O[C@@H]1Oc1ccccc1 (cis-trans isomerization)
C/C(O)=N/[C@@H]1[C@H](O)[C@H](O)[C@@H](CO)O[C@@H]1Oc1ccccc1 (3D coordinates assigned)
C/C(O)=N/[C@@H]1[C@H](O)[C@H](O)[C@@H](CO)O[C@@H]1Oc1ccccc1 (nonaromatic ring conformer: 43.60876399091952 kcal/mol)

$$$$
ZINC000019893747
     RDKit          3D

 46 47  0  0  0  0  0  0  0  0999 V2000
   -2.1917   -1.8817    3.4638 C   0  0  0  0  0  0  0  0  0  0  0  0
   -1.5490   -1.9576    2.2099 O   0  0  0  0  0  0  0  0  0  0  0  0
   -2.0634   -0.9678    1.3389 C   0  0  2  0  0  0  0  0  0  0  0  0
   -3.3368   -1.3825    0.8710 O   0  0  0  0  0  0  0  0  0  0  0  0
   -3.9285   -0.3778    0.0645 C   0  0  2  0  0  0  0  0  0  0  0  0
   -5.3613   -0.8113   -0.2788 C   0  0  0  0  0  0  0  0  0  0  0  0
   -6.1256   -0.9405    0.8902 O   0  0  0  0  0  0  0  0  0  0  0  0
   -3.0955   -0.1694   -1.2227 C   0  0  1  0  0  0  0  0  0  0  0  0
   -3.6764    0.8387   -2.0093 O   0  0  0  0  0  0  0  0  0  0  0  0
   -1.6444    0.2112   -0.8617 C   0  0  1  0  0  0  0  0  0  0  0  0
   -1.6301    1.5012   -0.2708 O   0  0  0  0  0  0  0  0  0  0  0  0
   -0.6628    2.5782   -1.1616 S   0  0  0  0  0  6  0  0  0  0  0  0
   -1.4070    2.9605   -2.7328 C   0  0  0  0  0  0  0  0  0  0  0  0
   -0.5285    3.8528   -0.3780 O   0  0  0  0  0  0  0  0  0  0  0  0
    0.7087    2.0058   -1.3841 O   0  0  0  0  0  0  0  0  0  0  0  0
   -1.0938   -0.8212    0.1456 C   0  0  1  0  0  0  0  0  0  0  0  0
    0.2430   -0.4296    0.6074 N   0  0  0  0  0  0  0  0  0  0  0  0
    1.4242   -0.6786   -0.1732 C   0  0  0  0  0  0  0  0  0  0  0  0
    1.3448   -1.3817   -1.2179 O   0  0  0  0  0  0  0  0  0  0  0  0
    2.7401   -0.1299    0.2339 C   0  0  0  0  0  0  0  0  0  0  0  0
    2.8307    1.0264    1.0328 C   0  0  0  0  0  0  0  0  0  0  0  0
    4.0798    1.5375    1.3986 C   0  0  0  0  0  0  0  0  0  0  0  0
    5.2493    0.9069    0.9689 C   0  0  0  0  0  0  0  0  0  0  0  0
    5.1725   -0.2335    0.1667 C   0  0  0  0  0  0  0  0  0  0  0  0
    3.9264   -0.7483   -0.2035 C   0  0  0  0  0  0  0  0  0  0  0  0
   -1.9430   -0.9288    3.9809 H   0  0  0  0  0  0  0  0  0  0  0  0
   -1.8246   -2.7132    4.0995 H   0  0  0  0  0  0  0  0  0  0  0  0
   -3.2945   -1.9948    3.3669 H   0  0  0  0  0  0  0  0  0  0  0  0
   -2.1316    0.0186    1.8643 H   0  0  0  0  0  0  0  0  0  0  0  0
   -4.0013    0.5835    0.6262 H   0  0  0  0  0  0  0  0  0  0  0  0
   -5.3523   -1.7704   -0.8469 H   0  0  0  0  0  0  0  0  0  0  0  0
   -5.8430   -0.0433   -0.9204 H   0  0  0  0  0  0  0  0  0  0  0  0
   -5.9157   -1.8319    1.2734 H   0  0  0  0  0  0  0  0  0  0  0  0
   -3.0821   -1.1331   -1.7877 H   0  0  0  0  0  0  0  0  0  0  0  0
   -3.3968    0.6682   -2.9463 H   0  0  0  0  0  0  0  0  0  0  0  0
   -1.0373    0.1393   -1.7939 H   0  0  0  0  0  0  0  0  0  0  0  0
   -2.4542    3.2917   -2.5775 H   0  0  0  0  0  0  0  0  0  0  0  0
   -0.8351    3.7747   -3.2237 H   0  0  0  0  0  0  0  0  0  0  0  0
   -1.3903    2.0642   -3.3854 H   0  0  0  0  0  0  0  0  0  0  0  0
   -1.0303   -1.8150   -0.3538 H   0  0  0  0  0  0  0  0  0  0  0  0
    0.3460   -0.0330    1.5685 H   0  0  0  0  0  0  0  0  0  0  0  0
    1.9432    1.5544    1.3549 H   0  0  0  0  0  0  0  0  0  0  0  0
    4.1408    2.4283    2.0105 H   0  0  0  0  0  0  0  0  0  0  0  0
    6.2148    1.3051    1.2528 H   0  0  0  0  0  0  0  0  0  0  0  0
    6.0795   -0.7193   -0.1692 H   0  0  0  0  0  0  0  0  0  0  0  0
    3.8903   -1.6357   -0.8233 H   0  0  0  0  0  0  0  0  0  0  0  0
  1  2  1  0
  2  3  1  0
  3  4  1  0
  4  5  1  0
  5  6  1  0
  6  7  1  0
  5  8  1  0
  8  9  1  0
  8 10  1  0
 10 11  1  0
 11 12  1  0
 12 13  1  0
 12 14  2  0
 12 15  2  0
 10 16  1  0
 16 17  1  0
 17 18  1  0
 18 19  2  0
 18 20  1  0
 20 21  2  0
 21 22  1  0
 22 23  2  0
 23 24  1  0
 24 25  2  0
 16  3  1  0
 25 20  1  0
  1 26  1  0
  1 27  1  0
  1 28  1  0
  3 29  1  1
  5 30  1  1
  6 31  1  0
  6 32  1  0
  7 33  1  0
  8 34  1  6
  9 35  1  0
 10 36  1  6
 13 37  1  0
 13 38  1  0
 13 39  1  0
 16 40  1  6
 17 41  1  0
 21 42  1  0
 22 43  1  0
 23 44  1  0
 24 45  1  0
 25 46  1  0
M  END
>  <UniqueID>  (335) 
334

>  <SMILES>  (335) 
CO[C@@H]1O[C@H](CO)[C@@H](O)[C@@H](OS(C)(=O)=O)[C@H]1NC(=O)c1ccccc1

>  <Energy>  (335) 
45.868421169067524

>  <Genealogy>  (335) 
CO[C@@H]1O[C@H](CO)[C@@H](O)[C@@H](OS(C)(=O)=O)[C@H]1NC(=O)c1ccccc1 (3D coordinates assigned)
CO[C@@H]1O[C@H](CO)[C@@H](O)[C@@H](OS(C)(=O)=O)[C@H]1NC(=O)c1ccccc1 (nonaromatic ring conformer: 45.868421169067524 kcal/mol)

$$$$
ZINC000019893747
     RDKit          3D

 46 47  0  0  0  0  0  0  0  0999 V2000
   -2.6982   -2.3371    1.1457 H   0  0  0  0  0  0  0  0  0  0  0  0
   -2.7966   -1.3803    1.4655 O   0  0  0  0  0  0  0  0  0  0  0  0
   -1.9162   -0.3876    1.0466 C   0  0  0  0  0  0  0  0  0  0  0  0
   -0.9494   -0.7022    0.2286 N   0  0  0  0  0  0  0  0  0  0  0  0
    0.0155    0.2155   -0.3869 C   0  0  2  0  0  0  0  0  0  0  0  0
    0.3640    0.9639    0.3543 H   0  0  0  0  0  0  0  0  0  0  0  0
   -0.6181    0.9478   -1.5860 C   0  0  2  0  0  0  0  0  0  0  0  0
   -1.3949    1.6396   -1.1840 H   0  0  0  0  0  0  0  0  0  0  0  0
   -1.1242   -0.0062   -2.5055 O   0  0  0  0  0  0  0  0  0  0  0  0
   -2.7593    0.2901   -2.8503 S   0  0  0  0  0  6  0  0  0  0  0  0
   -3.6074   -0.0535   -1.6588 O   0  0  0  0  0  0  0  0  0  0  0  0
   -2.9770    1.7279   -3.2318 O   0  0  0  0  0  0  0  0  0  0  0  0
   -3.2401   -0.7414   -4.2144 C   0  0  0  0  0  0  0  0  0  0  0  0
   -2.6421   -0.4734   -5.1100 H   0  0  0  0  0  0  0  0  0  0  0  0
   -3.0582   -1.8046   -3.9553 H   0  0  0  0  0  0  0  0  0  0  0  0
   -4.3184   -0.5935   -4.4318 H   0  0  0  0  0  0  0  0  0  0  0  0
    0.4650    1.7982   -2.2803 C   0  0  2  0  0  0  0  0  0  0  0  0
    0.7766    2.6156   -1.5864 H   0  0  0  0  0  0  0  0  0  0  0  0
   -0.0481    2.3510   -3.4648 O   0  0  0  0  0  0  0  0  0  0  0  0
   -0.5968    3.1343   -3.1999 H   0  0  0  0  0  0  0  0  0  0  0  0
    1.7075    0.9242   -2.5933 C   0  0  1  0  0  0  0  0  0  0  0  0
    1.4394    0.1314   -3.3310 H   0  0  0  0  0  0  0  0  0  0  0  0
    2.8375    1.7579   -3.2129 C   0  0  0  0  0  0  0  0  0  0  0  0
    3.7581    1.1335   -3.2645 H   0  0  0  0  0  0  0  0  0  0  0  0
    3.0515    2.6447   -2.5740 H   0  0  0  0  0  0  0  0  0  0  0  0
    2.4907    2.1686   -4.5062 O   0  0  0  0  0  0  0  0  0  0  0  0
    3.2542    2.7090   -4.8377 H   0  0  0  0  0  0  0  0  0  0  0  0
    2.2042    0.3347   -1.4028 O   0  0  0  0  0  0  0  0  0  0  0  0
    1.2571   -0.5673   -0.8505 C   0  0  1  0  0  0  0  0  0  0  0  0
    0.9381   -1.3297   -1.6044 H   0  0  0  0  0  0  0  0  0  0  0  0
    1.8228   -1.2077    0.2777 O   0  0  0  0  0  0  0  0  0  0  0  0
    2.8129   -2.1273   -0.1300 C   0  0  0  0  0  0  0  0  0  0  0  0
    3.6698   -1.6073   -0.6106 H   0  0  0  0  0  0  0  0  0  0  0  0
    3.1997   -2.6487    0.7687 H   0  0  0  0  0  0  0  0  0  0  0  0
    2.3969   -2.9031   -0.8084 H   0  0  0  0  0  0  0  0  0  0  0  0
   -2.1346    0.9878    1.5376 C   0  0  0  0  0  0  0  0  0  0  0  0
   -3.3421    1.6451    1.2559 C   0  0  0  0  0  0  0  0  0  0  0  0
   -4.1067    1.1592    0.6643 H   0  0  0  0  0  0  0  0  0  0  0  0
   -3.5666    2.9401    1.7319 C   0  0  0  0  0  0  0  0  0  0  0  0
   -4.4969    3.4448    1.5057 H   0  0  0  0  0  0  0  0  0  0  0  0
   -2.5973    3.5775    2.5111 C   0  0  0  0  0  0  0  0  0  0  0  0
   -2.7749    4.5778    2.8839 H   0  0  0  0  0  0  0  0  0  0  0  0
   -1.4083    2.9150    2.8261 C   0  0  0  0  0  0  0  0  0  0  0  0
   -0.6680    3.4001    3.4487 H   0  0  0  0  0  0  0  0  0  0  0  0
   -1.1806    1.6203    2.3508 C   0  0  0  0  0  0  0  0  0  0  0  0
   -0.2675    1.1066    2.6278 H   0  0  0  0  0  0  0  0  0  0  0  0
  1  2  1  0
  2  3  1  0
  3  4  2  0
  4  5  1  0
  5  6  1  1
  5  7  1  0
  7  8  1  1
  7  9  1  0
  9 10  1  0
 10 11  2  0
 10 12  2  0
 10 13  1  0
 13 14  1  0
 13 15  1  0
 13 16  1  0
  7 17  1  0
 17 18  1  1
 17 19  1  0
 19 20  1  0
 17 21  1  0
 21 22  1  6
 21 23  1  0
 23 24  1  0
 23 25  1  0
 23 26  1  0
 26 27  1  0
 21 28  1  0
 28 29  1  0
 29 30  1  6
 29 31  1  0
 31 32  1  0
 32 33  1  0
 32 34  1  0
 32 35  1  0
  3 36  1  0
 36 37  2  0
 37 38  1  0
 37 39  1  0
 39 40  1  0
 39 41  2  0
 41 42  1  0
 41 43  1  0
 43 44  1  0
 43 45  2  0
 45 46  1  0
 29  5  1  0
 45 36  1  0
M  END
>  <UniqueID>  (336) 
335

>  <SMILES>  (336) 
CO[C@@H]1O[C@H](CO)[C@@H](O)[C@@H](OS(C)(=O)=O)[C@H]1/N=C(/O)c1ccccc1

>  <Energy>  (336) 
51.30909630574887

>  <Genealogy>  (336) 
CO[C@@H]1O[C@H](CO)[C@@H](O)[C@@H](OS(C)(=O)=O)[C@H]1N=C(O)c1ccccc1 (tautomer)
CO[C@@H]1O[C@H](CO)[C@@H](O)[C@@H](OS(C)(=O)=O)[C@H]1/N=C(/O)c1ccccc1 (cis-trans isomerization)
CO[C@@H]1O[C@H](CO)[C@@H](O)[C@@H](OS(C)(=O)=O)[C@H]1/N=C(/O)c1ccccc1 (3D coordinates assigned)
CO[C@@H]1O[C@H](CO)[C@@H](O)[C@@H](OS(C)(=O)=O)[C@H]1/N=C(/O)c1ccccc1 (nonaromatic ring conformer: 51.30909630574887 kcal/mol)

$$$$
ZINC000019893747
     RDKit          3D

 46 47  0  0  0  0  0  0  0  0999 V2000
   -0.0618    3.7133    0.5027 H   0  0  0  0  0  0  0  0  0  0  0  0
   -0.0846    3.0268    1.2477 O   0  0  0  0  0  0  0  0  0  0  0  0
   -0.3520    1.6871    0.9828 C   0  0  0  0  0  0  0  0  0  0  0  0
   -0.5800    1.3196   -0.2483 N   0  0  0  0  0  0  0  0  0  0  0  0
   -0.7789   -0.0467   -0.7459 C   0  0  2  0  0  0  0  0  0  0  0  0
   -1.2036   -0.7016    0.0414 H   0  0  0  0  0  0  0  0  0  0  0  0
    0.5622   -0.6447   -1.2131 C   0  0  2  0  0  0  0  0  0  0  0  0
    1.1888   -0.7977   -0.3031 H   0  0  0  0  0  0  0  0  0  0  0  0
    1.1532    0.2228   -2.1676 O   0  0  0  0  0  0  0  0  0  0  0  0
    2.7856    0.5165   -1.8010 S   0  0  0  0  0  6  0  0  0  0  0  0
    3.5061   -0.7638   -1.4796 O   0  0  0  0  0  0  0  0  0  0  0  0
    3.4369    1.1477   -2.9983 O   0  0  0  0  0  0  0  0  0  0  0  0
    2.9189    1.6381   -0.4278 C   0  0  0  0  0  0  0  0  0  0  0  0
    3.9725    1.9680   -0.3178 H   0  0  0  0  0  0  0  0  0  0  0  0
    2.6010    1.1246    0.4996 H   0  0  0  0  0  0  0  0  0  0  0  0
    2.2720    2.5215   -0.6052 H   0  0  0  0  0  0  0  0  0  0  0  0
    0.2960   -2.0190   -1.8597 C   0  0  2  0  0  0  0  0  0  0  0  0
   -0.0667   -2.7071   -1.0567 H   0  0  0  0  0  0  0  0  0  0  0  0
    1.4869   -2.5077   -2.4237 O   0  0  0  0  0  0  0  0  0  0  0  0
    1.5202   -3.4835   -2.2441 H   0  0  0  0  0  0  0  0  0  0  0  0
   -0.8064   -1.8894   -2.9446 C   0  0  1  0  0  0  0  0  0  0  0  0
   -0.4512   -1.2304   -3.7718 H   0  0  0  0  0  0  0  0  0  0  0  0
   -1.1501   -3.2511   -3.5641 C   0  0  0  0  0  0  0  0  0  0  0  0
   -1.3485   -3.9966   -2.7610 H   0  0  0  0  0  0  0  0  0  0  0  0
   -2.0728   -3.1462   -4.1783 H   0  0  0  0  0  0  0  0  0  0  0  0
   -0.1050   -3.6924   -4.3865 O   0  0  0  0  0  0  0  0  0  0  0  0
   -0.3774   -4.5856   -4.7227 H   0  0  0  0  0  0  0  0  0  0  0  0
   -1.9918   -1.3594   -2.3739 O   0  0  0  0  0  0  0  0  0  0  0  0
   -1.7837   -0.0335   -1.9121 C   0  0  1  0  0  0  0  0  0  0  0  0
   -1.3765    0.6176   -2.7266 H   0  0  0  0  0  0  0  0  0  0  0  0
   -3.0102    0.4853   -1.4330 O   0  0  0  0  0  0  0  0  0  0  0  0
   -3.8449    0.8354   -2.5153 C   0  0  0  0  0  0  0  0  0  0  0  0
   -4.0369   -0.0335   -3.1830 H   0  0  0  0  0  0  0  0  0  0  0  0
   -4.8229    1.1701   -2.1124 H   0  0  0  0  0  0  0  0  0  0  0  0
   -3.4128    1.6818   -3.0933 H   0  0  0  0  0  0  0  0  0  0  0  0
   -0.3588    0.7437    2.1190 C   0  0  0  0  0  0  0  0  0  0  0  0
   -1.5348    0.0628    2.4769 C   0  0  0  0  0  0  0  0  0  0  0  0
   -2.4447    0.2016    1.9058 H   0  0  0  0  0  0  0  0  0  0  0  0
   -1.5431   -0.7973    3.5792 C   0  0  0  0  0  0  0  0  0  0  0  0
   -2.4481   -1.3285    3.8439 H   0  0  0  0  0  0  0  0  0  0  0  0
   -0.3866   -0.9636    4.3455 C   0  0  0  0  0  0  0  0  0  0  0  0
   -0.3945   -1.6278    5.1999 H   0  0  0  0  0  0  0  0  0  0  0  0
    0.7752   -0.2589    4.0189 C   0  0  0  0  0  0  0  0  0  0  0  0
    1.6650   -0.3740    4.6243 H   0  0  0  0  0  0  0  0  0  0  0  0
    0.7867    0.6019    2.9168 C   0  0  0  0  0  0  0  0  0  0  0  0
    1.6877    1.1558    2.6885 H   0  0  0  0  0  0  0  0  0  0  0  0
  1  2  1  0
  2  3  1  0
  3  4  2  0
  4  5  1  0
  5  6  1  1
  5  7  1  0
  7  8  1  1
  7  9  1  0
  9 10  1  0
 10 11  2  0
 10 12  2  0
 10 13  1  0
 13 14  1  0
 13 15  1  0
 13 16  1  0
  7 17  1  0
 17 18  1  1
 17 19  1  0
 19 20  1  0
 17 21  1  0
 21 22  1  6
 21 23  1  0
 23 24  1  0
 23 25  1  0
 23 26  1  0
 26 27  1  0
 21 28  1  0
 28 29  1  0
 29 30  1  6
 29 31  1  0
 31 32  1  0
 32 33  1  0
 32 34  1  0
 32 35  1  0
  3 36  1  0
 36 37  2  0
 37 38  1  0
 37 39  1  0
 39 40  1  0
 39 41  2  0
 41 42  1  0
 41 43  1  0
 43 44  1  0
 43 45  2  0
 45 46  1  0
 29  5  1  0
 45 36  1  0
M  END
>  <UniqueID>  (337) 
336

>  <SMILES>  (337) 
CO[C@@H]1O[C@H](CO)[C@@H](O)[C@@H](OS(C)(=O)=O)[C@H]1/N=C(\O)c1ccccc1

>  <Energy>  (337) 
52.587185776660796

>  <Genealogy>  (337) 
CO[C@@H]1O[C@H](CO)[C@@H](O)[C@@H](OS(C)(=O)=O)[C@H]1N=C(O)c1ccccc1 (tautomer)
CO[C@@H]1O[C@H](CO)[C@@H](O)[C@@H](OS(C)(=O)=O)[C@H]1/N=C(\O)c1ccccc1 (cis-trans isomerization)
CO[C@@H]1O[C@H](CO)[C@@H](O)[C@@H](OS(C)(=O)=O)[C@H]1/N=C(\O)c1ccccc1 (3D coordinates assigned)
CO[C@@H]1O[C@H](CO)[C@@H](O)[C@@H](OS(C)(=O)=O)[C@H]1/N=C(\O)c1ccccc1 (nonaromatic ring conformer: 52.587185776660796 kcal/mol)

$$$$
ZINC000019898298
     RDKit          3D

 40 41  0  0  0  0  0  0  0  0999 V2000
    2.1441    0.5085   -3.0374 C   0  0  0  0  0  0  0  0  0  0  0  0
    0.9164    0.2193   -2.4048 O   0  0  0  0  0  0  0  0  0  0  0  0
    1.1464   -0.4459   -1.1770 C   0  0  2  0  0  0  0  0  0  0  0  0
    1.4837   -1.7993   -1.4404 O   0  0  0  0  0  0  0  0  0  0  0  0
    1.8106   -2.4794   -0.2395 C   0  0  2  0  0  0  0  0  0  0  0  0
    2.3447   -3.8722   -0.5987 C   0  0  0  0  0  0  0  0  0  0  0  0
    1.3841   -4.5943   -1.3200 O   0  0  0  0  0  0  0  0  0  0  0  0
    0.5723   -2.5690    0.6855 C   0  0  1  0  0  0  0  0  0  0  0  0
    0.9160   -3.2112    1.8869 O   0  0  0  0  0  0  0  0  0  0  0  0
    0.0310   -1.1575    0.9785 C   0  0  1  0  0  0  0  0  0  0  0  0
    0.9235   -0.4773    1.8277 O   0  0  0  0  0  0  0  0  0  0  0  0
   -0.1514   -0.3849   -0.3443 C   0  0  1  0  0  0  0  0  0  0  0  0
   -0.5316    1.0074   -0.0808 N   0  0  0  0  0  0  0  0  0  0  0  0
   -1.8841    1.3853    0.2257 C   0  0  0  0  0  0  0  0  0  0  0  0
   -2.7606    0.4917    0.3843 O   0  0  0  0  0  0  0  0  0  0  0  0
   -2.2656    2.8101    0.3751 C   0  0  0  0  0  0  0  0  0  0  0  0
   -3.3906    3.1602    1.1453 C   0  0  0  0  0  0  0  0  0  0  0  0
   -3.7622    4.5005    1.2891 C   0  0  0  0  0  0  0  0  0  0  0  0
   -3.0221    5.5041    0.6609 C   0  0  0  0  0  0  0  0  0  0  0  0
   -1.9115    5.1690   -0.1165 C   0  0  0  0  0  0  0  0  0  0  0  0
   -1.5343    3.8303   -0.2632 C   0  0  0  0  0  0  0  0  0  0  0  0
    1.9328    0.9581   -4.0292 H   0  0  0  0  0  0  0  0  0  0  0  0
    2.7284    1.2508   -2.4501 H   0  0  0  0  0  0  0  0  0  0  0  0
    2.7449   -0.4125   -3.2072 H   0  0  0  0  0  0  0  0  0  0  0  0
    1.9603    0.0640   -0.6014 H   0  0  0  0  0  0  0  0  0  0  0  0
    2.6351   -1.9499    0.2939 H   0  0  0  0  0  0  0  0  0  0  0  0
    3.2628   -3.7562   -1.2174 H   0  0  0  0  0  0  0  0  0  0  0  0
    2.6202   -4.4255    0.3269 H   0  0  0  0  0  0  0  0  0  0  0  0
    1.7930   -5.4771   -1.5155 H   0  0  0  0  0  0  0  0  0  0  0  0
   -0.2225   -3.1517    0.1621 H   0  0  0  0  0  0  0  0  0  0  0  0
    0.0642   -3.4739    2.3243 H   0  0  0  0  0  0  0  0  0  0  0  0
   -0.9601   -1.2668    1.4789 H   0  0  0  0  0  0  0  0  0  0  0  0
    0.3950    0.2052    2.3180 H   0  0  0  0  0  0  0  0  0  0  0  0
   -0.9561   -0.8758   -0.9381 H   0  0  0  0  0  0  0  0  0  0  0  0
    0.2249    1.7248   -0.0139 H   0  0  0  0  0  0  0  0  0  0  0  0
   -3.9761    2.3986    1.6453 H   0  0  0  0  0  0  0  0  0  0  0  0
   -4.6251    4.7608    1.8886 H   0  0  0  0  0  0  0  0  0  0  0  0
   -3.3122    6.5409    0.7721 H   0  0  0  0  0  0  0  0  0  0  0  0
   -1.3454    5.9472   -0.6121 H   0  0  0  0  0  0  0  0  0  0  0  0
   -0.6876    3.5994   -0.8955 H   0  0  0  0  0  0  0  0  0  0  0  0
  1  2  1  0
  2  3  1  0
  3  4  1  0
  4  5  1  0
  5  6  1  0
  6  7  1  0
  5  8  1  0
  8  9  1  0
  8 10  1  0
 10 11  1  0
 10 12  1  0
 12 13  1  0
 13 14  1  0
 14 15  2  0
 14 16  1  0
 16 17  2  0
 17 18  1  0
 18 19  2  0
 19 20  1  0
 20 21  2  0
 12  3  1  0
 21 16  1  0
  1 22  1  0
  1 23  1  0
  1 24  1  0
  3 25  1  1
  5 26  1  1
  6 27  1  0
  6 28  1  0
  7 29  1  0
  8 30  1  6
  9 31  1  0
 10 32  1  1
 11 33  1  0
 12 34  1  6
 13 35  1  0
 17 36  1  0
 18 37  1  0
 19 38  1  0
 20 39  1  0
 21 40  1  0
M  END
>  <UniqueID>  (338) 
337

>  <SMILES>  (338) 
CO[C@@H]1O[C@H](CO)[C@@H](O)[C@@H](O)[C@H]1NC(=O)c1ccccc1

>  <Energy>  (338) 
41.738010462114296

>  <Genealogy>  (338) 
CO[C@@H]1O[C@H](CO)[C@@H](O)[C@@H](O)[C@H]1NC(=O)c1ccccc1 (3D coordinates assigned)
CO[C@@H]1O[C@H](CO)[C@@H](O)[C@@H](O)[C@H]1NC(=O)c1ccccc1 (nonaromatic ring conformer: 41.738010462114296 kcal/mol)

$$$$
ZINC000019898298
     RDKit          3D

 40 41  0  0  0  0  0  0  0  0999 V2000
    0.6898   -0.7680    4.1871 H   0  0  0  0  0  0  0  0  0  0  0  0
    0.8512   -0.3420    3.2837 O   0  0  0  0  0  0  0  0  0  0  0  0
   -0.1835    0.1820    2.5039 C   0  0  0  0  0  0  0  0  0  0  0  0
    0.0620    0.5953    1.2951 N   0  0  0  0  0  0  0  0  0  0  0  0
    1.3697    0.5406    0.6361 C   0  0  2  0  0  0  0  0  0  0  0  0
    2.1777    0.7205    1.3820 H   0  0  0  0  0  0  0  0  0  0  0  0
    1.4554    1.6528   -0.4263 C   0  0  2  0  0  0  0  0  0  0  0  0
    1.4817    2.6425    0.0893 H   0  0  0  0  0  0  0  0  0  0  0  0
    0.3479    1.5936   -1.2935 O   0  0  0  0  0  0  0  0  0  0  0  0
   -0.3869    2.1048   -0.8639 H   0  0  0  0  0  0  0  0  0  0  0  0
    2.7537    1.5046   -1.2412 C   0  0  2  0  0  0  0  0  0  0  0  0
    3.6221    1.7253   -0.5755 H   0  0  0  0  0  0  0  0  0  0  0  0
    2.7414    2.4057   -2.3188 O   0  0  0  0  0  0  0  0  0  0  0  0
    2.9250    3.3056   -1.9414 H   0  0  0  0  0  0  0  0  0  0  0  0
    2.8913    0.0511   -1.7591 C   0  0  1  0  0  0  0  0  0  0  0  0
    2.0706   -0.1760   -2.4800 H   0  0  0  0  0  0  0  0  0  0  0  0
    4.2205   -0.1596   -2.4996 C   0  0  0  0  0  0  0  0  0  0  0  0
    5.0778    0.1492   -1.8554 H   0  0  0  0  0  0  0  0  0  0  0  0
    4.3439   -1.2437   -2.7098 H   0  0  0  0  0  0  0  0  0  0  0  0
    4.2212    0.5197   -3.7282 O   0  0  0  0  0  0  0  0  0  0  0  0
    4.8090    1.3128   -3.6241 H   0  0  0  0  0  0  0  0  0  0  0  0
    2.8541   -0.8578   -0.6712 O   0  0  0  0  0  0  0  0  0  0  0  0
    1.5880   -0.8349   -0.0310 C   0  0  1  0  0  0  0  0  0  0  0  0
    0.7614   -1.0008   -0.7678 H   0  0  0  0  0  0  0  0  0  0  0  0
    1.5656   -1.8345    0.9698 O   0  0  0  0  0  0  0  0  0  0  0  0
    1.3846   -3.1053    0.3842 C   0  0  0  0  0  0  0  0  0  0  0  0
    1.4533   -3.8740    1.1809 H   0  0  0  0  0  0  0  0  0  0  0  0
    0.3761   -3.1896   -0.0773 H   0  0  0  0  0  0  0  0  0  0  0  0
    2.1754   -3.3276   -0.3664 H   0  0  0  0  0  0  0  0  0  0  0  0
   -1.5658    0.2738    3.0349 C   0  0  0  0  0  0  0  0  0  0  0  0
   -1.8037    0.3736    4.4189 C   0  0  0  0  0  0  0  0  0  0  0  0
   -0.9856    0.4090    5.1254 H   0  0  0  0  0  0  0  0  0  0  0  0
   -3.1110    0.4629    4.9079 C   0  0  0  0  0  0  0  0  0  0  0  0
   -3.2848    0.5423    5.9734 H   0  0  0  0  0  0  0  0  0  0  0  0
   -4.1927    0.4581    4.0249 C   0  0  0  0  0  0  0  0  0  0  0  0
   -5.2032    0.5279    4.4063 H   0  0  0  0  0  0  0  0  0  0  0  0
   -3.9698    0.3691    2.6495 C   0  0  0  0  0  0  0  0  0  0  0  0
   -4.8088    0.3679    1.9655 H   0  0  0  0  0  0  0  0  0  0  0  0
   -2.6653    0.2807    2.1544 C   0  0  0  0  0  0  0  0  0  0  0  0
   -2.5172    0.2060    1.0841 H   0  0  0  0  0  0  0  0  0  0  0  0
  1  2  1  0
  2  3  1  0
  3  4  2  0
  4  5  1  0
  5  6  1  1
  5  7  1  0
  7  8  1  1
  7  9  1  0
  9 10  1  0
  7 11  1  0
 11 12  1  1
 11 13  1  0
 13 14  1  0
 11 15  1  0
 15 16  1  6
 15 17  1  0
 17 18  1  0
 17 19  1  0
 17 20  1  0
 20 21  1  0
 15 22  1  0
 22 23  1  0
 23 24  1  6
 23 25  1  0
 25 26  1  0
 26 27  1  0
 26 28  1  0
 26 29  1  0
  3 30  1  0
 30 31  2  0
 31 32  1  0
 31 33  1  0
 33 34  1  0
 33 35  2  0
 35 36  1  0
 35 37  1  0
 37 38  1  0
 37 39  2  0
 39 40  1  0
 23  5  1  0
 39 30  1  0
M  END
>  <UniqueID>  (339) 
338

>  <SMILES>  (339) 
CO[C@@H]1O[C@H](CO)[C@@H](O)[C@@H](O)[C@H]1/N=C(/O)c1ccccc1

>  <Energy>  (339) 
44.03981716778473

>  <Genealogy>  (339) 
CO[C@@H]1O[C@H](CO)[C@@H](O)[C@@H](O)[C@H]1N=C(O)c1ccccc1 (tautomer)
CO[C@@H]1O[C@H](CO)[C@@H](O)[C@@H](O)[C@H]1/N=C(/O)c1ccccc1 (cis-trans isomerization)
CO[C@@H]1O[C@H](CO)[C@@H](O)[C@@H](O)[C@H]1/N=C(/O)c1ccccc1 (3D coordinates assigned)
CO[C@@H]1O[C@H](CO)[C@@H](O)[C@@H](O)[C@H]1/N=C(/O)c1ccccc1 (nonaromatic ring conformer: 44.03981716778473 kcal/mol)

$$$$
ZINC000019898298
     RDKit          3D

 40 41  0  0  0  0  0  0  0  0999 V2000
    0.5021    1.7645    4.1862 H   0  0  0  0  0  0  0  0  0  0  0  0
    0.8181    1.3338    3.3270 O   0  0  0  0  0  0  0  0  0  0  0  0
   -0.0466    0.6564    2.4626 C   0  0  0  0  0  0  0  0  0  0  0  0
    0.4350    0.0086    1.4425 N   0  0  0  0  0  0  0  0  0  0  0  0
    1.8551   -0.0592    1.0816 C   0  0  2  0  0  0  0  0  0  0  0  0
    2.4738   -0.0859    2.0074 H   0  0  0  0  0  0  0  0  0  0  0  0
    2.2726    1.1508    0.2283 C   0  0  2  0  0  0  0  0  0  0  0  0
    3.3788    1.1094    0.0957 H   0  0  0  0  0  0  0  0  0  0  0  0
    1.9447    2.3476    0.8863 O   0  0  0  0  0  0  0  0  0  0  0  0
    2.4417    3.0740    0.4267 H   0  0  0  0  0  0  0  0  0  0  0  0
    1.5997    1.0948   -1.1526 C   0  0  2  0  0  0  0  0  0  0  0  0
    2.0624    1.8846   -1.7906 H   0  0  0  0  0  0  0  0  0  0  0  0
    0.2254    1.3617   -1.0204 O   0  0  0  0  0  0  0  0  0  0  0  0
   -0.1029    1.6403   -1.9151 H   0  0  0  0  0  0  0  0  0  0  0  0
    1.8047   -0.2911   -1.8154 C   0  0  1  0  0  0  0  0  0  0  0  0
    1.0811   -0.3420   -2.6587 H   0  0  0  0  0  0  0  0  0  0  0  0
    3.1950   -0.4570   -2.4678 C   0  0  0  0  0  0  0  0  0  0  0  0
    3.3460   -1.5185   -2.7696 H   0  0  0  0  0  0  0  0  0  0  0  0
    4.0027   -0.1921   -1.7576 H   0  0  0  0  0  0  0  0  0  0  0  0
    3.3179    0.3794   -3.5875 O   0  0  0  0  0  0  0  0  0  0  0  0
    2.8252   -0.0602   -4.3290 H   0  0  0  0  0  0  0  0  0  0  0  0
    1.4661   -1.3814   -0.9619 O   0  0  0  0  0  0  0  0  0  0  0  0
    2.1132   -1.3639    0.3077 C   0  0  1  0  0  0  0  0  0  0  0  0
    1.6488   -2.1688    0.9271 H   0  0  0  0  0  0  0  0  0  0  0  0
    3.5071   -1.5916    0.1878 O   0  0  0  0  0  0  0  0  0  0  0  0
    3.7599   -2.9575   -0.0614 C   0  0  0  0  0  0  0  0  0  0  0  0
    4.8411   -3.0833   -0.2746 H   0  0  0  0  0  0  0  0  0  0  0  0
    3.5182   -3.5722    0.8332 H   0  0  0  0  0  0  0  0  0  0  0  0
    3.1975   -3.3268   -0.9476 H   0  0  0  0  0  0  0  0  0  0  0  0
   -1.5115    0.6531    2.6980 C   0  0  0  0  0  0  0  0  0  0  0  0
   -2.3085   -0.3967    2.2007 C   0  0  0  0  0  0  0  0  0  0  0  0
   -1.8624   -1.2196    1.6560 H   0  0  0  0  0  0  0  0  0  0  0  0
   -3.6901   -0.4009    2.4146 C   0  0  0  0  0  0  0  0  0  0  0  0
   -4.2935   -1.2147    2.0336 H   0  0  0  0  0  0  0  0  0  0  0  0
   -4.2932    0.6428    3.1191 C   0  0  0  0  0  0  0  0  0  0  0  0
   -5.3632    0.6386    3.2824 H   0  0  0  0  0  0  0  0  0  0  0  0
   -3.5162    1.6952    3.6075 C   0  0  0  0  0  0  0  0  0  0  0  0
   -3.9867    2.5091    4.1439 H   0  0  0  0  0  0  0  0  0  0  0  0
   -2.1335    1.7046    3.3976 C   0  0  0  0  0  0  0  0  0  0  0  0
   -1.5630    2.5483    3.7615 H   0  0  0  0  0  0  0  0  0  0  0  0
  1  2  1  0
  2  3  1  0
  3  4  2  0
  4  5  1  0
  5  6  1  1
  5  7  1  0
  7  8  1  6
  7  9  1  0
  9 10  1  0
  7 11  1  0
 11 12  1  6
 11 13  1  0
 13 14  1  0
 11 15  1  0
 15 16  1  6
 15 17  1  0
 17 18  1  0
 17 19  1  0
 17 20  1  0
 20 21  1  0
 15 22  1  0
 22 23  1  0
 23 24  1  1
 23 25  1  0
 25 26  1  0
 26 27  1  0
 26 28  1  0
 26 29  1  0
  3 30  1  0
 30 31  2  0
 31 32  1  0
 31 33  1  0
 33 34  1  0
 33 35  2  0
 35 36  1  0
 35 37  1  0
 37 38  1  0
 37 39  2  0
 39 40  1  0
 23  5  1  0
 39 30  1  0
M  END
>  <UniqueID>  (340) 
339

>  <SMILES>  (340) 
CO[C@@H]1O[C@H](CO)[C@@H](O)[C@@H](O)[C@H]1/N=C(/O)c1ccccc1

>  <Energy>  (340) 
50.16365254801416

>  <Genealogy>  (340) 
CO[C@@H]1O[C@H](CO)[C@@H](O)[C@@H](O)[C@H]1N=C(O)c1ccccc1 (tautomer)
CO[C@@H]1O[C@H](CO)[C@@H](O)[C@@H](O)[C@H]1/N=C(/O)c1ccccc1 (cis-trans isomerization)
CO[C@@H]1O[C@H](CO)[C@@H](O)[C@@H](O)[C@H]1/N=C(/O)c1ccccc1 (3D coordinates assigned)
CO[C@@H]1O[C@H](CO)[C@@H](O)[C@@H](O)[C@H]1/N=C(/O)c1ccccc1 (nonaromatic ring conformer: 50.16365254801416 kcal/mol)

$$$$
ZINC000032106887
     RDKit          3D

 39 41  0  0  0  0  0  0  0  0999 V2000
   -1.4840    2.6997   -1.7666 H   0  0  0  0  0  0  0  0  0  0  0  0
   -0.9584    1.8763   -1.5906 O   0  0  0  0  0  0  0  0  0  0  0  0
   -1.2384    1.4838   -0.2689 C   0  0  2  0  0  0  0  0  0  0  0  0
   -1.3541    2.3846    0.3797 H   0  0  0  0  0  0  0  0  0  0  0  0
   -0.0784    0.6482    0.2821 C   0  0  2  0  0  0  0  0  0  0  0  0
   -0.2865    0.4638    1.3642 H   0  0  0  0  0  0  0  0  0  0  0  0
    1.1473    1.3381    0.1390 O   0  0  0  0  0  0  0  0  0  0  0  0
    2.2000    0.5501    0.6790 C   0  0  2  0  0  0  0  0  0  0  0  0
    2.0095    0.3335    1.7590 H   0  0  0  0  0  0  0  0  0  0  0  0
    3.4814    1.3335    0.5691 C   0  0  0  0  0  0  0  0  0  0  0  0
    3.9472    1.7464   -0.6918 C   0  0  0  0  0  0  0  0  0  0  0  0
    3.3884    1.5044   -1.5877 H   0  0  0  0  0  0  0  0  0  0  0  0
    5.1362    2.4737   -0.8021 C   0  0  0  0  0  0  0  0  0  0  0  0
    5.4889    2.7887   -1.7757 H   0  0  0  0  0  0  0  0  0  0  0  0
    5.8698    2.7945    0.3430 C   0  0  0  0  0  0  0  0  0  0  0  0
    6.7900    3.3576    0.2559 H   0  0  0  0  0  0  0  0  0  0  0  0
    5.4156    2.3883    1.6005 C   0  0  0  0  0  0  0  0  0  0  0  0
    5.9851    2.6374    2.4866 H   0  0  0  0  0  0  0  0  0  0  0  0
    4.2269    1.6606    1.7161 C   0  0  0  0  0  0  0  0  0  0  0  0
    3.8911    1.3545    2.6990 H   0  0  0  0  0  0  0  0  0  0  0  0
    2.3543   -0.6632   -0.0445 O   0  0  0  0  0  0  0  0  0  0  0  0
    1.1860   -1.4522    0.0735 C   0  0  0  0  0  0  0  0  0  0  0  0
    1.0223   -1.7585    1.1323 H   0  0  0  0  0  0  0  0  0  0  0  0
    1.3230   -2.3796   -0.5219 H   0  0  0  0  0  0  0  0  0  0  0  0
   -0.0182   -0.6880   -0.4692 C   0  0  1  0  0  0  0  0  0  0  0  0
    0.1675   -0.5172   -1.5553 H   0  0  0  0  0  0  0  0  0  0  0  0
   -1.2088   -1.4295   -0.2668 O   0  0  0  0  0  0  0  0  0  0  0  0
   -2.3276   -0.7585   -0.8411 C   0  0  2  0  0  0  0  0  0  0  0  0
   -3.2420   -1.3442   -0.5851 H   0  0  0  0  0  0  0  0  0  0  0  0
   -2.1970   -0.6441   -2.2502 O   0  0  0  0  0  0  0  0  0  0  0  0
   -2.3680   -1.9058   -2.8578 C   0  0  0  0  0  0  0  0  0  0  0  0
   -3.4012   -2.2874   -2.7032 H   0  0  0  0  0  0  0  0  0  0  0  0
   -2.2124   -1.7948   -3.9504 H   0  0  0  0  0  0  0  0  0  0  0  0
   -1.6212   -2.6421   -2.4868 H   0  0  0  0  0  0  0  0  0  0  0  0
   -2.5332    0.6384   -0.2058 C   0  0  2  0  0  0  0  0  0  0  0  0
   -2.7969    0.4842    0.8656 H   0  0  0  0  0  0  0  0  0  0  0  0
   -3.6453    1.3237   -0.8595 N   0  0  0  0  0  0  0  0  0  0  0  0
   -4.0778    2.3919   -0.4249 N   0  0  0  0  0  4  0  0  0  0  0  0
   -4.5095    3.4588    0.0088 N   0  0  0  0  0  2  0  0  0  0  0  0
  1  2  1  0
  2  3  1  0
  3  4  1  1
  3  5  1  0
  5  6  1  1
  5  7  1  0
  7  8  1  0
  8  9  1  1
  8 10  1  0
 10 11  2  0
 11 12  1  0
 11 13  1  0
 13 14  1  0
 13 15  2  0
 15 16  1  0
 15 17  1  0
 17 18  1  0
 17 19  2  0
 19 20  1  0
  8 21  1  0
 21 22  1  0
 22 23  1  0
 22 24  1  0
 22 25  1  0
 25 26  1  6
 25 27  1  0
 27 28  1  0
 28 29  1  6
 28 30  1  0
 30 31  1  0
 31 32  1  0
 31 33  1  0
 31 34  1  0
 28 35  1  0
 35 36  1  1
 35 37  1  0
 37 38  2  0
 38 39  2  0
 35  3  1  0
 25  5  1  0
 19 10  1  0
M  CHG  2  38   1  39  -1
M  END
>  <UniqueID>  (341) 
340

>  <SMILES>  (341) 
CO[C@H]1O[C@@H]2CO[C@@H](c3ccccc3)O[C@H]2[C@@H](O)[C@H]1N=[N+]=[N-]

>  <Energy>  (341) 
48.67850952369678

>  <Genealogy>  (341) 
CO[C@H]1O[C@@H]2CO[C@@H](c3ccccc3)O[C@H]2[C@@H](O)[C@H]1N=[N+]=[N-] (cis-trans isomerization)
CO[C@H]1O[C@@H]2CO[C@@H](c3ccccc3)O[C@H]2[C@@H](O)[C@H]1N=[N+]=[N-] (3D coordinates assigned)
CO[C@H]1O[C@@H]2CO[C@@H](c3ccccc3)O[C@H]2[C@@H](O)[C@H]1N=[N+]=[N-] (nonaromatic ring conformer: 48.67850952369678 kcal/mol)

$$$$
ZINC000032106887
     RDKit          3D

 39 41  0  0  0  0  0  0  0  0999 V2000
   -0.3897    3.2155   -0.9604 H   0  0  0  0  0  0  0  0  0  0  0  0
   -0.9003    2.4037   -1.2166 O   0  0  0  0  0  0  0  0  0  0  0  0
   -1.2768    1.7635   -0.0217 C   0  0  2  0  0  0  0  0  0  0  0  0
   -1.5995    2.5237    0.7283 H   0  0  0  0  0  0  0  0  0  0  0  0
   -0.1078    0.9525    0.5535 C   0  0  2  0  0  0  0  0  0  0  0  0
   -0.4310    0.5613    1.5490 H   0  0  0  0  0  0  0  0  0  0  0  0
    1.0452    1.7474    0.7045 O   0  0  0  0  0  0  0  0  0  0  0  0
    2.1039    1.0087    1.3180 C   0  0  2  0  0  0  0  0  0  0  0  0
    2.1626    1.3683    2.3682 H   0  0  0  0  0  0  0  0  0  0  0  0
    3.4305    1.3237    0.6620 C   0  0  0  0  0  0  0  0  0  0  0  0
    4.6197    1.1828    1.3980 C   0  0  0  0  0  0  0  0  0  0  0  0
    4.5879    0.8770    2.4366 H   0  0  0  0  0  0  0  0  0  0  0  0
    5.8573    1.4343    0.7979 C   0  0  0  0  0  0  0  0  0  0  0  0
    6.7682    1.3286    1.3728 H   0  0  0  0  0  0  0  0  0  0  0  0
    5.9202    1.8169   -0.5442 C   0  0  0  0  0  0  0  0  0  0  0  0
    6.8792    2.0094   -1.0076 H   0  0  0  0  0  0  0  0  0  0  0  0
    4.7459    1.9439   -1.2901 C   0  0  0  0  0  0  0  0  0  0  0  0
    4.7965    2.2319   -2.3322 H   0  0  0  0  0  0  0  0  0  0  0  0
    3.5059    1.6940   -0.6945 C   0  0  0  0  0  0  0  0  0  0  0  0
    2.6094    1.7850   -1.2945 H   0  0  0  0  0  0  0  0  0  0  0  0
    1.8983   -0.4047    1.3808 O   0  0  0  0  0  0  0  0  0  0  0  0
    1.4590   -0.9337    0.1416 C   0  0  0  0  0  0  0  0  0  0  0  0
    1.2314   -2.0109    0.2892 H   0  0  0  0  0  0  0  0  0  0  0  0
    2.2841   -0.8917   -0.6035 H   0  0  0  0  0  0  0  0  0  0  0  0
    0.2116   -0.2080   -0.3898 C   0  0  1  0  0  0  0  0  0  0  0  0
    0.4773    0.1847   -1.3992 H   0  0  0  0  0  0  0  0  0  0  0  0
   -0.8970   -1.0889   -0.4730 O   0  0  0  0  0  0  0  0  0  0  0  0
   -2.0132   -0.4445   -1.0842 C   0  0  2  0  0  0  0  0  0  0  0  0
   -2.8764   -1.1500   -1.0435 H   0  0  0  0  0  0  0  0  0  0  0  0
   -1.7336   -0.0899   -2.4303 O   0  0  0  0  0  0  0  0  0  0  0  0
   -1.6809   -1.2466   -3.2363 C   0  0  0  0  0  0  0  0  0  0  0  0
   -1.4147   -0.9441   -4.2697 H   0  0  0  0  0  0  0  0  0  0  0  0
   -2.6720   -1.7498   -3.2789 H   0  0  0  0  0  0  0  0  0  0  0  0
   -0.8992   -1.9549   -2.8833 H   0  0  0  0  0  0  0  0  0  0  0  0
   -2.4563    0.8046   -0.2803 C   0  0  2  0  0  0  0  0  0  0  0  0
   -2.8319    0.4523    0.7095 H   0  0  0  0  0  0  0  0  0  0  0  0
   -3.5262    1.5040   -0.9879 N   0  0  0  0  0  0  0  0  0  0  0  0
   -4.6429    1.6351   -0.4856 N   0  0  0  0  0  4  0  0  0  0  0  0
   -5.7582    1.7662    0.0159 N   0  0  0  0  0  2  0  0  0  0  0  0
  1  2  1  0
  2  3  1  0
  3  4  1  1
  3  5  1  0
  5  6  1  1
  5  7  1  0
  7  8  1  0
  8  9  1  1
  8 10  1  0
 10 11  2  0
 11 12  1  0
 11 13  1  0
 13 14  1  0
 13 15  2  0
 15 16  1  0
 15 17  1  0
 17 18  1  0
 17 19  2  0
 19 20  1  0
  8 21  1  0
 21 22  1  0
 22 23  1  0
 22 24  1  0
 22 25  1  0
 25 26  1  6
 25 27  1  0
 27 28  1  0
 28 29  1  6
 28 30  1  0
 30 31  1  0
 31 32  1  0
 31 33  1  0
 31 34  1  0
 28 35  1  0
 35 36  1  1
 35 37  1  0
 37 38  2  0
 38 39  2  0
 35  3  1  0
 25  5  1  0
 19 10  1  0
M  CHG  2  38   1  39  -1
M  END
>  <UniqueID>  (342) 
341

>  <SMILES>  (342) 
CO[C@H]1O[C@@H]2CO[C@@H](c3ccccc3)O[C@H]2[C@@H](O)[C@H]1N=[N+]=[N-]

>  <Energy>  (342) 
58.18770510021719

>  <Genealogy>  (342) 
CO[C@H]1O[C@@H]2CO[C@@H](c3ccccc3)O[C@H]2[C@@H](O)[C@H]1N=[N+]=[N-] (cis-trans isomerization)
CO[C@H]1O[C@@H]2CO[C@@H](c3ccccc3)O[C@H]2[C@@H](O)[C@H]1N=[N+]=[N-] (3D coordinates assigned)
CO[C@H]1O[C@@H]2CO[C@@H](c3ccccc3)O[C@H]2[C@@H](O)[C@H]1N=[N+]=[N-] (nonaromatic ring conformer: 58.18770510021719 kcal/mol)

$$$$
ZINC000032106887
     RDKit          3D

 39 41  0  0  0  0  0  0  0  0999 V2000
   -1.8148    3.2102    1.5300 H   0  0  0  0  0  0  0  0  0  0  0  0
   -1.8195    2.8311    0.6122 O   0  0  0  0  0  0  0  0  0  0  0  0
   -1.7999    1.4331    0.7516 C   0  0  2  0  0  0  0  0  0  0  0  0
   -2.5651    1.1437    1.5119 H   0  0  0  0  0  0  0  0  0  0  0  0
   -0.4182    0.9295    1.2494 C   0  0  2  0  0  0  0  0  0  0  0  0
   -0.5509    0.6671    2.3267 H   0  0  0  0  0  0  0  0  0  0  0  0
    0.5854    1.9205    1.1509 O   0  0  0  0  0  0  0  0  0  0  0  0
    1.8850    1.4087    1.4737 C   0  0  2  0  0  0  0  0  0  0  0  0
    2.2966    2.0842    2.2531 H   0  0  0  0  0  0  0  0  0  0  0  0
    2.8382    1.4979    0.2956 C   0  0  0  0  0  0  0  0  0  0  0  0
    4.1832    1.1302    0.4749 C   0  0  0  0  0  0  0  0  0  0  0  0
    4.5319    0.7883    1.4417 H   0  0  0  0  0  0  0  0  0  0  0  0
    5.0852    1.1972   -0.5911 C   0  0  0  0  0  0  0  0  0  0  0  0
    6.1181    0.9091   -0.4441 H   0  0  0  0  0  0  0  0  0  0  0  0
    4.6554    1.6354   -1.8455 C   0  0  0  0  0  0  0  0  0  0  0  0
    5.3549    1.6863   -2.6699 H   0  0  0  0  0  0  0  0  0  0  0  0
    3.3234    2.0098   -2.0356 C   0  0  0  0  0  0  0  0  0  0  0  0
    2.9921    2.3512   -3.0079 H   0  0  0  0  0  0  0  0  0  0  0  0
    2.4172    1.9455   -0.9728 C   0  0  0  0  0  0  0  0  0  0  0  0
    1.3922    2.2436   -1.1493 H   0  0  0  0  0  0  0  0  0  0  0  0
    1.8797    0.0939    2.0392 O   0  0  0  0  0  0  0  0  0  0  0  0
    1.2668   -0.8679    1.1884 C   0  0  0  0  0  0  0  0  0  0  0  0
    0.9704   -1.7348    1.8166 H   0  0  0  0  0  0  0  0  0  0  0  0
    2.0073   -1.2410    0.4471 H   0  0  0  0  0  0  0  0  0  0  0  0
    0.0290   -0.3117    0.4751 C   0  0  1  0  0  0  0  0  0  0  0  0
    0.3557   -0.0407   -0.5548 H   0  0  0  0  0  0  0  0  0  0  0  0
   -1.0255   -1.2475    0.4261 O   0  0  0  0  0  0  0  0  0  0  0  0
   -2.0786   -0.8080   -0.4387 C   0  0  2  0  0  0  0  0  0  0  0  0
   -3.0343   -1.1562    0.0206 H   0  0  0  0  0  0  0  0  0  0  0  0
   -1.9161   -1.3778   -1.7267 O   0  0  0  0  0  0  0  0  0  0  0  0
   -2.2162   -2.7564   -1.6954 C   0  0  0  0  0  0  0  0  0  0  0  0
   -2.0301   -3.1805   -2.7033 H   0  0  0  0  0  0  0  0  0  0  0  0
   -3.2884   -2.9265   -1.4534 H   0  0  0  0  0  0  0  0  0  0  0  0
   -1.5637   -3.3010   -0.9779 H   0  0  0  0  0  0  0  0  0  0  0  0
   -2.2326    0.7466   -0.5652 C   0  0  2  0  0  0  0  0  0  0  0  0
   -3.3068    0.9739   -0.7536 H   0  0  0  0  0  0  0  0  0  0  0  0
   -1.4559    1.2457   -1.7035 N   0  0  0  0  0  0  0  0  0  0  0  0
   -1.6130    2.3856   -2.1426 N   0  0  0  0  0  4  0  0  0  0  0  0
   -1.7688    3.5237   -2.5820 N   0  0  0  0  0  2  0  0  0  0  0  0
  1  2  1  0
  2  3  1  0
  3  4  1  1
  3  5  1  0
  5  6  1  1
  5  7  1  0
  7  8  1  0
  8  9  1  1
  8 10  1  0
 10 11  2  0
 11 12  1  0
 11 13  1  0
 13 14  1  0
 13 15  2  0
 15 16  1  0
 15 17  1  0
 17 18  1  0
 17 19  2  0
 19 20  1  0
  8 21  1  0
 21 22  1  0
 22 23  1  0
 22 24  1  0
 22 25  1  0
 25 26  1  6
 25 27  1  0
 27 28  1  0
 28 29  1  1
 28 30  1  0
 30 31  1  0
 31 32  1  0
 31 33  1  0
 31 34  1  0
 28 35  1  0
 35 36  1  6
 35 37  1  0
 37 38  2  0
 38 39  2  0
 35  3  1  0
 25  5  1  0
 19 10  1  0
M  CHG  2  38   1  39  -1
M  END
>  <UniqueID>  (343) 
342

>  <SMILES>  (343) 
CO[C@H]1O[C@@H]2CO[C@@H](c3ccccc3)O[C@H]2[C@@H](O)[C@H]1N=[N+]=[N-]

>  <Energy>  (343) 
71.77479063011245

>  <Genealogy>  (343) 
CO[C@H]1O[C@@H]2CO[C@@H](c3ccccc3)O[C@H]2[C@@H](O)[C@H]1N=[N+]=[N-] (cis-trans isomerization)
CO[C@H]1O[C@@H]2CO[C@@H](c3ccccc3)O[C@H]2[C@@H](O)[C@H]1N=[N+]=[N-] (3D coordinates assigned)
CO[C@H]1O[C@@H]2CO[C@@H](c3ccccc3)O[C@H]2[C@@H](O)[C@H]1N=[N+]=[N-] (nonaromatic ring conformer: 71.77479063011245 kcal/mol)

$$$$
ZINC000032106889
     RDKit          3D

 39 41  0  0  0  0  0  0  0  0999 V2000
   -3.6499   -0.2487   -1.3385 H   0  0  0  0  0  0  0  0  0  0  0  0
   -2.8924   -0.2300   -0.6972 O   0  0  0  0  0  0  0  0  0  0  0  0
   -2.0338    0.8079   -1.1039 C   0  0  2  0  0  0  0  0  0  0  0  0
   -2.0040    0.8614   -2.2184 H   0  0  0  0  0  0  0  0  0  0  0  0
   -0.6124    0.5293   -0.6026 C   0  0  2  0  0  0  0  0  0  0  0  0
    0.0639    1.2905   -1.0583 H   0  0  0  0  0  0  0  0  0  0  0  0
   -0.1934   -0.7591   -1.0164 O   0  0  0  0  0  0  0  0  0  0  0  0
    0.9808   -1.2000   -0.3346 C   0  0  1  0  0  0  0  0  0  0  0  0
    0.6788   -1.9871    0.3959 H   0  0  0  0  0  0  0  0  0  0  0  0
    1.9195   -1.8073   -1.3425 C   0  0  0  0  0  0  0  0  0  0  0  0
    2.3503   -3.1398   -1.2146 C   0  0  0  0  0  0  0  0  0  0  0  0
    2.0088   -3.7537   -0.3904 H   0  0  0  0  0  0  0  0  0  0  0  0
    3.2282   -3.6899   -2.1540 C   0  0  0  0  0  0  0  0  0  0  0  0
    3.5556   -4.7165   -2.0515 H   0  0  0  0  0  0  0  0  0  0  0  0
    3.6847   -2.9162   -3.2244 C   0  0  0  0  0  0  0  0  0  0  0  0
    4.3643   -3.3438   -3.9501 H   0  0  0  0  0  0  0  0  0  0  0  0
    3.2651   -1.5900   -3.3571 C   0  0  0  0  0  0  0  0  0  0  0  0
    3.6206   -0.9910   -4.1855 H   0  0  0  0  0  0  0  0  0  0  0  0
    2.3875   -1.0355   -2.4205 C   0  0  0  0  0  0  0  0  0  0  0  0
    2.0720   -0.0055   -2.5339 H   0  0  0  0  0  0  0  0  0  0  0  0
    1.6659   -0.1552    0.3442 O   0  0  0  0  0  0  0  0  0  0  0  0
    0.8636    0.3493    1.3966 C   0  0  0  0  0  0  0  0  0  0  0  0
    1.3459    1.2757    1.7754 H   0  0  0  0  0  0  0  0  0  0  0  0
    0.8497   -0.3734    2.2430 H   0  0  0  0  0  0  0  0  0  0  0  0
   -0.5704    0.6610    0.9301 C   0  0  1  0  0  0  0  0  0  0  0  0
   -1.2402   -0.1022    1.3908 H   0  0  0  0  0  0  0  0  0  0  0  0
   -0.9455    1.9682    1.3341 O   0  0  0  0  0  0  0  0  0  0  0  0
   -2.2974    2.2485    0.9861 C   0  0  2  0  0  0  0  0  0  0  0  0
   -2.5021    3.3089    1.2654 H   0  0  0  0  0  0  0  0  0  0  0  0
   -3.1978    1.3794    1.6564 O   0  0  0  0  0  0  0  0  0  0  0  0
   -3.2693    1.7158    3.0245 C   0  0  0  0  0  0  0  0  0  0  0  0
   -3.9342    0.9875    3.5323 H   0  0  0  0  0  0  0  0  0  0  0  0
   -2.2715    1.6553    3.5127 H   0  0  0  0  0  0  0  0  0  0  0  0
   -3.7106    2.7272    3.1642 H   0  0  0  0  0  0  0  0  0  0  0  0
   -2.5094    2.1652   -0.5469 C   0  0  2  0  0  0  0  0  0  0  0  0
   -1.8969    2.9628   -1.0264 H   0  0  0  0  0  0  0  0  0  0  0  0
   -3.9107    2.3872   -0.8956 N   0  0  0  0  0  0  0  0  0  0  0  0
   -4.4632    3.4627   -0.6614 N   0  0  0  0  0  4  0  0  0  0  0  0
   -5.0150    4.5366   -0.4271 N   0  0  0  0  0  2  0  0  0  0  0  0
  1  2  1  0
  2  3  1  0
  3  4  1  6
  3  5  1  0
  5  6  1  6
  5  7  1  0
  7  8  1  0
  8  9  1  1
  8 10  1  0
 10 11  2  0
 11 12  1  0
 11 13  1  0
 13 14  1  0
 13 15  2  0
 15 16  1  0
 15 17  1  0
 17 18  1  0
 17 19  2  0
 19 20  1  0
  8 21  1  0
 21 22  1  0
 22 23  1  0
 22 24  1  0
 22 25  1  0
 25 26  1  1
 25 27  1  0
 27 28  1  0
 28 29  1  1
 28 30  1  0
 30 31  1  0
 31 32  1  0
 31 33  1  0
 31 34  1  0
 28 35  1  0
 35 36  1  6
 35 37  1  0
 37 38  2  0
 38 39  2  0
 35  3  1  0
 25  5  1  0
 19 10  1  0
M  CHG  2  38   1  39  -1
M  END
>  <UniqueID>  (344) 
343

>  <SMILES>  (344) 
CO[C@H]1O[C@@H]2CO[C@H](c3ccccc3)O[C@H]2[C@@H](O)[C@H]1N=[N+]=[N-]

>  <Energy>  (344) 
56.57042815659804

>  <Genealogy>  (344) 
CO[C@H]1O[C@@H]2CO[C@H](c3ccccc3)O[C@H]2[C@@H](O)[C@H]1N=[N+]=[N-] (cis-trans isomerization)
CO[C@H]1O[C@@H]2CO[C@H](c3ccccc3)O[C@H]2[C@@H](O)[C@H]1N=[N+]=[N-] (3D coordinates assigned)
CO[C@H]1O[C@@H]2CO[C@H](c3ccccc3)O[C@H]2[C@@H](O)[C@H]1N=[N+]=[N-] (nonaromatic ring conformer: 56.57042815659804 kcal/mol)

$$$$
ZINC000032106889
     RDKit          3D

 39 41  0  0  0  0  0  0  0  0999 V2000
   -0.3482    2.2973   -2.5847 H   0  0  0  0  0  0  0  0  0  0  0  0
   -1.2010    2.1256   -2.1060 O   0  0  0  0  0  0  0  0  0  0  0  0
   -0.9271    2.2523   -0.7333 C   0  0  2  0  0  0  0  0  0  0  0  0
   -0.3261    3.1798   -0.5727 H   0  0  0  0  0  0  0  0  0  0  0  0
   -0.1024    1.0470   -0.2057 C   0  0  2  0  0  0  0  0  0  0  0  0
    0.9273    1.4343   -0.0153 H   0  0  0  0  0  0  0  0  0  0  0  0
   -0.0076   -0.0024   -1.1536 O   0  0  0  0  0  0  0  0  0  0  0  0
    0.5291   -1.1995   -0.5802 C   0  0  1  0  0  0  0  0  0  0  0  0
   -0.3136   -1.9108   -0.4146 H   0  0  0  0  0  0  0  0  0  0  0  0
    1.4955   -1.8077   -1.5605 C   0  0  0  0  0  0  0  0  0  0  0  0
    2.6090   -1.0697   -1.9980 C   0  0  0  0  0  0  0  0  0  0  0  0
    2.7729   -0.0614   -1.6380 H   0  0  0  0  0  0  0  0  0  0  0  0
    3.5162   -1.6302   -2.9023 C   0  0  0  0  0  0  0  0  0  0  0  0
    4.3708   -1.0563   -3.2366 H   0  0  0  0  0  0  0  0  0  0  0  0
    3.3214   -2.9306   -3.3746 C   0  0  0  0  0  0  0  0  0  0  0  0
    4.0246   -3.3631   -4.0745 H   0  0  0  0  0  0  0  0  0  0  0  0
    2.2196   -3.6735   -2.9422 C   0  0  0  0  0  0  0  0  0  0  0  0
    2.0709   -4.6814   -3.3076 H   0  0  0  0  0  0  0  0  0  0  0  0
    1.3096   -3.1173   -2.0376 C   0  0  0  0  0  0  0  0  0  0  0  0
    0.4628   -3.7084   -1.7117 H   0  0  0  0  0  0  0  0  0  0  0  0
    1.2140   -0.9824    0.6518 O   0  0  0  0  0  0  0  0  0  0  0  0
    0.3226   -0.5168    1.6564 C   0  0  0  0  0  0  0  0  0  0  0  0
    0.9305   -0.0461    2.4581 H   0  0  0  0  0  0  0  0  0  0  0  0
   -0.2133   -1.3787    2.1118 H   0  0  0  0  0  0  0  0  0  0  0  0
   -0.6816    0.5090    1.1069 C   0  0  1  0  0  0  0  0  0  0  0  0
   -1.6316   -0.0442    0.9189 H   0  0  0  0  0  0  0  0  0  0  0  0
   -0.8937    1.5772    2.0033 O   0  0  0  0  0  0  0  0  0  0  0  0
   -1.9944    2.3911    1.5984 C   0  0  2  0  0  0  0  0  0  0  0  0
   -1.7120    3.4239    1.9154 H   0  0  0  0  0  0  0  0  0  0  0  0
   -3.1562    1.9426    2.2796 O   0  0  0  0  0  0  0  0  0  0  0  0
   -4.0239    3.0211    2.5561 C   0  0  0  0  0  0  0  0  0  0  0  0
   -4.9543    2.6194    3.0068 H   0  0  0  0  0  0  0  0  0  0  0  0
   -4.3079    3.5665    1.6295 H   0  0  0  0  0  0  0  0  0  0  0  0
   -3.5664    3.7178    3.2923 H   0  0  0  0  0  0  0  0  0  0  0  0
   -2.2416    2.4528    0.0482 C   0  0  2  0  0  0  0  0  0  0  0  0
   -2.6356    3.4657   -0.2014 H   0  0  0  0  0  0  0  0  0  0  0  0
   -3.2214    1.4443   -0.3607 N   0  0  0  0  0  0  0  0  0  0  0  0
   -4.2913    1.7667   -0.8782 N   0  0  0  0  0  4  0  0  0  0  0  0
   -5.3601    2.0886   -1.3947 N   0  0  0  0  0  2  0  0  0  0  0  0
  1  2  1  0
  2  3  1  0
  3  4  1  6
  3  5  1  0
  5  6  1  1
  5  7  1  0
  7  8  1  0
  8  9  1  1
  8 10  1  0
 10 11  2  0
 11 12  1  0
 11 13  1  0
 13 14  1  0
 13 15  2  0
 15 16  1  0
 15 17  1  0
 17 18  1  0
 17 19  2  0
 19 20  1  0
  8 21  1  0
 21 22  1  0
 22 23  1  0
 22 24  1  0
 22 25  1  0
 25 26  1  6
 25 27  1  0
 27 28  1  0
 28 29  1  1
 28 30  1  0
 30 31  1  0
 31 32  1  0
 31 33  1  0
 31 34  1  0
 28 35  1  0
 35 36  1  1
 35 37  1  0
 37 38  2  0
 38 39  2  0
 35  3  1  0
 25  5  1  0
 19 10  1  0
M  CHG  2  38   1  39  -1
M  END
>  <UniqueID>  (345) 
344

>  <SMILES>  (345) 
CO[C@H]1O[C@@H]2CO[C@H](c3ccccc3)O[C@H]2[C@@H](O)[C@H]1N=[N+]=[N-]

>  <Energy>  (345) 
69.06408284875629

>  <Genealogy>  (345) 
CO[C@H]1O[C@@H]2CO[C@H](c3ccccc3)O[C@H]2[C@@H](O)[C@H]1N=[N+]=[N-] (cis-trans isomerization)
CO[C@H]1O[C@@H]2CO[C@H](c3ccccc3)O[C@H]2[C@@H](O)[C@H]1N=[N+]=[N-] (3D coordinates assigned)
CO[C@H]1O[C@@H]2CO[C@H](c3ccccc3)O[C@H]2[C@@H](O)[C@H]1N=[N+]=[N-] (nonaromatic ring conformer: 69.06408284875629 kcal/mol)

$$$$
ZINC000032106889
     RDKit          3D

 39 41  0  0  0  0  0  0  0  0999 V2000
   -1.9720    2.6199   -2.7371 H   0  0  0  0  0  0  0  0  0  0  0  0
   -1.8671    1.7891   -2.2034 O   0  0  0  0  0  0  0  0  0  0  0  0
   -1.1012    2.1272   -1.0730 C   0  0  2  0  0  0  0  0  0  0  0  0
   -0.2528    2.7771   -1.3958 H   0  0  0  0  0  0  0  0  0  0  0  0
   -0.4805    0.8577   -0.4707 C   0  0  2  0  0  0  0  0  0  0  0  0
    0.3792    1.1653    0.1694 H   0  0  0  0  0  0  0  0  0  0  0  0
    0.0193    0.0141   -1.4948 O   0  0  0  0  0  0  0  0  0  0  0  0
    0.2824   -1.3113   -1.0333 C   0  0  1  0  0  0  0  0  0  0  0  0
   -0.5420   -1.9721   -1.3912 H   0  0  0  0  0  0  0  0  0  0  0  0
    1.5784   -1.7794   -1.6388 C   0  0  0  0  0  0  0  0  0  0  0  0
    1.6237   -2.9330   -2.4418 C   0  0  0  0  0  0  0  0  0  0  0  0
    0.7242   -3.5017   -2.6422 H   0  0  0  0  0  0  0  0  0  0  0  0
    2.8359   -3.3611   -2.9924 C   0  0  0  0  0  0  0  0  0  0  0  0
    2.8648   -4.2486   -3.6113 H   0  0  0  0  0  0  0  0  0  0  0  0
    4.0102   -2.6454   -2.7448 C   0  0  0  0  0  0  0  0  0  0  0  0
    4.9471   -2.9790   -3.1717 H   0  0  0  0  0  0  0  0  0  0  0  0
    3.9751   -1.4999   -1.9455 C   0  0  0  0  0  0  0  0  0  0  0  0
    4.8854   -0.9471   -1.7530 H   0  0  0  0  0  0  0  0  0  0  0  0
    2.7655   -1.0675   -1.3932 C   0  0  0  0  0  0  0  0  0  0  0  0
    2.7524   -0.1785   -0.7743 H   0  0  0  0  0  0  0  0  0  0  0  0
    0.3897   -1.4023    0.3820 O   0  0  0  0  0  0  0  0  0  0  0  0
   -0.8602   -1.1247    0.9901 C   0  0  0  0  0  0  0  0  0  0  0  0
   -1.5307   -2.0081    0.9005 H   0  0  0  0  0  0  0  0  0  0  0  0
   -0.6784   -0.9623    2.0740 H   0  0  0  0  0  0  0  0  0  0  0  0
   -1.5308    0.1237    0.3918 C   0  0  1  0  0  0  0  0  0  0  0  0
   -2.3354   -0.2268   -0.2921 H   0  0  0  0  0  0  0  0  0  0  0  0
   -2.1512    0.8974    1.4184 O   0  0  0  0  0  0  0  0  0  0  0  0
   -1.8086    2.2786    1.4060 C   0  0  2  0  0  0  0  0  0  0  0  0
   -0.7453    2.4027    1.7255 H   0  0  0  0  0  0  0  0  0  0  0  0
   -2.6619    2.9821    2.2903 O   0  0  0  0  0  0  0  0  0  0  0  0
   -2.3101    2.7094    3.6298 C   0  0  0  0  0  0  0  0  0  0  0  0
   -2.3633    1.6210    3.8542 H   0  0  0  0  0  0  0  0  0  0  0  0
   -3.0330    3.2233    4.2959 H   0  0  0  0  0  0  0  0  0  0  0  0
   -1.2977    3.1055    3.8650 H   0  0  0  0  0  0  0  0  0  0  0  0
   -1.9473    2.8973   -0.0099 C   0  0  2  0  0  0  0  0  0  0  0  0
   -1.5422    3.9316    0.0482 H   0  0  0  0  0  0  0  0  0  0  0  0
   -3.3582    3.0192   -0.3936 N   0  0  0  0  0  0  0  0  0  0  0  0
   -4.1083    2.0439   -0.4643 N   0  0  0  0  0  4  0  0  0  0  0  0
   -4.8599    1.0728   -0.5358 N   0  0  0  0  0  2  0  0  0  0  0  0
  1  2  1  0
  2  3  1  0
  3  4  1  6
  3  5  1  0
  5  6  1  1
  5  7  1  0
  7  8  1  0
  8  9  1  6
  8 10  1  0
 10 11  2  0
 11 12  1  0
 11 13  1  0
 13 14  1  0
 13 15  2  0
 15 16  1  0
 15 17  1  0
 17 18  1  0
 17 19  2  0
 19 20  1  0
  8 21  1  0
 21 22  1  0
 22 23  1  0
 22 24  1  0
 22 25  1  0
 25 26  1  6
 25 27  1  0
 27 28  1  0
 28 29  1  1
 28 30  1  0
 30 31  1  0
 31 32  1  0
 31 33  1  0
 31 34  1  0
 28 35  1  0
 35 36  1  1
 35 37  1  0
 37 38  2  0
 38 39  2  0
 35  3  1  0
 25  5  1  0
 19 10  1  0
M  CHG  2  38   1  39  -1
M  END
>  <UniqueID>  (346) 
345

>  <SMILES>  (346) 
CO[C@H]1O[C@@H]2CO[C@H](c3ccccc3)O[C@H]2[C@@H](O)[C@H]1N=[N+]=[N-]

>  <Energy>  (346) 
69.16205221712345

>  <Genealogy>  (346) 
CO[C@H]1O[C@@H]2CO[C@H](c3ccccc3)O[C@H]2[C@@H](O)[C@H]1N=[N+]=[N-] (cis-trans isomerization)
CO[C@H]1O[C@@H]2CO[C@H](c3ccccc3)O[C@H]2[C@@H](O)[C@H]1N=[N+]=[N-] (3D coordinates assigned)
CO[C@H]1O[C@@H]2CO[C@H](c3ccccc3)O[C@H]2[C@@H](O)[C@H]1N=[N+]=[N-] (nonaromatic ring conformer: 69.16205221712345 kcal/mol)

$$$$
ZINC000044021353
     RDKit          3D

 40 41  0  0  0  0  0  0  0  0999 V2000
   -0.3649   -6.5453    3.5872 C   0  0  0  0  0  0  0  0  0  0  0  0
   -0.3884   -5.2032    4.0623 O   0  0  0  0  0  0  0  0  0  0  0  0
   -0.4668   -4.0721    3.2363 C   0  0  0  0  0  0  0  0  0  0  0  0
   -0.5307   -4.1643    1.8332 C   0  0  0  0  0  0  0  0  0  0  0  0
   -0.6079   -3.0066    1.0527 C   0  0  0  0  0  0  0  0  0  0  0  0
   -0.6226   -1.7384    1.6602 C   0  0  0  0  0  0  0  0  0  0  0  0
   -0.7032   -0.5009    0.8592 C   0  0  0  0  0  0  0  0  0  0  0  0
   -0.7668   -0.5478   -0.4385 N   0  0  0  0  0  0  0  0  0  0  0  0
   -0.8465    0.6134   -1.3337 C   0  0  2  0  0  0  0  0  0  0  0  0
    0.4843    1.3893   -1.3942 C   0  0  2  0  0  0  0  0  0  0  0  0
    0.8710    1.7997   -0.1055 O   0  0  0  0  0  0  0  0  0  0  0  0
    0.3144    2.6169   -2.3098 C   0  0  2  0  0  0  0  0  0  0  0  0
    1.4691    3.4161   -2.2350 O   0  0  0  0  0  0  0  0  0  0  0  0
   -0.9382    3.4259   -1.8824 C   0  0  1  0  0  0  0  0  0  0  0  0
   -1.1604    4.6244   -2.8122 C   0  0  0  0  0  0  0  0  0  0  0  0
   -2.3107    5.3201   -2.4178 O   0  0  0  0  0  0  0  0  0  0  0  0
   -2.0956    2.6045   -1.9289 O   0  0  0  0  0  0  0  0  0  0  0  0
   -2.0106    1.5609   -0.9725 C   0  0  1  0  0  0  0  0  0  0  0  0
   -3.2091    0.8341   -0.9873 O   0  0  0  0  0  0  0  0  0  0  0  0
   -0.5586   -1.6509    3.0590 C   0  0  0  0  0  0  0  0  0  0  0  0
   -0.4815   -2.8090    3.8379 C   0  0  0  0  0  0  0  0  0  0  0  0
   -1.2963   -6.7675    3.0247 H   0  0  0  0  0  0  0  0  0  0  0  0
   -0.2998   -7.2354    4.4532 H   0  0  0  0  0  0  0  0  0  0  0  0
    0.5216   -6.7050    2.9378 H   0  0  0  0  0  0  0  0  0  0  0  0
   -0.5214   -5.1246    1.3361 H   0  0  0  0  0  0  0  0  0  0  0  0
   -0.6558   -3.1058   -0.0245 H   0  0  0  0  0  0  0  0  0  0  0  0
   -0.7137    0.4517    1.3737 H   0  0  0  0  0  0  0  0  0  0  0  0
   -1.0450    0.2192   -2.3554 H   0  0  0  0  0  0  0  0  0  0  0  0
    1.2605    0.7154   -1.8291 H   0  0  0  0  0  0  0  0  0  0  0  0
    1.8591    1.8956   -0.1145 H   0  0  0  0  0  0  0  0  0  0  0  0
    0.1667    2.2451   -3.3533 H   0  0  0  0  0  0  0  0  0  0  0  0
    1.6187    3.8024   -3.1372 H   0  0  0  0  0  0  0  0  0  0  0  0
   -0.7888    3.8319   -0.8539 H   0  0  0  0  0  0  0  0  0  0  0  0
   -1.2802    4.2683   -3.8604 H   0  0  0  0  0  0  0  0  0  0  0  0
   -0.2852    5.3097   -2.7617 H   0  0  0  0  0  0  0  0  0  0  0  0
   -2.4109    6.0723   -3.0575 H   0  0  0  0  0  0  0  0  0  0  0  0
   -1.8645    1.9841    0.0498 H   0  0  0  0  0  0  0  0  0  0  0  0
   -3.9143    1.4490   -0.6556 H   0  0  0  0  0  0  0  0  0  0  0  0
   -0.5682   -0.6853    3.5500 H   0  0  0  0  0  0  0  0  0  0  0  0
   -0.4328   -2.7245    4.9163 H   0  0  0  0  0  0  0  0  0  0  0  0
  1  2  1  0
  2  3  1  0
  3  4  2  0
  4  5  1  0
  5  6  2  0
  6  7  1  0
  7  8  2  0
  8  9  1  0
  9 10  1  0
 10 11  1  0
 10 12  1  0
 12 13  1  0
 12 14  1  0
 14 15  1  0
 15 16  1  0
 14 17  1  0
 17 18  1  0
 18 19  1  0
  6 20  1  0
 20 21  2  0
 21  3  1  0
 18  9  1  0
  1 22  1  0
  1 23  1  0
  1 24  1  0
  4 25  1  0
  5 26  1  0
  7 27  1  0
  9 28  1  6
 10 29  1  6
 11 30  1  0
 12 31  1  6
 13 32  1  0
 14 33  1  1
 15 34  1  0
 15 35  1  0
 16 36  1  0
 18 37  1  1
 19 38  1  0
 20 39  1  0
 21 40  1  0
M  END
>  <UniqueID>  (347) 
346

>  <SMILES>  (347) 
COc1ccc(/C=N/[C@@H]2[C@H](O)[C@H](O)[C@@H](CO)O[C@H]2O)cc1

>  <Energy>  (347) 
39.25114894258235

>  <Genealogy>  (347) 
COc1ccc(/C=N/[C@@H]2[C@H](O)[C@H](O)[C@@H](CO)O[C@H]2O)cc1 (3D coordinates assigned)
COc1ccc(/C=N/[C@@H]2[C@H](O)[C@H](O)[C@@H](CO)O[C@H]2O)cc1 (nonaromatic ring conformer: 39.25114894258235 kcal/mol)

$$$$
ZINC000044021353
     RDKit          3D

 40 41  0  0  0  0  0  0  0  0999 V2000
   -0.1423   -5.1611    5.0124 C   0  0  0  0  0  0  0  0  0  0  0  0
    0.4976   -4.0641    4.3685 O   0  0  0  0  0  0  0  0  0  0  0  0
   -0.0166   -3.3936    3.2487 C   0  0  0  0  0  0  0  0  0  0  0  0
    0.7183   -2.3291    2.7154 C   0  0  0  0  0  0  0  0  0  0  0  0
    0.2494   -1.6286    1.6003 C   0  0  0  0  0  0  0  0  0  0  0  0
   -0.9702   -1.9863    0.9986 C   0  0  0  0  0  0  0  0  0  0  0  0
   -1.4890   -1.2620   -0.1781 C   0  0  0  0  0  0  0  0  0  0  0  0
   -0.8274   -0.2742   -0.6986 N   0  0  0  0  0  0  0  0  0  0  0  0
   -1.3012    0.4835   -1.8584 C   0  0  2  0  0  0  0  0  0  0  0  0
   -0.1480    1.3288   -2.4242 C   0  0  2  0  0  0  0  0  0  0  0  0
    0.9459    0.5032   -2.7338 O   0  0  0  0  0  0  0  0  0  0  0  0
    0.2571    2.4531   -1.4372 C   0  0  2  0  0  0  0  0  0  0  0  0
    1.1834    1.9747   -0.4926 O   0  0  0  0  0  0  0  0  0  0  0  0
   -0.9898    2.9958   -0.6877 C   0  0  1  0  0  0  0  0  0  0  0  0
   -0.8574    4.4918   -0.3799 C   0  0  0  0  0  0  0  0  0  0  0  0
   -0.8719    5.2385   -1.5661 O   0  0  0  0  0  0  0  0  0  0  0  0
   -2.1610    2.7793   -1.4550 O   0  0  0  0  0  0  0  0  0  0  0  0
   -2.5046    1.4009   -1.4620 C   0  0  1  0  0  0  0  0  0  0  0  0
   -3.5499    1.2222   -2.3806 O   0  0  0  0  0  0  0  0  0  0  0  0
   -1.7083   -3.0531    1.5327 C   0  0  0  0  0  0  0  0  0  0  0  0
   -1.2380   -3.7529    2.6481 C   0  0  0  0  0  0  0  0  0  0  0  0
   -0.2560   -6.0072    4.3022 H   0  0  0  0  0  0  0  0  0  0  0  0
   -1.1358   -4.8501    5.3991 H   0  0  0  0  0  0  0  0  0  0  0  0
    0.4824   -5.4951    5.8659 H   0  0  0  0  0  0  0  0  0  0  0  0
    1.6591   -2.0428    3.1685 H   0  0  0  0  0  0  0  0  0  0  0  0
    0.8409   -0.8089    1.2117 H   0  0  0  0  0  0  0  0  0  0  0  0
   -2.4390   -1.5607   -0.6082 H   0  0  0  0  0  0  0  0  0  0  0  0
   -1.6109   -0.2373   -2.6501 H   0  0  0  0  0  0  0  0  0  0  0  0
   -0.5196    1.8034   -3.3639 H   0  0  0  0  0  0  0  0  0  0  0  0
    1.5507    1.0371   -3.3127 H   0  0  0  0  0  0  0  0  0  0  0  0
    0.7224    3.2706   -2.0386 H   0  0  0  0  0  0  0  0  0  0  0  0
    2.0837    2.0392   -0.9062 H   0  0  0  0  0  0  0  0  0  0  0  0
   -1.0805    2.4820    0.3003 H   0  0  0  0  0  0  0  0  0  0  0  0
    0.0899    4.6770    0.1752 H   0  0  0  0  0  0  0  0  0  0  0  0
   -1.7092    4.8045    0.2649 H   0  0  0  0  0  0  0  0  0  0  0  0
   -0.7750    6.1880   -1.2944 H   0  0  0  0  0  0  0  0  0  0  0  0
   -2.8844    1.1319   -0.4464 H   0  0  0  0  0  0  0  0  0  0  0  0
   -3.9676    0.3449   -2.1747 H   0  0  0  0  0  0  0  0  0  0  0  0
   -2.6509   -3.3456    1.0860 H   0  0  0  0  0  0  0  0  0  0  0  0
   -1.8311   -4.5703    3.0348 H   0  0  0  0  0  0  0  0  0  0  0  0
  1  2  1  0
  2  3  1  0
  3  4  2  0
  4  5  1  0
  5  6  2  0
  6  7  1  0
  7  8  2  0
  8  9  1  0
  9 10  1  0
 10 11  1  0
 10 12  1  0
 12 13  1  0
 12 14  1  0
 14 15  1  0
 15 16  1  0
 14 17  1  0
 17 18  1  0
 18 19  1  0
  6 20  1  0
 20 21  2  0
 21  3  1  0
 18  9  1  0
  1 22  1  0
  1 23  1  0
  1 24  1  0
  4 25  1  0
  5 26  1  0
  7 27  1  0
  9 28  1  6
 10 29  1  6
 11 30  1  0
 12 31  1  6
 13 32  1  0
 14 33  1  1
 15 34  1  0
 15 35  1  0
 16 36  1  0
 18 37  1  1
 19 38  1  0
 20 39  1  0
 21 40  1  0
M  END
>  <UniqueID>  (348) 
347

>  <SMILES>  (348) 
COc1ccc(/C=N/[C@@H]2[C@H](O)[C@H](O)[C@@H](CO)O[C@H]2O)cc1

>  <Energy>  (348) 
44.95658007118678

>  <Genealogy>  (348) 
COc1ccc(/C=N/[C@@H]2[C@H](O)[C@H](O)[C@@H](CO)O[C@H]2O)cc1 (3D coordinates assigned)
COc1ccc(/C=N/[C@@H]2[C@H](O)[C@H](O)[C@@H](CO)O[C@H]2O)cc1 (nonaromatic ring conformer: 44.95658007118678 kcal/mol)

$$$$
ZINC000044021353
     RDKit          3D

 40 41  0  0  0  0  0  0  0  0999 V2000
    0.5299   -5.8612    3.8986 C   0  0  0  0  0  0  0  0  0  0  0  0
   -0.0459   -4.5897    4.1803 O   0  0  0  0  0  0  0  0  0  0  0  0
   -0.2808   -3.5962    3.2183 C   0  0  0  0  0  0  0  0  0  0  0  0
    0.0387   -3.7706    1.8585 C   0  0  0  0  0  0  0  0  0  0  0  0
   -0.2148   -2.7497    0.9374 C   0  0  0  0  0  0  0  0  0  0  0  0
   -0.7917   -1.5383    1.3586 C   0  0  0  0  0  0  0  0  0  0  0  0
   -1.0675   -0.4439    0.4071 C   0  0  0  0  0  0  0  0  0  0  0  0
   -0.7894   -0.5722   -0.8562 N   0  0  0  0  0  0  0  0  0  0  0  0
   -0.9949    0.4346   -1.9090 C   0  0  2  0  0  0  0  0  0  0  0  0
    0.1748    1.4298   -2.0047 C   0  0  2  0  0  0  0  0  0  0  0  0
    1.3968    0.7488   -1.8690 O   0  0  0  0  0  0  0  0  0  0  0  0
    0.0642    2.5572   -0.9662 C   0  0  2  0  0  0  0  0  0  0  0  0
    0.4223    2.0761    0.3042 O   0  0  0  0  0  0  0  0  0  0  0  0
   -1.3652    3.1541   -0.9305 C   0  0  1  0  0  0  0  0  0  0  0  0
   -1.6425    4.1429   -2.0810 C   0  0  0  0  0  0  0  0  0  0  0  0
   -0.9050    5.3188   -1.8864 O   0  0  0  0  0  0  0  0  0  0  0  0
   -2.3840    2.1682   -0.7977 O   0  0  0  0  0  0  0  0  0  0  0  0
   -2.3583    1.1539   -1.7959 C   0  0  1  0  0  0  0  0  0  0  0  0
   -2.7482    1.6622   -3.0450 O   0  0  0  0  0  0  0  0  0  0  0  0
   -1.1081   -1.3682    2.7148 C   0  0  0  0  0  0  0  0  0  0  0  0
   -0.8541   -2.3896    3.6345 C   0  0  0  0  0  0  0  0  0  0  0  0
   -0.1083   -6.4187    3.1808 H   0  0  0  0  0  0  0  0  0  0  0  0
    0.5992   -6.4443    4.8396 H   0  0  0  0  0  0  0  0  0  0  0  0
    1.5518   -5.7339    3.4830 H   0  0  0  0  0  0  0  0  0  0  0  0
    0.4830   -4.6903    1.5032 H   0  0  0  0  0  0  0  0  0  0  0  0
    0.0413   -2.9096   -0.1025 H   0  0  0  0  0  0  0  0  0  0  0  0
   -1.5133    0.4662    0.7829 H   0  0  0  0  0  0  0  0  0  0  0  0
   -1.0042   -0.1306   -2.8674 H   0  0  0  0  0  0  0  0  0  0  0  0
    0.1341    1.8890   -3.0204 H   0  0  0  0  0  0  0  0  0  0  0  0
    2.1062    1.3638   -2.1923 H   0  0  0  0  0  0  0  0  0  0  0  0
    0.7869    3.3551   -1.2600 H   0  0  0  0  0  0  0  0  0  0  0  0
    0.6451    2.8666    0.8621 H   0  0  0  0  0  0  0  0  0  0  0  0
   -1.4243    3.7668   -0.0037 H   0  0  0  0  0  0  0  0  0  0  0  0
   -2.7277    4.3901   -2.0925 H   0  0  0  0  0  0  0  0  0  0  0  0
   -1.3673    3.7009   -3.0620 H   0  0  0  0  0  0  0  0  0  0  0  0
   -1.1348    5.9178   -2.6437 H   0  0  0  0  0  0  0  0  0  0  0  0
   -3.1056    0.3818   -1.5021 H   0  0  0  0  0  0  0  0  0  0  0  0
   -3.6828    1.9804   -2.9403 H   0  0  0  0  0  0  0  0  0  0  0  0
   -1.5520   -0.4436    3.0635 H   0  0  0  0  0  0  0  0  0  0  0  0
   -1.1041   -2.2428    4.6776 H   0  0  0  0  0  0  0  0  0  0  0  0
  1  2  1  0
  2  3  1  0
  3  4  2  0
  4  5  1  0
  5  6  2  0
  6  7  1  0
  7  8  2  0
  8  9  1  0
  9 10  1  0
 10 11  1  0
 10 12  1  0
 12 13  1  0
 12 14  1  0
 14 15  1  0
 15 16  1  0
 14 17  1  0
 17 18  1  0
 18 19  1  0
  6 20  1  0
 20 21  2  0
 21  3  1  0
 18  9  1  0
  1 22  1  0
  1 23  1  0
  1 24  1  0
  4 25  1  0
  5 26  1  0
  7 27  1  0
  9 28  1  6
 10 29  1  6
 11 30  1  0
 12 31  1  6
 13 32  1  0
 14 33  1  1
 15 34  1  0
 15 35  1  0
 16 36  1  0
 18 37  1  1
 19 38  1  0
 20 39  1  0
 21 40  1  0
M  END
>  <UniqueID>  (349) 
348

>  <SMILES>  (349) 
COc1ccc(/C=N/[C@@H]2[C@H](O)[C@H](O)[C@@H](CO)O[C@H]2O)cc1

>  <Energy>  (349) 
48.458972838943225

>  <Genealogy>  (349) 
COc1ccc(/C=N/[C@@H]2[C@H](O)[C@H](O)[C@@H](CO)O[C@H]2O)cc1 (3D coordinates assigned)
COc1ccc(/C=N/[C@@H]2[C@H](O)[C@H](O)[C@@H](CO)O[C@H]2O)cc1 (nonaromatic ring conformer: 48.458972838943225 kcal/mol)

$$$$
ZINC000056871016
     RDKit          3D

 33 33  0  0  0  0  0  0  0  0999 V2000
    1.5001    2.9757    0.0198 C   0  0  0  0  0  0  0  0  0  0  0  0
    1.7520    1.6885    0.5405 O   0  0  0  0  0  0  0  0  0  0  0  0
    0.6286    0.8523    0.3348 C   0  0  2  0  0  0  0  0  0  0  0  0
   -0.3765    1.1907    1.2775 O   0  0  0  0  0  0  0  0  0  0  0  0
   -1.5597    0.4456    1.0418 C   0  0  2  0  0  0  0  0  0  0  0  0
   -2.6615    0.9738    1.9722 C   0  0  0  0  0  0  0  0  0  0  0  0
   -2.9312    2.3218    1.6928 O   0  0  0  0  0  0  0  0  0  0  0  0
   -1.3005   -1.0570    1.2980 C   0  0  1  0  0  0  0  0  0  0  0  0
   -2.4654   -1.7976    1.0367 O   0  0  0  0  0  0  0  0  0  0  0  0
   -0.1434   -1.5528    0.4061 C   0  0  1  0  0  0  0  0  0  0  0  0
   -0.5505   -1.6012   -0.9402 O   0  0  0  0  0  0  0  0  0  0  0  0
    1.0691   -0.6123    0.5473 C   0  0  1  0  0  0  0  0  0  0  0  0
    2.1188   -0.9843   -0.4091 N   0  0  0  0  0  0  0  0  0  0  0  0
    2.9544   -2.1342   -0.2222 C   0  0  0  0  0  0  0  0  0  0  0  0
    3.9670   -2.4945   -1.2598 C   0  0  0  0  0  0  0  0  0  0  0  0
    2.8368   -2.8500    0.8094 O   0  0  0  0  0  0  0  0  0  0  0  0
    2.3603    3.6311    0.2677 H   0  0  0  0  0  0  0  0  0  0  0  0
    1.4096    2.9451   -1.0887 H   0  0  0  0  0  0  0  0  0  0  0  0
    0.5907    3.4298    0.4718 H   0  0  0  0  0  0  0  0  0  0  0  0
    0.2478    0.9591   -0.7129 H   0  0  0  0  0  0  0  0  0  0  0  0
   -1.9145    0.5926   -0.0056 H   0  0  0  0  0  0  0  0  0  0  0  0
   -3.5969    0.3961    1.8129 H   0  0  0  0  0  0  0  0  0  0  0  0
   -2.3631    0.8485    3.0391 H   0  0  0  0  0  0  0  0  0  0  0  0
   -2.2382    2.8565    2.1613 H   0  0  0  0  0  0  0  0  0  0  0  0
   -1.0070   -1.1860    2.3670 H   0  0  0  0  0  0  0  0  0  0  0  0
   -2.3306   -2.6940    1.4421 H   0  0  0  0  0  0  0  0  0  0  0  0
    0.1591   -2.5705    0.7479 H   0  0  0  0  0  0  0  0  0  0  0  0
   -1.0073   -2.4721   -1.0743 H   0  0  0  0  0  0  0  0  0  0  0  0
    1.4746   -0.6975    1.5813 H   0  0  0  0  0  0  0  0  0  0  0  0
    2.2904   -0.3815   -1.2462 H   0  0  0  0  0  0  0  0  0  0  0  0
    3.4482   -2.7830   -2.1981 H   0  0  0  0  0  0  0  0  0  0  0  0
    4.6246   -1.6226   -1.4582 H   0  0  0  0  0  0  0  0  0  0  0  0
    4.5933   -3.3450   -0.9166 H   0  0  0  0  0  0  0  0  0  0  0  0
  1  2  1  0
  2  3  1  0
  3  4  1  0
  4  5  1  0
  5  6  1  0
  6  7  1  0
  5  8  1  0
  8  9  1  0
  8 10  1  0
 10 11  1  0
 10 12  1  0
 12 13  1  0
 13 14  1  0
 14 15  1  0
 14 16  2  0
 12  3  1  0
  1 17  1  0
  1 18  1  0
  1 19  1  0
  3 20  1  6
  5 21  1  6
  6 22  1  0
  6 23  1  0
  7 24  1  0
  8 25  1  1
  9 26  1  0
 10 27  1  1
 11 28  1  0
 12 29  1  1
 13 30  1  0
 15 31  1  0
 15 32  1  0
 15 33  1  0
M  END
>  <UniqueID>  (350) 
349

>  <SMILES>  (350) 
CO[C@@H]1O[C@H](CO)[C@@H](O)[C@@H](O)[C@H]1NC(C)=O

>  <Energy>  (350) 
27.914696627426146

>  <Genealogy>  (350) 
CO[C@@H]1O[C@H](CO)[C@@H](O)[C@@H](O)[C@H]1NC(C)=O (3D coordinates assigned)
CO[C@@H]1O[C@H](CO)[C@@H](O)[C@@H](O)[C@H]1NC(C)=O (nonaromatic ring conformer: 27.914696627426146 kcal/mol)

$$$$
ZINC000056871016
     RDKit          3D

 33 33  0  0  0  0  0  0  0  0999 V2000
    3.4372    1.4457    3.0280 H   0  0  0  0  0  0  0  0  0  0  0  0
    2.8854    0.8788    3.6612 O   0  0  0  0  0  0  0  0  0  0  0  0
    1.6576    0.3518    3.2706 C   0  0  0  0  0  0  0  0  0  0  0  0
    1.2128    0.6050    2.0719 N   0  0  0  0  0  0  0  0  0  0  0  0
   -0.0401    0.1225    1.4804 C   0  0  2  0  0  0  0  0  0  0  0  0
   -0.8358    0.0673    2.2564 H   0  0  0  0  0  0  0  0  0  0  0  0
    0.1560   -1.2742    0.8509 C   0  0  2  0  0  0  0  0  0  0  0  0
    0.3117   -2.0279    1.6561 H   0  0  0  0  0  0  0  0  0  0  0  0
    1.2624   -1.2718   -0.0188 O   0  0  0  0  0  0  0  0  0  0  0  0
    2.0699   -1.4277    0.5374 H   0  0  0  0  0  0  0  0  0  0  0  0
   -1.1097   -1.6779    0.0720 C   0  0  2  0  0  0  0  0  0  0  0  0
   -1.9400   -1.8431    0.7996 H   0  0  0  0  0  0  0  0  0  0  0  0
   -0.8725   -2.8588   -0.6515 O   0  0  0  0  0  0  0  0  0  0  0  0
   -0.8708   -3.6018    0.0071 H   0  0  0  0  0  0  0  0  0  0  0  0
   -1.5232   -0.5418   -0.8919 C   0  0  1  0  0  0  0  0  0  0  0  0
   -0.7348   -0.4038   -1.6692 H   0  0  0  0  0  0  0  0  0  0  0  0
   -2.8266   -0.8965   -1.6226 C   0  0  0  0  0  0  0  0  0  0  0  0
   -3.6378   -1.0585   -0.8808 H   0  0  0  0  0  0  0  0  0  0  0  0
   -2.7057   -1.8379   -2.2058 H   0  0  0  0  0  0  0  0  0  0  0  0
   -3.2090    0.1480   -2.4764 O   0  0  0  0  0  0  0  0  0  0  0  0
   -2.6082    0.1045   -3.2657 H   0  0  0  0  0  0  0  0  0  0  0  0
   -1.7276    0.6617   -0.1705 O   0  0  0  0  0  0  0  0  0  0  0  0
   -0.5121    1.1176    0.4031 C   0  0  1  0  0  0  0  0  0  0  0  0
    0.2909    1.2053   -0.3723 H   0  0  0  0  0  0  0  0  0  0  0  0
   -0.7363    2.3697    1.0236 O   0  0  0  0  0  0  0  0  0  0  0  0
   -0.8316    3.3846    0.0477 C   0  0  0  0  0  0  0  0  0  0  0  0
    0.1390    3.5241   -0.4775 H   0  0  0  0  0  0  0  0  0  0  0  0
   -1.6428    3.1747   -0.6845 H   0  0  0  0  0  0  0  0  0  0  0  0
   -1.0778    4.3399    0.5548 H   0  0  0  0  0  0  0  0  0  0  0  0
    0.8878   -0.4716    4.2613 C   0  0  0  0  0  0  0  0  0  0  0  0
    0.7071   -1.4905    3.8657 H   0  0  0  0  0  0  0  0  0  0  0  0
    1.4667   -0.5660    5.2040 H   0  0  0  0  0  0  0  0  0  0  0  0
   -0.0787    0.0203    4.4969 H   0  0  0  0  0  0  0  0  0  0  0  0
  1  2  1  0
  2  3  1  0
  3  4  2  0
  4  5  1  0
  5  6  1  1
  5  7  1  0
  7  8  1  1
  7  9  1  0
  9 10  1  0
  7 11  1  0
 11 12  1  1
 11 13  1  0
 13 14  1  0
 11 15  1  0
 15 16  1  6
 15 17  1  0
 17 18  1  0
 17 19  1  0
 17 20  1  0
 20 21  1  0
 15 22  1  0
 22 23  1  0
 23 24  1  6
 23 25  1  0
 25 26  1  0
 26 27  1  0
 26 28  1  0
 26 29  1  0
  3 30  1  0
 30 31  1  0
 30 32  1  0
 30 33  1  0
 23  5  1  0
M  END
>  <UniqueID>  (351) 
350

>  <SMILES>  (351) 
CO[C@@H]1O[C@H](CO)[C@@H](O)[C@@H](O)[C@H]1/N=C(\C)O

>  <Energy>  (351) 
30.296446003309374

>  <Genealogy>  (351) 
CO[C@@H]1O[C@H](CO)[C@@H](O)[C@@H](O)[C@H]1N=C(C)O (tautomer)
CO[C@@H]1O[C@H](CO)[C@@H](O)[C@@H](O)[C@H]1/N=C(\C)O (cis-trans isomerization)
CO[C@@H]1O[C@H](CO)[C@@H](O)[C@@H](O)[C@H]1/N=C(\C)O (3D coordinates assigned)
CO[C@@H]1O[C@H](CO)[C@@H](O)[C@@H](O)[C@H]1/N=C(\C)O (nonaromatic ring conformer: 30.296446003309374 kcal/mol)

$$$$
ZINC000056871016
     RDKit          3D

 33 33  0  0  0  0  0  0  0  0999 V2000
   -3.1686   -1.0880   -1.9732 H   0  0  0  0  0  0  0  0  0  0  0  0
   -2.6614   -1.2142   -2.8385 O   0  0  0  0  0  0  0  0  0  0  0  0
   -1.2673   -1.1744   -2.9314 C   0  0  0  0  0  0  0  0  0  0  0  0
   -0.5051   -0.9423   -1.9010 N   0  0  0  0  0  0  0  0  0  0  0  0
   -0.9490   -0.6543   -0.5346 C   0  0  2  0  0  0  0  0  0  0  0  0
   -1.7611   -1.3580   -0.2441 H   0  0  0  0  0  0  0  0  0  0  0  0
   -1.4522    0.8000   -0.4227 C   0  0  2  0  0  0  0  0  0  0  0  0
   -2.4011    0.8962   -0.9992 H   0  0  0  0  0  0  0  0  0  0  0  0
   -0.4860    1.6776   -0.9491 O   0  0  0  0  0  0  0  0  0  0  0  0
   -0.9627    2.5034   -1.2256 H   0  0  0  0  0  0  0  0  0  0  0  0
   -1.7373    1.1396    1.0543 C   0  0  2  0  0  0  0  0  0  0  0  0
   -2.6121    0.5350    1.3924 H   0  0  0  0  0  0  0  0  0  0  0  0
   -2.0279    2.5072    1.1919 O   0  0  0  0  0  0  0  0  0  0  0  0
   -2.9422    2.6425    0.8293 H   0  0  0  0  0  0  0  0  0  0  0  0
   -0.5137    0.7681    1.9251 C   0  0  1  0  0  0  0  0  0  0  0  0
    0.3563    1.4024    1.6330 H   0  0  0  0  0  0  0  0  0  0  0  0
   -0.7763    1.0459    3.4142 C   0  0  0  0  0  0  0  0  0  0  0  0
   -0.9868    2.1260    3.5645 H   0  0  0  0  0  0  0  0  0  0  0  0
    0.1370    0.8067    4.0061 H   0  0  0  0  0  0  0  0  0  0  0  0
   -1.8700    0.3036    3.8855 O   0  0  0  0  0  0  0  0  0  0  0  0
   -1.5400   -0.6174    4.0533 H   0  0  0  0  0  0  0  0  0  0  0  0
   -0.1951   -0.6047    1.7688 O   0  0  0  0  0  0  0  0  0  0  0  0
    0.2241   -0.8774    0.4402 C   0  0  1  0  0  0  0  0  0  0  0  0
    1.0662   -0.2038    0.1388 H   0  0  0  0  0  0  0  0  0  0  0  0
    0.6224   -2.2327    0.3517 O   0  0  0  0  0  0  0  0  0  0  0  0
    1.8897   -2.4062    0.9477 C   0  0  0  0  0  0  0  0  0  0  0  0
    2.1444   -3.4857    0.9276 H   0  0  0  0  0  0  0  0  0  0  0  0
    1.8904   -2.0812    2.0118 H   0  0  0  0  0  0  0  0  0  0  0  0
    2.6759   -1.8655    0.3760 H   0  0  0  0  0  0  0  0  0  0  0  0
   -0.6294   -1.4338   -4.2546 C   0  0  0  0  0  0  0  0  0  0  0  0
   -1.3966   -1.4327   -5.0571 H   0  0  0  0  0  0  0  0  0  0  0  0
   -0.1259   -2.4229   -4.2372 H   0  0  0  0  0  0  0  0  0  0  0  0
    0.1195   -0.6441   -4.4752 H   0  0  0  0  0  0  0  0  0  0  0  0
  1  2  1  0
  2  3  1  0
  3  4  2  0
  4  5  1  0
  5  6  1  1
  5  7  1  0
  7  8  1  6
  7  9  1  0
  9 10  1  0
  7 11  1  0
 11 12  1  1
 11 13  1  0
 13 14  1  0
 11 15  1  0
 15 16  1  6
 15 17  1  0
 17 18  1  0
 17 19  1  0
 17 20  1  0
 20 21  1  0
 15 22  1  0
 22 23  1  0
 23 24  1  6
 23 25  1  0
 25 26  1  0
 26 27  1  0
 26 28  1  0
 26 29  1  0
  3 30  1  0
 30 31  1  0
 30 32  1  0
 30 33  1  0
 23  5  1  0
M  END
>  <UniqueID>  (352) 
351

>  <SMILES>  (352) 
CO[C@@H]1O[C@H](CO)[C@@H](O)[C@@H](O)[C@H]1/N=C(/C)O

>  <Energy>  (352) 
30.411902385901296

>  <Genealogy>  (352) 
CO[C@@H]1O[C@H](CO)[C@@H](O)[C@@H](O)[C@H]1N=C(C)O (tautomer)
CO[C@@H]1O[C@H](CO)[C@@H](O)[C@@H](O)[C@H]1/N=C(/C)O (cis-trans isomerization)
CO[C@@H]1O[C@H](CO)[C@@H](O)[C@@H](O)[C@H]1/N=C(/C)O (3D coordinates assigned)
CO[C@@H]1O[C@H](CO)[C@@H](O)[C@@H](O)[C@H]1/N=C(/C)O (nonaromatic ring conformer: 30.411902385901296 kcal/mol)

$$$$
ZINC000077269504
     RDKit          3D

 41 43  0  0  0  0  0  0  0  0999 V2000
   -1.3772    5.0130   -0.0078 H   0  0  0  0  0  0  0  0  0  0  0  0
   -0.8168    4.2778   -0.4218 O   0  0  0  0  0  0  0  0  0  0  0  0
    0.5590    4.4285   -0.5938 C   0  0  0  0  0  0  0  0  0  0  0  0
    1.2648    3.4873   -1.1457 N   0  0  0  0  0  0  0  0  0  0  0  0
    0.7223    2.2039   -1.5975 C   0  0  1  0  0  0  0  0  0  0  0  0
   -0.2141    2.3886   -2.1725 H   0  0  0  0  0  0  0  0  0  0  0  0
    1.7236    1.5253   -2.5633 C   0  0  1  0  0  0  0  0  0  0  0  0
    1.7802    2.1639   -3.4739 H   0  0  0  0  0  0  0  0  0  0  0  0
    3.0070    1.4588   -1.9919 O   0  0  0  0  0  0  0  0  0  0  0  0
    3.6123    1.1213   -2.7025 H   0  0  0  0  0  0  0  0  0  0  0  0
    1.2771    0.2362   -2.9707 O   0  0  0  0  0  0  0  0  0  0  0  0
    1.1160   -0.6170   -1.8507 C   0  0  2  0  0  0  0  0  0  0  0  0
    2.0721   -0.7204   -1.2863 H   0  0  0  0  0  0  0  0  0  0  0  0
    0.7095   -2.0177   -2.3004 C   0  0  0  0  0  0  0  0  0  0  0  0
   -0.1811   -1.9811   -2.9690 H   0  0  0  0  0  0  0  0  0  0  0  0
    1.5422   -2.4657   -2.8829 H   0  0  0  0  0  0  0  0  0  0  0  0
    0.4564   -2.8348   -1.1736 O   0  0  0  0  0  0  0  0  0  0  0  0
   -0.5837   -2.2719   -0.3857 C   0  0  1  0  0  0  0  0  0  0  0  0
   -1.5188   -2.1786   -0.9911 H   0  0  0  0  0  0  0  0  0  0  0  0
   -0.8556   -3.1972    0.7708 C   0  0  0  0  0  0  0  0  0  0  0  0
    0.1613   -3.4781    1.7007 C   0  0  0  0  0  0  0  0  0  0  0  0
    1.1420   -3.0316    1.5906 H   0  0  0  0  0  0  0  0  0  0  0  0
   -0.0834   -4.3364    2.7770 C   0  0  0  0  0  0  0  0  0  0  0  0
    0.7036   -4.5482    3.4892 H   0  0  0  0  0  0  0  0  0  0  0  0
   -1.3425   -4.9211    2.9344 C   0  0  0  0  0  0  0  0  0  0  0  0
   -1.5303   -5.5853    3.7681 H   0  0  0  0  0  0  0  0  0  0  0  0
   -2.3594   -4.6487    2.0155 C   0  0  0  0  0  0  0  0  0  0  0  0
   -3.3342   -5.1026    2.1387 H   0  0  0  0  0  0  0  0  0  0  0  0
   -2.1198   -3.7909    0.9373 C   0  0  0  0  0  0  0  0  0  0  0  0
   -2.9201   -3.5920    0.2355 H   0  0  0  0  0  0  0  0  0  0  0  0
   -0.2028   -1.0056    0.1355 O   0  0  0  0  0  0  0  0  0  0  0  0
    0.0024   -0.0998   -0.9304 C   0  0  1  0  0  0  0  0  0  0  0  0
   -0.9429    0.0214   -1.5133 H   0  0  0  0  0  0  0  0  0  0  0  0
    0.3896    1.2838   -0.3980 C   0  0  1  0  0  0  0  0  0  0  0  0
   -0.4872    1.6947    0.1554 H   0  0  0  0  0  0  0  0  0  0  0  0
    1.4919    1.1709    0.4688 O   0  0  0  0  0  0  0  0  0  0  0  0
    1.4669    1.9579    1.0734 H   0  0  0  0  0  0  0  0  0  0  0  0
    1.2257    5.6993   -0.1762 C   0  0  0  0  0  0  0  0  0  0  0  0
    1.0645    6.4732   -0.9551 H   0  0  0  0  0  0  0  0  0  0  0  0
    0.7947    6.0526    0.7838 H   0  0  0  0  0  0  0  0  0  0  0  0
    2.3169    5.5427   -0.0381 H   0  0  0  0  0  0  0  0  0  0  0  0
  1  2  1  0
  2  3  1  0
  3  4  2  0
  4  5  1  0
  5  6  1  6
  5  7  1  0
  7  8  1  6
  7  9  1  0
  9 10  1  0
  7 11  1  0
 11 12  1  0
 12 13  1  1
 12 14  1  0
 14 15  1  0
 14 16  1  0
 14 17  1  0
 17 18  1  0
 18 19  1  6
 18 20  1  0
 20 21  2  0
 21 22  1  0
 21 23  1  0
 23 24  1  0
 23 25  2  0
 25 26  1  0
 25 27  1  0
 27 28  1  0
 27 29  2  0
 29 30  1  0
 18 31  1  0
 31 32  1  0
 32 33  1  6
 32 34  1  0
 34 35  1  1
 34 36  1  0
 36 37  1  0
  3 38  1  0
 38 39  1  0
 38 40  1  0
 38 41  1  0
 34  5  1  0
 32 12  1  0
 29 20  1  0
M  END
>  <UniqueID>  (353) 
352

>  <SMILES>  (353) 
C/C(O)=N\[C@H]1[C@@H](O)O[C@@H]2CO[C@@H](c3ccccc3)O[C@H]2[C@H]1O

>  <Energy>  (353) 
47.38830149978921

>  <Genealogy>  (353) 
CC(O)=N[C@H]1[C@@H](O)O[C@@H]2CO[C@@H](c3ccccc3)O[C@H]2[C@H]1O (tautomer)
C/C(O)=N\[C@H]1[C@@H](O)O[C@@H]2CO[C@@H](c3ccccc3)O[C@H]2[C@H]1O (cis-trans isomerization)
C/C(O)=N\[C@H]1[C@@H](O)O[C@@H]2CO[C@@H](c3ccccc3)O[C@H]2[C@H]1O (3D coordinates assigned)
C/C(O)=N\[C@H]1[C@@H](O)O[C@@H]2CO[C@@H](c3ccccc3)O[C@H]2[C@H]1O (nonaromatic ring conformer: 47.38830149978921 kcal/mol)

$$$$
ZINC000077269504
     RDKit          3D

 41 43  0  0  0  0  0  0  0  0999 V2000
   -4.8984   -1.2923    2.6736 C   0  0  0  0  0  0  0  0  0  0  0  0
   -4.2700   -0.5709    1.5263 C   0  0  0  0  0  0  0  0  0  0  0  0
   -4.4414   -0.9997    0.3531 O   0  0  0  0  0  0  0  0  0  0  0  0
   -3.5127    0.6245    1.7613 N   0  0  0  0  0  0  0  0  0  0  0  0
   -2.8477    1.3582    0.6770 C   0  0  1  0  0  0  0  0  0  0  0  0
   -2.4516    2.7899    1.1271 C   0  0  1  0  0  0  0  0  0  0  0  0
   -1.6875    2.7582    2.3076 O   0  0  0  0  0  0  0  0  0  0  0  0
   -1.7664    3.4933    0.0962 O   0  0  0  0  0  0  0  0  0  0  0  0
   -0.5750    2.8162   -0.2662 C   0  0  2  0  0  0  0  0  0  0  0  0
    0.1941    3.6119   -1.3172 C   0  0  0  0  0  0  0  0  0  0  0  0
    1.3313    2.8842   -1.7400 O   0  0  0  0  0  0  0  0  0  0  0  0
    0.9358    1.6351   -2.2902 C   0  0  1  0  0  0  0  0  0  0  0  0
    2.1691    0.9179   -2.7720 C   0  0  0  0  0  0  0  0  0  0  0  0
    2.3232    0.5805   -4.1288 C   0  0  0  0  0  0  0  0  0  0  0  0
    3.4735   -0.0856   -4.5635 C   0  0  0  0  0  0  0  0  0  0  0  0
    4.4775   -0.4196   -3.6509 C   0  0  0  0  0  0  0  0  0  0  0  0
    4.3335   -0.0881   -2.3012 C   0  0  0  0  0  0  0  0  0  0  0  0
    3.1855    0.5780   -1.8617 C   0  0  0  0  0  0  0  0  0  0  0  0
    0.3002    0.8227   -1.3121 O   0  0  0  0  0  0  0  0  0  0  0  0
   -0.8932    1.4479   -0.8839 C   0  0  1  0  0  0  0  0  0  0  0  0
   -1.6181    0.5805    0.1512 C   0  0  1  0  0  0  0  0  0  0  0  0
   -0.7421    0.2571    1.2030 O   0  0  0  0  0  0  0  0  0  0  0  0
   -4.1592   -1.4084    3.4937 H   0  0  0  0  0  0  0  0  0  0  0  0
   -5.7679   -0.7109    3.0440 H   0  0  0  0  0  0  0  0  0  0  0  0
   -5.2425   -2.3003    2.3586 H   0  0  0  0  0  0  0  0  0  0  0  0
   -3.4792    0.9975    2.7373 H   0  0  0  0  0  0  0  0  0  0  0  0
   -3.5710    1.4737   -0.1620 H   0  0  0  0  0  0  0  0  0  0  0  0
   -3.3978    3.3383    1.3372 H   0  0  0  0  0  0  0  0  0  0  0  0
   -1.5762    3.7020    2.5940 H   0  0  0  0  0  0  0  0  0  0  0  0
    0.1016    2.6989    0.6123 H   0  0  0  0  0  0  0  0  0  0  0  0
   -0.4577    3.8644   -2.1849 H   0  0  0  0  0  0  0  0  0  0  0  0
    0.5330    4.5695   -0.8683 H   0  0  0  0  0  0  0  0  0  0  0  0
    0.2568    1.7962   -3.1635 H   0  0  0  0  0  0  0  0  0  0  0  0
    1.5559    0.8310   -4.8508 H   0  0  0  0  0  0  0  0  0  0  0  0
    3.5863   -0.3432   -5.6087 H   0  0  0  0  0  0  0  0  0  0  0  0
    5.3667   -0.9354   -3.9895 H   0  0  0  0  0  0  0  0  0  0  0  0
    5.1117   -0.3474   -1.5952 H   0  0  0  0  0  0  0  0  0  0  0  0
    3.0869    0.8292   -0.8126 H   0  0  0  0  0  0  0  0  0  0  0  0
   -1.5859    1.5776   -1.7508 H   0  0  0  0  0  0  0  0  0  0  0  0
   -1.9551   -0.3513   -0.3603 H   0  0  0  0  0  0  0  0  0  0  0  0
   -1.0951   -0.5661    1.6308 H   0  0  0  0  0  0  0  0  0  0  0  0
  1  2  1  0
  2  3  2  0
  2  4  1  0
  4  5  1  0
  5  6  1  0
  6  7  1  0
  6  8  1  0
  8  9  1  0
  9 10  1  0
 10 11  1  0
 11 12  1  0
 12 13  1  0
 13 14  2  0
 14 15  1  0
 15 16  2  0
 16 17  1  0
 17 18  2  0
 12 19  1  0
 19 20  1  0
 20 21  1  0
 21 22  1  0
 21  5  1  0
 20  9  1  0
 18 13  1  0
  1 23  1  0
  1 24  1  0
  1 25  1  0
  4 26  1  0
  5 27  1  6
  6 28  1  1
  7 29  1  0
  9 30  1  1
 10 31  1  0
 10 32  1  0
 12 33  1  6
 14 34  1  0
 15 35  1  0
 16 36  1  0
 17 37  1  0
 18 38  1  0
 20 39  1  6
 21 40  1  6
 22 41  1  0
M  END
>  <UniqueID>  (354) 
353

>  <SMILES>  (354) 
CC(=O)N[C@H]1[C@@H](O)O[C@@H]2CO[C@@H](c3ccccc3)O[C@H]2[C@H]1O

>  <Energy>  (354) 
47.39510189340795

>  <Genealogy>  (354) 
CC(=O)N[C@H]1[C@@H](O)O[C@@H]2CO[C@@H](c3ccccc3)O[C@H]2[C@H]1O (3D coordinates assigned)
CC(=O)N[C@H]1[C@@H](O)O[C@@H]2CO[C@@H](c3ccccc3)O[C@H]2[C@H]1O (nonaromatic ring conformer: 47.39510189340795 kcal/mol)

$$$$
ZINC000077269504
     RDKit          3D

 41 43  0  0  0  0  0  0  0  0999 V2000
   -5.4446    0.7870    2.7641 H   0  0  0  0  0  0  0  0  0  0  0  0
   -4.4705    0.5133    2.8123 O   0  0  0  0  0  0  0  0  0  0  0  0
   -4.1022   -0.7875    3.1544 C   0  0  0  0  0  0  0  0  0  0  0  0
   -2.8491   -1.1221    3.2348 N   0  0  0  0  0  0  0  0  0  0  0  0
   -1.7309   -0.2188    2.9524 C   0  0  1  0  0  0  0  0  0  0  0  0
   -1.9200    0.7590    3.4521 H   0  0  0  0  0  0  0  0  0  0  0  0
   -0.4215   -0.7927    3.5555 C   0  0  1  0  0  0  0  0  0  0  0  0
   -0.5276   -0.7706    4.6652 H   0  0  0  0  0  0  0  0  0  0  0  0
   -0.1994   -2.1217    3.1453 O   0  0  0  0  0  0  0  0  0  0  0  0
   -0.7651   -2.7035    3.7172 H   0  0  0  0  0  0  0  0  0  0  0  0
    0.7032    0.0176    3.2371 O   0  0  0  0  0  0  0  0  0  0  0  0
    0.8805    0.1056    1.8335 C   0  0  2  0  0  0  0  0  0  0  0  0
    1.0157   -0.9051    1.3823 H   0  0  0  0  0  0  0  0  0  0  0  0
    2.1333    0.9127    1.5036 C   0  0  0  0  0  0  0  0  0  0  0  0
    3.0250    0.3607    1.8691 H   0  0  0  0  0  0  0  0  0  0  0  0
    2.1206    1.9007    2.0187 H   0  0  0  0  0  0  0  0  0  0  0  0
    2.2485    1.0795    0.1035 O   0  0  0  0  0  0  0  0  0  0  0  0
    1.1059    1.7551   -0.4034 C   0  0  1  0  0  0  0  0  0  0  0  0
    1.0037    2.7575    0.0807 H   0  0  0  0  0  0  0  0  0  0  0  0
    1.2938    1.9579   -1.8836 C   0  0  0  0  0  0  0  0  0  0  0  0
    1.3431    3.2516   -2.4335 C   0  0  0  0  0  0  0  0  0  0  0  0
    1.2454    4.1248   -1.8006 H   0  0  0  0  0  0  0  0  0  0  0  0
    1.5196    3.4264   -3.8098 C   0  0  0  0  0  0  0  0  0  0  0  0
    1.5563    4.4243   -4.2275 H   0  0  0  0  0  0  0  0  0  0  0  0
    1.6488    2.3152   -4.6470 C   0  0  0  0  0  0  0  0  0  0  0  0
    1.7852    2.4529   -5.7119 H   0  0  0  0  0  0  0  0  0  0  0  0
    1.6022    1.0262   -4.1098 C   0  0  0  0  0  0  0  0  0  0  0  0
    1.7028    0.1661   -4.7591 H   0  0  0  0  0  0  0  0  0  0  0  0
    1.4261    0.8461   -2.7345 C   0  0  0  0  0  0  0  0  0  0  0  0
    1.3922   -0.1586   -2.3311 H   0  0  0  0  0  0  0  0  0  0  0  0
   -0.0731    0.9869   -0.2041 O   0  0  0  0  0  0  0  0  0  0  0  0
   -0.3048    0.8291    1.1816 C   0  0  1  0  0  0  0  0  0  0  0  0
   -0.4438    1.8297    1.6585 H   0  0  0  0  0  0  0  0  0  0  0  0
   -1.5873    0.0241    1.4335 C   0  0  1  0  0  0  0  0  0  0  0  0
   -2.4602    0.6224    1.0825 H   0  0  0  0  0  0  0  0  0  0  0  0
   -1.5465   -1.2048    0.7502 O   0  0  0  0  0  0  0  0  0  0  0  0
   -1.7966   -1.0199   -0.1925 H   0  0  0  0  0  0  0  0  0  0  0  0
   -5.1554   -1.7993    3.4719 C   0  0  0  0  0  0  0  0  0  0  0  0
   -4.7520   -2.8298    3.3731 H   0  0  0  0  0  0  0  0  0  0  0  0
   -6.0098   -1.6852    2.7725 H   0  0  0  0  0  0  0  0  0  0  0  0
   -5.5122   -1.6460    4.5115 H   0  0  0  0  0  0  0  0  0  0  0  0
  1  2  1  0
  2  3  1  0
  3  4  2  0
  4  5  1  0
  5  6  1  1
  5  7  1  0
  7  8  1  1
  7  9  1  0
  9 10  1  0
  7 11  1  0
 11 12  1  0
 12 13  1  6
 12 14  1  0
 14 15  1  0
 14 16  1  0
 14 17  1  0
 17 18  1  0
 18 19  1  1
 18 20  1  0
 20 21  2  0
 21 22  1  0
 21 23  1  0
 23 24  1  0
 23 25  2  0
 25 26  1  0
 25 27  1  0
 27 28  1  0
 27 29  2  0
 29 30  1  0
 18 31  1  0
 31 32  1  0
 32 33  1  1
 32 34  1  0
 34 35  1  6
 34 36  1  0
 36 37  1  0
  3 38  1  0
 38 39  1  0
 38 40  1  0
 38 41  1  0
 34  5  1  0
 32 12  1  0
 29 20  1  0
M  END
>  <UniqueID>  (355) 
354

>  <SMILES>  (355) 
C/C(O)=N/[C@H]1[C@@H](O)O[C@@H]2CO[C@@H](c3ccccc3)O[C@H]2[C@H]1O

>  <Energy>  (355) 
48.030951432770756

>  <Genealogy>  (355) 
CC(O)=N[C@H]1[C@@H](O)O[C@@H]2CO[C@@H](c3ccccc3)O[C@H]2[C@H]1O (tautomer)
C/C(O)=N/[C@H]1[C@@H](O)O[C@@H]2CO[C@@H](c3ccccc3)O[C@H]2[C@H]1O (cis-trans isomerization)
C/C(O)=N/[C@H]1[C@@H](O)O[C@@H]2CO[C@@H](c3ccccc3)O[C@H]2[C@H]1O (3D coordinates assigned)
C/C(O)=N/[C@H]1[C@@H](O)O[C@@H]2CO[C@@H](c3ccccc3)O[C@H]2[C@H]1O (nonaromatic ring conformer: 48.030951432770756 kcal/mol)

$$$$
ZINC000082114392
     RDKit          3D

 28 28  0  0  0  0  0  0  0  0999 V2000
   -3.5610   -0.1474   -0.4176 C   0  0  0  0  0  0  0  0  0  0  0  0
   -2.2557   -0.5822   -0.7297 O   0  0  0  0  0  0  0  0  0  0  0  0
   -1.3616    0.5206   -0.7343 C   0  0  1  0  0  0  0  0  0  0  0  0
   -1.1145    0.9997    0.5812 O   0  0  0  0  0  0  0  0  0  0  0  0
   -0.5075    0.0099    1.3988 C   0  0  2  0  0  0  0  0  0  0  0  0
   -0.4009    0.5652    2.8238 C   0  0  0  0  0  0  0  0  0  0  0  0
   -1.6746    0.9189    3.2880 O   0  0  0  0  0  0  0  0  0  0  0  0
    0.8877   -0.3669    0.8459 C   0  0  1  0  0  0  0  0  0  0  0  0
    1.4804   -1.3672    1.6371 O   0  0  0  0  0  0  0  0  0  0  0  0
    0.7571   -0.8745   -0.6005 C   0  0  1  0  0  0  0  0  0  0  0  0
    0.1134   -2.1257   -0.6284 O   0  0  0  0  0  0  0  0  0  0  0  0
   -0.0388    0.1433   -1.4390 C   0  0  1  0  0  0  0  0  0  0  0  0
   -0.3039   -0.3897   -2.7774 N   0  0  0  0  0  0  0  0  0  0  0  0
   -3.9575    0.5265   -1.2087 H   0  0  0  0  0  0  0  0  0  0  0  0
   -4.2257   -1.0341   -0.3693 H   0  0  0  0  0  0  0  0  0  0  0  0
   -3.5984    0.3532    0.5752 H   0  0  0  0  0  0  0  0  0  0  0  0
   -1.7918    1.3644   -1.3239 H   0  0  0  0  0  0  0  0  0  0  0  0
   -1.1464   -0.9018    1.4540 H   0  0  0  0  0  0  0  0  0  0  0  0
    0.0316   -0.2060    3.4995 H   0  0  0  0  0  0  0  0  0  0  0  0
    0.2604    1.4611    2.8285 H   0  0  0  0  0  0  0  0  0  0  0  0
   -1.5440    1.2808    4.2029 H   0  0  0  0  0  0  0  0  0  0  0  0
    1.5303    0.5473    0.8290 H   0  0  0  0  0  0  0  0  0  0  0  0
    2.0599   -0.9116    2.3021 H   0  0  0  0  0  0  0  0  0  0  0  0
    1.7785   -0.9650   -1.0415 H   0  0  0  0  0  0  0  0  0  0  0  0
    0.8069   -2.8139   -0.4525 H   0  0  0  0  0  0  0  0  0  0  0  0
    0.5755    1.0689   -1.5361 H   0  0  0  0  0  0  0  0  0  0  0  0
    0.6135   -0.5670   -3.2480 H   0  0  0  0  0  0  0  0  0  0  0  0
   -0.7772    0.3542   -3.3403 H   0  0  0  0  0  0  0  0  0  0  0  0
  1  2  1  0
  2  3  1  0
  3  4  1  0
  4  5  1  0
  5  6  1  0
  6  7  1  0
  5  8  1  0
  8  9  1  0
  8 10  1  0
 10 11  1  0
 10 12  1  0
 12 13  1  0
 12  3  1  0
  1 14  1  0
  1 15  1  0
  1 16  1  0
  3 17  1  6
  5 18  1  1
  6 19  1  0
  6 20  1  0
  7 21  1  0
  8 22  1  6
  9 23  1  0
 10 24  1  6
 11 25  1  0
 12 26  1  6
 13 27  1  0
 13 28  1  0
M  END
>  <UniqueID>  (356) 
355

>  <SMILES>  (356) 
CO[C@H]1O[C@H](CO)[C@@H](O)[C@@H](O)[C@H]1N

>  <Energy>  (356) 
27.24741682763604

>  <Genealogy>  (356) 
CO[C@H]1O[C@H](CO)[C@@H](O)[C@@H](O)[C@H]1N (3D coordinates assigned)
CO[C@H]1O[C@H](CO)[C@@H](O)[C@@H](O)[C@H]1N (nonaromatic ring conformer: 27.24741682763604 kcal/mol)

$$$$
ZINC000082114392
     RDKit          3D

 28 28  0  0  0  0  0  0  0  0999 V2000
   -3.8524    0.5267   -0.7925 C   0  0  0  0  0  0  0  0  0  0  0  0
   -2.7221   -0.3022   -0.9558 O   0  0  0  0  0  0  0  0  0  0  0  0
   -1.5303    0.4493   -0.7863 C   0  0  1  0  0  0  0  0  0  0  0  0
   -1.3655    0.8167    0.5816 O   0  0  0  0  0  0  0  0  0  0  0  0
   -0.8476   -0.2576    1.3460 C   0  0  2  0  0  0  0  0  0  0  0  0
   -1.0259    0.0548    2.8394 C   0  0  0  0  0  0  0  0  0  0  0  0
   -0.3706    1.2448    3.1913 O   0  0  0  0  0  0  0  0  0  0  0  0
    0.6431   -0.5129    0.9842 C   0  0  1  0  0  0  0  0  0  0  0  0
    0.9383   -1.8801    1.1269 O   0  0  0  0  0  0  0  0  0  0  0  0
    0.9315   -0.0612   -0.4643 C   0  0  1  0  0  0  0  0  0  0  0  0
    2.0779   -0.7056   -0.9600 O   0  0  0  0  0  0  0  0  0  0  0  0
   -0.2947   -0.3145   -1.3708 C   0  0  1  0  0  0  0  0  0  0  0  0
   -0.5616   -1.7543   -1.4917 N   0  0  0  0  0  0  0  0  0  0  0  0
   -3.8737    0.9941    0.2166 H   0  0  0  0  0  0  0  0  0  0  0  0
   -4.7641   -0.0975   -0.8898 H   0  0  0  0  0  0  0  0  0  0  0  0
   -3.8948    1.3067   -1.5844 H   0  0  0  0  0  0  0  0  0  0  0  0
   -1.5911    1.3995   -1.3681 H   0  0  0  0  0  0  0  0  0  0  0  0
   -1.4396   -1.1831    1.1482 H   0  0  0  0  0  0  0  0  0  0  0  0
   -0.6093   -0.7759    3.4475 H   0  0  0  0  0  0  0  0  0  0  0  0
   -2.1118    0.1258    3.0797 H   0  0  0  0  0  0  0  0  0  0  0  0
   -0.9647    1.9913    2.9173 H   0  0  0  0  0  0  0  0  0  0  0  0
    1.3174    0.0798    1.6465 H   0  0  0  0  0  0  0  0  0  0  0  0
    1.0406   -2.0523    2.0990 H   0  0  0  0  0  0  0  0  0  0  0  0
    1.1206    1.0392   -0.4436 H   0  0  0  0  0  0  0  0  0  0  0  0
    2.3515   -0.2143   -1.7783 H   0  0  0  0  0  0  0  0  0  0  0  0
   -0.0712    0.0896   -2.3856 H   0  0  0  0  0  0  0  0  0  0  0  0
    0.2932   -2.2268   -1.8648 H   0  0  0  0  0  0  0  0  0  0  0  0
   -1.2898   -1.8927   -2.2298 H   0  0  0  0  0  0  0  0  0  0  0  0
  1  2  1  0
  2  3  1  0
  3  4  1  0
  4  5  1  0
  5  6  1  0
  6  7  1  0
  5  8  1  0
  8  9  1  0
  8 10  1  0
 10 11  1  0
 10 12  1  0
 12 13  1  0
 12  3  1  0
  1 14  1  0
  1 15  1  0
  1 16  1  0
  3 17  1  6
  5 18  1  6
  6 19  1  0
  6 20  1  0
  7 21  1  0
  8 22  1  1
  9 23  1  0
 10 24  1  1
 11 25  1  0
 12 26  1  6
 13 27  1  0
 13 28  1  0
M  END
>  <UniqueID>  (357) 
356

>  <SMILES>  (357) 
CO[C@H]1O[C@H](CO)[C@@H](O)[C@@H](O)[C@H]1N

>  <Energy>  (357) 
36.70887846803741

>  <Genealogy>  (357) 
CO[C@H]1O[C@H](CO)[C@@H](O)[C@@H](O)[C@H]1N (3D coordinates assigned)
CO[C@H]1O[C@H](CO)[C@@H](O)[C@@H](O)[C@H]1N (nonaromatic ring conformer: 36.70887846803741 kcal/mol)

$$$$
ZINC000082114392
     RDKit          3D

 28 28  0  0  0  0  0  0  0  0999 V2000
   -3.7703    0.7202   -0.3327 C   0  0  0  0  0  0  0  0  0  0  0  0
   -2.7157    0.1940   -1.1094 O   0  0  0  0  0  0  0  0  0  0  0  0
   -1.5037    0.2340   -0.3778 C   0  0  1  0  0  0  0  0  0  0  0  0
   -1.5203   -0.7681    0.6270 O   0  0  0  0  0  0  0  0  0  0  0  0
   -0.4175   -0.6664    1.5271 C   0  0  2  0  0  0  0  0  0  0  0  0
   -0.8369    0.0450    2.8228 C   0  0  0  0  0  0  0  0  0  0  0  0
   -1.1986    1.3744    2.5710 O   0  0  0  0  0  0  0  0  0  0  0  0
    0.8763   -0.0639    0.9053 C   0  0  1  0  0  0  0  0  0  0  0  0
    2.0007   -0.5262    1.6098 O   0  0  0  0  0  0  0  0  0  0  0  0
    0.9662   -0.4703   -0.5748 C   0  0  1  0  0  0  0  0  0  0  0  0
    1.1237   -1.8676   -0.6518 O   0  0  0  0  0  0  0  0  0  0  0  0
   -0.3078    0.0057   -1.3397 C   0  0  1  0  0  0  0  0  0  0  0  0
   -0.6760   -0.9068   -2.4289 N   0  0  0  0  0  0  0  0  0  0  0  0
   -4.7149    0.6191   -0.9054 H   0  0  0  0  0  0  0  0  0  0  0  0
   -3.6152    1.8029   -0.1303 H   0  0  0  0  0  0  0  0  0  0  0  0
   -3.8954    0.1614    0.6212 H   0  0  0  0  0  0  0  0  0  0  0  0
   -1.3740    1.2468    0.0757 H   0  0  0  0  0  0  0  0  0  0  0  0
   -0.1712   -1.7114    1.8193 H   0  0  0  0  0  0  0  0  0  0  0  0
   -1.7008   -0.4972    3.2686 H   0  0  0  0  0  0  0  0  0  0  0  0
    0.0057    0.0167    3.5498 H   0  0  0  0  0  0  0  0  0  0  0  0
   -1.4595    1.7598    3.4475 H   0  0  0  0  0  0  0  0  0  0  0  0
    0.8380    1.0497    0.9658 H   0  0  0  0  0  0  0  0  0  0  0  0
    2.7627    0.0528    1.3456 H   0  0  0  0  0  0  0  0  0  0  0  0
    1.8577    0.0365   -1.0171 H   0  0  0  0  0  0  0  0  0  0  0  0
    1.6920   -2.0562   -1.4437 H   0  0  0  0  0  0  0  0  0  0  0  0
   -0.0764    0.9929   -1.7999 H   0  0  0  0  0  0  0  0  0  0  0  0
   -0.9329   -1.8421   -2.0370 H   0  0  0  0  0  0  0  0  0  0  0  0
    0.1458   -1.0301   -3.0642 H   0  0  0  0  0  0  0  0  0  0  0  0
  1  2  1  0
  2  3  1  0
  3  4  1  0
  4  5  1  0
  5  6  1  0
  6  7  1  0
  5  8  1  0
  8  9  1  0
  8 10  1  0
 10 11  1  0
 10 12  1  0
 12 13  1  0
 12  3  1  0
  1 14  1  0
  1 15  1  0
  1 16  1  0
  3 17  1  1
  5 18  1  1
  6 19  1  0
  6 20  1  0
  7 21  1  0
  8 22  1  6
  9 23  1  0
 10 24  1  6
 11 25  1  0
 12 26  1  6
 13 27  1  0
 13 28  1  0
M  END
>  <UniqueID>  (358) 
357

>  <SMILES>  (358) 
CO[C@H]1O[C@H](CO)[C@@H](O)[C@@H](O)[C@H]1N

>  <Energy>  (358) 
37.578690392538356

>  <Genealogy>  (358) 
CO[C@H]1O[C@H](CO)[C@@H](O)[C@@H](O)[C@H]1N (3D coordinates assigned)
CO[C@H]1O[C@H](CO)[C@@H](O)[C@@H](O)[C@H]1N (nonaromatic ring conformer: 37.578690392538356 kcal/mol)

$$$$
ZINC000100342293
     RDKit          3D

 40 41  0  0  0  0  0  0  0  0999 V2000
   -5.2171   -4.3557    1.1337 C   0  0  0  0  0  0  0  0  0  0  0  0
   -4.2676   -4.3366    0.0728 O   0  0  0  0  0  0  0  0  0  0  0  0
   -3.2246   -3.4052   -0.0397 C   0  0  0  0  0  0  0  0  0  0  0  0
   -3.0187   -2.3836    0.9065 C   0  0  0  0  0  0  0  0  0  0  0  0
   -1.9642   -1.4789    0.7500 C   0  0  0  0  0  0  0  0  0  0  0  0
   -1.0982   -1.5794   -0.3535 C   0  0  0  0  0  0  0  0  0  0  0  0
    0.0216   -0.6361   -0.5422 C   0  0  0  0  0  0  0  0  0  0  0  0
    0.2447    0.3163    0.3112 N   0  0  0  0  0  0  0  0  0  0  0  0
    1.3352    1.2813    0.1673 C   0  0  1  0  0  0  0  0  0  0  0  0
    1.0495    2.2717   -0.9848 C   0  0  1  0  0  0  0  0  0  0  0  0
   -0.2143    2.8703   -0.8370 O   0  0  0  0  0  0  0  0  0  0  0  0
    2.0731    3.2509   -1.0916 O   0  0  0  0  0  0  0  0  0  0  0  0
    2.1812    4.0315    0.0898 C   0  0  2  0  0  0  0  0  0  0  0  0
    3.2100    5.1430   -0.1575 C   0  0  0  0  0  0  0  0  0  0  0  0
    4.4572    4.5925   -0.4829 O   0  0  0  0  0  0  0  0  0  0  0  0
    2.5817    3.1507    1.2970 C   0  0  1  0  0  0  0  0  0  0  0  0
    2.6704    3.9371    2.4580 O   0  0  0  0  0  0  0  0  0  0  0  0
    1.5437    2.0293    1.4934 C   0  0  1  0  0  0  0  0  0  0  0  0
    0.3210    2.5626    1.9418 O   0  0  0  0  0  0  0  0  0  0  0  0
   -1.3070   -2.5987   -1.2945 C   0  0  0  0  0  0  0  0  0  0  0  0
   -2.3615   -3.5025   -1.1367 C   0  0  0  0  0  0  0  0  0  0  0  0
   -5.7901   -3.4046    1.1504 H   0  0  0  0  0  0  0  0  0  0  0  0
   -4.7012   -4.5085    2.1052 H   0  0  0  0  0  0  0  0  0  0  0  0
   -5.9250   -5.1941    0.9717 H   0  0  0  0  0  0  0  0  0  0  0  0
   -3.6671   -2.2799    1.7658 H   0  0  0  0  0  0  0  0  0  0  0  0
   -1.8283   -0.7021    1.4922 H   0  0  0  0  0  0  0  0  0  0  0  0
    0.6651   -0.7469   -1.4082 H   0  0  0  0  0  0  0  0  0  0  0  0
    2.2764    0.7320   -0.0659 H   0  0  0  0  0  0  0  0  0  0  0  0
    1.0508    1.6869   -1.9321 H   0  0  0  0  0  0  0  0  0  0  0  0
   -0.3714    3.3993   -1.6620 H   0  0  0  0  0  0  0  0  0  0  0  0
    1.2141    4.5404    0.3089 H   0  0  0  0  0  0  0  0  0  0  0  0
    2.8554    5.7802   -0.9985 H   0  0  0  0  0  0  0  0  0  0  0  0
    3.3025    5.7862    0.7462 H   0  0  0  0  0  0  0  0  0  0  0  0
    5.0683    5.3611   -0.6264 H   0  0  0  0  0  0  0  0  0  0  0  0
    3.5727    2.6839    1.0848 H   0  0  0  0  0  0  0  0  0  0  0  0
    3.1632    3.3983    3.1308 H   0  0  0  0  0  0  0  0  0  0  0  0
    1.9350    1.3003    2.2426 H   0  0  0  0  0  0  0  0  0  0  0  0
    0.3972    2.6769    2.9249 H   0  0  0  0  0  0  0  0  0  0  0  0
   -0.6534   -2.6959   -2.1529 H   0  0  0  0  0  0  0  0  0  0  0  0
   -2.5093   -4.2837   -1.8717 H   0  0  0  0  0  0  0  0  0  0  0  0
  1  2  1  0
  2  3  1  0
  3  4  2  0
  4  5  1  0
  5  6  2  0
  6  7  1  0
  7  8  2  0
  8  9  1  0
  9 10  1  0
 10 11  1  0
 10 12  1  0
 12 13  1  0
 13 14  1  0
 14 15  1  0
 13 16  1  0
 16 17  1  0
 16 18  1  0
 18 19  1  0
  6 20  1  0
 20 21  2  0
 21  3  1  0
 18  9  1  0
  1 22  1  0
  1 23  1  0
  1 24  1  0
  4 25  1  0
  5 26  1  0
  7 27  1  0
  9 28  1  6
 10 29  1  6
 11 30  1  0
 13 31  1  1
 14 32  1  0
 14 33  1  0
 15 34  1  0
 16 35  1  6
 17 36  1  0
 18 37  1  1
 19 38  1  0
 20 39  1  0
 21 40  1  0
M  END
>  <UniqueID>  (359) 
358

>  <SMILES>  (359) 
COc1ccc(/C=N/[C@H]2[C@@H](O)O[C@H](CO)[C@@H](O)[C@H]2O)cc1

>  <Energy>  (359) 
38.451003450359124

>  <Genealogy>  (359) 
COc1ccc(/C=N/[C@H]2[C@@H](O)O[C@H](CO)[C@@H](O)[C@H]2O)cc1 (3D coordinates assigned)
COc1ccc(/C=N/[C@H]2[C@@H](O)O[C@H](CO)[C@@H](O)[C@H]2O)cc1 (nonaromatic ring conformer: 38.451003450359124 kcal/mol)

$$$$
ZINC000100342293
     RDKit          3D

 40 41  0  0  0  0  0  0  0  0999 V2000
   -5.4498   -3.0923    1.1818 C   0  0  0  0  0  0  0  0  0  0  0  0
   -4.1779   -3.6355    0.8428 O   0  0  0  0  0  0  0  0  0  0  0  0
   -3.0533   -2.8677    0.5060 C   0  0  0  0  0  0  0  0  0  0  0  0
   -3.0818   -1.4607    0.4721 C   0  0  0  0  0  0  0  0  0  0  0  0
   -1.9336   -0.7398    0.1301 C   0  0  0  0  0  0  0  0  0  0  0  0
   -0.7388   -1.4117   -0.1839 C   0  0  0  0  0  0  0  0  0  0  0  0
    0.4871   -0.6734   -0.5448 C   0  0  0  0  0  0  0  0  0  0  0  0
    0.4941    0.6235   -0.5952 N   0  0  0  0  0  0  0  0  0  0  0  0
    1.6816    1.4135   -0.9301 C   0  0  1  0  0  0  0  0  0  0  0  0
    1.2538    2.8036   -1.4377 C   0  0  1  0  0  0  0  0  0  0  0  0
    0.4281    2.6705   -2.5663 O   0  0  0  0  0  0  0  0  0  0  0  0
    0.5718    3.5417   -0.4313 O   0  0  0  0  0  0  0  0  0  0  0  0
    1.3875    3.7978    0.7070 C   0  0  2  0  0  0  0  0  0  0  0  0
    2.4814    4.8501    0.4156 C   0  0  0  0  0  0  0  0  0  0  0  0
    2.9370    5.4299    1.6098 O   0  0  0  0  0  0  0  0  0  0  0  0
    1.9248    2.4946    1.3518 C   0  0  1  0  0  0  0  0  0  0  0  0
    0.8525    1.8180    1.9611 O   0  0  0  0  0  0  0  0  0  0  0  0
    2.5980    1.5928    0.2981 C   0  0  1  0  0  0  0  0  0  0  0  0
    2.9304    0.3531    0.8687 O   0  0  0  0  0  0  0  0  0  0  0  0
   -0.7142   -2.8138   -0.1482 C   0  0  0  0  0  0  0  0  0  0  0  0
   -1.8628   -3.5333    0.1937 C   0  0  0  0  0  0  0  0  0  0  0  0
   -6.1515   -3.9226    1.4024 H   0  0  0  0  0  0  0  0  0  0  0  0
   -5.8523   -2.5030    0.3310 H   0  0  0  0  0  0  0  0  0  0  0  0
   -5.3628   -2.4510    2.0842 H   0  0  0  0  0  0  0  0  0  0  0  0
   -3.9850   -0.9150    0.7084 H   0  0  0  0  0  0  0  0  0  0  0  0
   -1.9822    0.3419    0.1128 H   0  0  0  0  0  0  0  0  0  0  0  0
    1.3911   -1.2283   -0.7702 H   0  0  0  0  0  0  0  0  0  0  0  0
    2.2505    0.9071   -1.7430 H   0  0  0  0  0  0  0  0  0  0  0  0
    2.1553    3.3561   -1.7791 H   0  0  0  0  0  0  0  0  0  0  0  0
   -0.4740    2.4047   -2.2477 H   0  0  0  0  0  0  0  0  0  0  0  0
    0.7180    4.2675    1.4615 H   0  0  0  0  0  0  0  0  0  0  0  0
    2.0415    5.6563   -0.2089 H   0  0  0  0  0  0  0  0  0  0  0  0
    3.3320    4.4186   -0.1574 H   0  0  0  0  0  0  0  0  0  0  0  0
    3.7147    4.8940    1.9147 H   0  0  0  0  0  0  0  0  0  0  0  0
    2.6777    2.7599    2.1301 H   0  0  0  0  0  0  0  0  0  0  0  0
    1.2379    1.2268    2.6595 H   0  0  0  0  0  0  0  0  0  0  0  0
    3.5377    2.0934   -0.0327 H   0  0  0  0  0  0  0  0  0  0  0  0
    3.5658   -0.0878    0.2459 H   0  0  0  0  0  0  0  0  0  0  0  0
    0.1948   -3.3533   -0.3851 H   0  0  0  0  0  0  0  0  0  0  0  0
   -1.8277   -4.6152    0.2165 H   0  0  0  0  0  0  0  0  0  0  0  0
  1  2  1  0
  2  3  1  0
  3  4  2  0
  4  5  1  0
  5  6  2  0
  6  7  1  0
  7  8  2  0
  8  9  1  0
  9 10  1  0
 10 11  1  0
 10 12  1  0
 12 13  1  0
 13 14  1  0
 14 15  1  0
 13 16  1  0
 16 17  1  0
 16 18  1  0
 18 19  1  0
  6 20  1  0
 20 21  2  0
 21  3  1  0
 18  9  1  0
  1 22  1  0
  1 23  1  0
  1 24  1  0
  4 25  1  0
  5 26  1  0
  7 27  1  0
  9 28  1  6
 10 29  1  6
 11 30  1  0
 13 31  1  1
 14 32  1  0
 14 33  1  0
 15 34  1  0
 16 35  1  1
 17 36  1  0
 18 37  1  6
 19 38  1  0
 20 39  1  0
 21 40  1  0
M  END
>  <UniqueID>  (360) 
359

>  <SMILES>  (360) 
COc1ccc(/C=N/[C@H]2[C@@H](O)O[C@H](CO)[C@@H](O)[C@H]2O)cc1

>  <Energy>  (360) 
42.74855167743627

>  <Genealogy>  (360) 
COc1ccc(/C=N/[C@H]2[C@@H](O)O[C@H](CO)[C@@H](O)[C@H]2O)cc1 (3D coordinates assigned)
COc1ccc(/C=N/[C@H]2[C@@H](O)O[C@H](CO)[C@@H](O)[C@H]2O)cc1 (nonaromatic ring conformer: 42.74855167743627 kcal/mol)

$$$$
ZINC000100342293
     RDKit          3D

 40 41  0  0  0  0  0  0  0  0999 V2000
   -4.5963   -4.1334    2.0158 C   0  0  0  0  0  0  0  0  0  0  0  0
   -4.2406   -3.8676    0.6629 O   0  0  0  0  0  0  0  0  0  0  0  0
   -3.2147   -2.9950    0.2707 C   0  0  0  0  0  0  0  0  0  0  0  0
   -2.9714   -2.8264   -1.0968 C   0  0  0  0  0  0  0  0  0  0  0  0
   -1.9606   -1.9682   -1.5391 C   0  0  0  0  0  0  0  0  0  0  0  0
   -1.1739   -1.2627   -0.6165 C   0  0  0  0  0  0  0  0  0  0  0  0
   -0.1133   -0.3610   -1.1073 C   0  0  0  0  0  0  0  0  0  0  0  0
    0.6326    0.3055   -0.2800 N   0  0  0  0  0  0  0  0  0  0  0  0
    1.6922    1.2182   -0.7174 C   0  0  1  0  0  0  0  0  0  0  0  0
    1.0988    2.5021   -1.3622 C   0  0  1  0  0  0  0  0  0  0  0  0
   -0.2284    2.7273   -0.9484 O   0  0  0  0  0  0  0  0  0  0  0  0
    1.9144    3.6305   -1.0873 O   0  0  0  0  0  0  0  0  0  0  0  0
    1.8707    3.9924    0.2895 C   0  0  2  0  0  0  0  0  0  0  0  0
    2.9371    5.0733    0.5239 C   0  0  0  0  0  0  0  0  0  0  0  0
    2.8424    5.5996    1.8210 O   0  0  0  0  0  0  0  0  0  0  0  0
    2.0863    2.7749    1.2486 C   0  0  1  0  0  0  0  0  0  0  0  0
    0.8738    2.4269    1.8688 O   0  0  0  0  0  0  0  0  0  0  0  0
    2.6233    1.5695    0.4665 C   0  0  1  0  0  0  0  0  0  0  0  0
    2.7874    0.4731    1.3302 O   0  0  0  0  0  0  0  0  0  0  0  0
   -1.4161   -1.4298    0.7587 C   0  0  0  0  0  0  0  0  0  0  0  0
   -2.4276   -2.2885    1.1996 C   0  0  0  0  0  0  0  0  0  0  0  0
   -5.4366   -4.8572    2.0343 H   0  0  0  0  0  0  0  0  0  0  0  0
   -4.9225   -3.1970    2.5159 H   0  0  0  0  0  0  0  0  0  0  0  0
   -3.7338   -4.5759    2.5575 H   0  0  0  0  0  0  0  0  0  0  0  0
   -3.5700   -3.3639   -1.8214 H   0  0  0  0  0  0  0  0  0  0  0  0
   -1.7931   -1.8553   -2.6034 H   0  0  0  0  0  0  0  0  0  0  0  0
    0.0384   -0.2541   -2.1760 H   0  0  0  0  0  0  0  0  0  0  0  0
    2.3196    0.6939   -1.4747 H   0  0  0  0  0  0  0  0  0  0  0  0
    1.0955    2.3461   -2.4651 H   0  0  0  0  0  0  0  0  0  0  0  0
   -0.5736    3.4724   -1.5060 H   0  0  0  0  0  0  0  0  0  0  0  0
    0.8867    4.4699    0.5020 H   0  0  0  0  0  0  0  0  0  0  0  0
    2.8207    5.8891   -0.2261 H   0  0  0  0  0  0  0  0  0  0  0  0
    3.9490    4.6355    0.3859 H   0  0  0  0  0  0  0  0  0  0  0  0
    2.0546    6.2037    1.8263 H   0  0  0  0  0  0  0  0  0  0  0  0
    2.8352    3.0155    2.0402 H   0  0  0  0  0  0  0  0  0  0  0  0
    0.6996    3.1167    2.5615 H   0  0  0  0  0  0  0  0  0  0  0  0
    3.6213    1.8594    0.0584 H   0  0  0  0  0  0  0  0  0  0  0  0
    3.3401   -0.1925    0.8431 H   0  0  0  0  0  0  0  0  0  0  0  0
   -0.8255   -0.8977    1.4941 H   0  0  0  0  0  0  0  0  0  0  0  0
   -2.5891   -2.3955    2.2636 H   0  0  0  0  0  0  0  0  0  0  0  0
  1  2  1  0
  2  3  1  0
  3  4  2  0
  4  5  1  0
  5  6  2  0
  6  7  1  0
  7  8  2  0
  8  9  1  0
  9 10  1  0
 10 11  1  0
 10 12  1  0
 12 13  1  0
 13 14  1  0
 14 15  1  0
 13 16  1  0
 16 17  1  0
 16 18  1  0
 18 19  1  0
  6 20  1  0
 20 21  2  0
 21  3  1  0
 18  9  1  0
  1 22  1  0
  1 23  1  0
  1 24  1  0
  4 25  1  0
  5 26  1  0
  7 27  1  0
  9 28  1  6
 10 29  1  6
 11 30  1  0
 13 31  1  1
 14 32  1  0
 14 33  1  0
 15 34  1  0
 16 35  1  1
 17 36  1  0
 18 37  1  6
 19 38  1  0
 20 39  1  0
 21 40  1  0
M  END
>  <UniqueID>  (361) 
360

>  <SMILES>  (361) 
COc1ccc(/C=N/[C@H]2[C@@H](O)O[C@H](CO)[C@@H](O)[C@H]2O)cc1

>  <Energy>  (361) 
47.51541068572338

>  <Genealogy>  (361) 
COc1ccc(/C=N/[C@H]2[C@@H](O)O[C@H](CO)[C@@H](O)[C@H]2O)cc1 (3D coordinates assigned)
COc1ccc(/C=N/[C@H]2[C@@H](O)O[C@H](CO)[C@@H](O)[C@H]2O)cc1 (nonaromatic ring conformer: 47.51541068572338 kcal/mol)

$$$$
ZINC000100656214
     RDKit          3D

 43 44  0  0  0  0  0  0  0  0999 V2000
    2.2585    0.8105   -3.9952 C   0  0  0  0  0  0  0  0  0  0  0  0
    2.5953    0.3315   -2.6161 C   0  0  0  0  0  0  0  0  0  0  0  0
    3.6319   -0.3658   -2.4513 O   0  0  0  0  0  0  0  0  0  0  0  0
    1.7841    0.6577   -1.4750 N   0  0  0  0  0  0  0  0  0  0  0  0
    0.4575    1.2858   -1.5576 C   0  0  2  0  0  0  0  0  0  0  0  0
    0.2696    2.3114   -0.4211 C   0  0  2  0  0  0  0  0  0  0  0  0
    0.5448    1.7239    0.8288 O   0  0  0  0  0  0  0  0  0  0  0  0
   -1.1781    2.8380   -0.4276 C   0  0  2  0  0  0  0  0  0  0  0  0
   -1.4023    3.6306    0.7106 O   0  0  0  0  0  0  0  0  0  0  0  0
   -2.1748    1.6507   -0.4560 C   0  0  1  0  0  0  0  0  0  0  0  0
   -3.6287    2.1422   -0.5526 C   0  0  0  0  0  0  0  0  0  0  0  0
   -4.0201    2.8056    0.6196 O   0  0  0  0  0  0  0  0  0  0  0  0
   -1.9217    0.8255   -1.5815 O   0  0  0  0  0  0  0  0  0  0  0  0
   -0.6462    0.2136   -1.4885 C   0  0  1  0  0  0  0  0  0  0  0  0
   -0.4872   -0.6564   -2.5943 O   0  0  0  0  0  0  0  0  0  0  0  0
   -0.9834   -1.9482   -2.3042 C   0  0  0  0  0  0  0  0  0  0  0  0
    0.0895   -2.7792   -1.6527 C   0  0  0  0  0  0  0  0  0  0  0  0
    1.2824   -3.0488   -2.3427 C   0  0  0  0  0  0  0  0  0  0  0  0
    2.2959   -3.7937   -1.7330 C   0  0  0  0  0  0  0  0  0  0  0  0
    2.1237   -4.2774   -0.4330 C   0  0  0  0  0  0  0  0  0  0  0  0
    0.9399   -4.0122    0.2606 C   0  0  0  0  0  0  0  0  0  0  0  0
   -0.0741   -3.2623   -0.3441 C   0  0  0  0  0  0  0  0  0  0  0  0
    1.2675    0.4186   -4.3033 H   0  0  0  0  0  0  0  0  0  0  0  0
    3.0165    0.4554   -4.7258 H   0  0  0  0  0  0  0  0  0  0  0  0
    2.2453    1.9200   -4.0137 H   0  0  0  0  0  0  0  0  0  0  0  0
    2.0713    0.2367   -0.5626 H   0  0  0  0  0  0  0  0  0  0  0  0
    0.3511    1.8366   -2.5166 H   0  0  0  0  0  0  0  0  0  0  0  0
    0.9533    3.1755   -0.6053 H   0  0  0  0  0  0  0  0  0  0  0  0
    1.4720    1.9768    1.0760 H   0  0  0  0  0  0  0  0  0  0  0  0
   -1.3321    3.4521   -1.3468 H   0  0  0  0  0  0  0  0  0  0  0  0
   -0.9020    4.4784    0.5737 H   0  0  0  0  0  0  0  0  0  0  0  0
   -2.0853    1.0565    0.4839 H   0  0  0  0  0  0  0  0  0  0  0  0
   -4.3059    1.2773   -0.7424 H   0  0  0  0  0  0  0  0  0  0  0  0
   -3.7358    2.8379   -1.4123 H   0  0  0  0  0  0  0  0  0  0  0  0
   -4.2132    2.1035    1.2940 H   0  0  0  0  0  0  0  0  0  0  0  0
   -0.5370   -0.3332   -0.5173 H   0  0  0  0  0  0  0  0  0  0  0  0
   -1.2623   -2.4334   -3.2626 H   0  0  0  0  0  0  0  0  0  0  0  0
   -1.9175   -1.9186   -1.6950 H   0  0  0  0  0  0  0  0  0  0  0  0
    1.4295   -2.6742   -3.3483 H   0  0  0  0  0  0  0  0  0  0  0  0
    3.2151   -3.9949   -2.2679 H   0  0  0  0  0  0  0  0  0  0  0  0
    2.9088   -4.8550    0.0376 H   0  0  0  0  0  0  0  0  0  0  0  0
    0.8097   -4.3848    1.2683 H   0  0  0  0  0  0  0  0  0  0  0  0
   -0.9818   -3.0559    0.2086 H   0  0  0  0  0  0  0  0  0  0  0  0
  1  2  1  0
  2  3  2  0
  2  4  1  0
  4  5  1  0
  5  6  1  0
  6  7  1  0
  6  8  1  0
  8  9  1  0
  8 10  1  0
 10 11  1  0
 11 12  1  0
 10 13  1  0
 13 14  1  0
 14 15  1  0
 15 16  1  0
 16 17  1  0
 17 18  2  0
 18 19  1  0
 19 20  2  0
 20 21  1  0
 21 22  2  0
 14  5  1  0
 22 17  1  0
  1 23  1  0
  1 24  1  0
  1 25  1  0
  4 26  1  0
  5 27  1  6
  6 28  1  6
  7 29  1  0
  8 30  1  6
  9 31  1  0
 10 32  1  1
 11 33  1  0
 11 34  1  0
 12 35  1  0
 14 36  1  1
 16 37  1  0
 16 38  1  0
 18 39  1  0
 19 40  1  0
 20 41  1  0
 21 42  1  0
 22 43  1  0
M  END
>  <UniqueID>  (362) 
361

>  <SMILES>  (362) 
CC(=O)N[C@@H]1[C@H](O)[C@H](O)[C@@H](CO)O[C@H]1OCc1ccccc1

>  <Energy>  (362) 
41.94692524823133

>  <Genealogy>  (362) 
CC(=O)N[C@@H]1[C@H](O)[C@H](O)[C@@H](CO)O[C@H]1OCc1ccccc1 (3D coordinates assigned)
CC(=O)N[C@@H]1[C@H](O)[C@H](O)[C@@H](CO)O[C@H]1OCc1ccccc1 (nonaromatic ring conformer: 41.94692524823133 kcal/mol)

$$$$
ZINC000100656214
     RDKit          3D

 43 44  0  0  0  0  0  0  0  0999 V2000
    0.7864    4.2216   -1.5689 H   0  0  0  0  0  0  0  0  0  0  0  0
    0.4910    3.5698   -0.8520 O   0  0  0  0  0  0  0  0  0  0  0  0
    0.8756    3.7369    0.4781 C   0  0  0  0  0  0  0  0  0  0  0  0
    0.5086    2.8846    1.3882 N   0  0  0  0  0  0  0  0  0  0  0  0
   -0.3066    1.6926    1.1377 C   0  0  2  0  0  0  0  0  0  0  0  0
   -1.0562    1.9069    0.3414 H   0  0  0  0  0  0  0  0  0  0  0  0
   -1.0732    1.3234    2.4205 C   0  0  2  0  0  0  0  0  0  0  0  0
   -1.8352    2.1174    2.6088 H   0  0  0  0  0  0  0  0  0  0  0  0
   -0.1764    1.2486    3.5030 O   0  0  0  0  0  0  0  0  0  0  0  0
   -0.6844    1.4932    4.3202 H   0  0  0  0  0  0  0  0  0  0  0  0
   -1.7961   -0.0247    2.2236 C   0  0  2  0  0  0  0  0  0  0  0  0
   -2.5936    0.1288    1.4626 H   0  0  0  0  0  0  0  0  0  0  0  0
   -2.4216   -0.4377    3.4149 O   0  0  0  0  0  0  0  0  0  0  0  0
   -1.7145   -0.7344    4.0452 H   0  0  0  0  0  0  0  0  0  0  0  0
   -0.8106   -1.0926    1.6812 C   0  0  1  0  0  0  0  0  0  0  0  0
   -0.0208   -1.3049    2.4399 H   0  0  0  0  0  0  0  0  0  0  0  0
   -1.5428   -2.4131    1.4035 C   0  0  0  0  0  0  0  0  0  0  0  0
   -2.3593   -2.2567    0.6607 H   0  0  0  0  0  0  0  0  0  0  0  0
   -2.0060   -2.7885    2.3404 H   0  0  0  0  0  0  0  0  0  0  0  0
   -0.6411   -3.3844    0.9453 O   0  0  0  0  0  0  0  0  0  0  0  0
   -0.5300   -3.2341   -0.0296 H   0  0  0  0  0  0  0  0  0  0  0  0
   -0.2247   -0.6389    0.4727 O   0  0  0  0  0  0  0  0  0  0  0  0
    0.5815    0.5068    0.6965 C   0  0  1  0  0  0  0  0  0  0  0  0
    1.3242    0.3138    1.5116 H   0  0  0  0  0  0  0  0  0  0  0  0
    1.2188    0.8457   -0.5242 O   0  0  0  0  0  0  0  0  0  0  0  0
    2.4883    0.2294   -0.6409 C   0  0  0  0  0  0  0  0  0  0  0  0
    3.0105    0.6882   -1.5069 H   0  0  0  0  0  0  0  0  0  0  0  0
    3.1357    0.4465    0.2394 H   0  0  0  0  0  0  0  0  0  0  0  0
    2.3644   -1.2504   -0.8997 C   0  0  0  0  0  0  0  0  0  0  0  0
    2.7201   -2.1794    0.0922 C   0  0  0  0  0  0  0  0  0  0  0  0
    3.0992   -1.8434    1.0493 H   0  0  0  0  0  0  0  0  0  0  0  0
    2.5822   -3.5503   -0.1463 C   0  0  0  0  0  0  0  0  0  0  0  0
    2.8580   -4.2628    0.6203 H   0  0  0  0  0  0  0  0  0  0  0  0
    2.0823   -4.0015   -1.3711 C   0  0  0  0  0  0  0  0  0  0  0  0
    1.9733   -5.0628   -1.5529 H   0  0  0  0  0  0  0  0  0  0  0  0
    1.7156   -3.0821   -2.3580 C   0  0  0  0  0  0  0  0  0  0  0  0
    1.3225   -3.4324   -3.3035 H   0  0  0  0  0  0  0  0  0  0  0  0
    1.8533   -1.7104   -2.1239 C   0  0  0  0  0  0  0  0  0  0  0  0
    1.5608   -1.0067   -2.8934 H   0  0  0  0  0  0  0  0  0  0  0  0
    1.7387    4.8954    0.8606 C   0  0  0  0  0  0  0  0  0  0  0  0
    1.6989    5.0713    1.9569 H   0  0  0  0  0  0  0  0  0  0  0  0
    1.3886    5.8119    0.3414 H   0  0  0  0  0  0  0  0  0  0  0  0
    2.7874    4.6864    0.5639 H   0  0  0  0  0  0  0  0  0  0  0  0
  1  2  1  0
  2  3  1  0
  3  4  2  0
  4  5  1  0
  5  6  1  6
  5  7  1  0
  7  8  1  1
  7  9  1  0
  9 10  1  0
  7 11  1  0
 11 12  1  6
 11 13  1  0
 13 14  1  0
 11 15  1  0
 15 16  1  1
 15 17  1  0
 17 18  1  0
 17 19  1  0
 17 20  1  0
 20 21  1  0
 15 22  1  0
 22 23  1  0
 23 24  1  1
 23 25  1  0
 25 26  1  0
 26 27  1  0
 26 28  1  0
 26 29  1  0
 29 30  2  0
 30 31  1  0
 30 32  1  0
 32 33  1  0
 32 34  2  0
 34 35  1  0
 34 36  1  0
 36 37  1  0
 36 38  2  0
 38 39  1  0
  3 40  1  0
 40 41  1  0
 40 42  1  0
 40 43  1  0
 23  5  1  0
 38 29  1  0
M  END
>  <UniqueID>  (363) 
362

>  <SMILES>  (363) 
C/C(O)=N/[C@@H]1[C@H](O)[C@H](O)[C@@H](CO)O[C@H]1OCc1ccccc1

>  <Energy>  (363) 
42.3123473670732

>  <Genealogy>  (363) 
CC(O)=N[C@@H]1[C@H](O)[C@H](O)[C@@H](CO)O[C@H]1OCc1ccccc1 (tautomer)
C/C(O)=N/[C@@H]1[C@H](O)[C@H](O)[C@@H](CO)O[C@H]1OCc1ccccc1 (cis-trans isomerization)
C/C(O)=N/[C@@H]1[C@H](O)[C@H](O)[C@@H](CO)O[C@H]1OCc1ccccc1 (3D coordinates assigned)
C/C(O)=N/[C@@H]1[C@H](O)[C@H](O)[C@@H](CO)O[C@H]1OCc1ccccc1 (nonaromatic ring conformer: 42.3123473670732 kcal/mol)

$$$$
ZINC000100656214
     RDKit          3D

 43 44  0  0  0  0  0  0  0  0999 V2000
   -1.1736   -1.1857    2.6960 H   0  0  0  0  0  0  0  0  0  0  0  0
   -0.1748   -1.1556    2.8458 O   0  0  0  0  0  0  0  0  0  0  0  0
    0.7695   -1.2385    1.8185 C   0  0  0  0  0  0  0  0  0  0  0  0
    0.4350   -1.3431    0.5636 N   0  0  0  0  0  0  0  0  0  0  0  0
   -0.9182   -1.3310   -0.0011 C   0  0  2  0  0  0  0  0  0  0  0  0
   -1.6211   -1.8793    0.6632 H   0  0  0  0  0  0  0  0  0  0  0  0
   -0.9089   -2.0653   -1.3563 C   0  0  2  0  0  0  0  0  0  0  0  0
   -0.7371   -3.1535   -1.1753 H   0  0  0  0  0  0  0  0  0  0  0  0
    0.1031   -1.5527   -2.1903 O   0  0  0  0  0  0  0  0  0  0  0  0
    0.9397   -2.0381   -1.9666 H   0  0  0  0  0  0  0  0  0  0  0  0
   -2.2741   -1.9072   -2.0505 C   0  0  2  0  0  0  0  0  0  0  0  0
   -3.0428   -2.4610   -1.4602 H   0  0  0  0  0  0  0  0  0  0  0  0
   -2.2089   -2.4312   -3.3524 O   0  0  0  0  0  0  0  0  0  0  0  0
   -2.2161   -3.4201   -3.2634 H   0  0  0  0  0  0  0  0  0  0  0  0
   -2.6740   -0.4116   -2.0943 C   0  0  1  0  0  0  0  0  0  0  0  0
   -1.9525    0.1574   -2.7270 H   0  0  0  0  0  0  0  0  0  0  0  0
   -4.0716   -0.2215   -2.7076 C   0  0  0  0  0  0  0  0  0  0  0  0
   -4.8080   -0.8619   -2.1764 H   0  0  0  0  0  0  0  0  0  0  0  0
   -4.3977    0.8358   -2.5762 H   0  0  0  0  0  0  0  0  0  0  0  0
   -4.0802   -0.5536   -4.0702 O   0  0  0  0  0  0  0  0  0  0  0  0
   -3.6299    0.1913   -4.5477 H   0  0  0  0  0  0  0  0  0  0  0  0
   -2.7006    0.1232   -0.7815 O   0  0  0  0  0  0  0  0  0  0  0  0
   -1.4060    0.1209   -0.2036 C   0  0  1  0  0  0  0  0  0  0  0  0
   -0.6721    0.6334   -0.8761 H   0  0  0  0  0  0  0  0  0  0  0  0
   -1.4849    0.7564    1.0593 O   0  0  0  0  0  0  0  0  0  0  0  0
   -1.2297    2.1436    0.9559 C   0  0  0  0  0  0  0  0  0  0  0  0
   -1.6296    2.5883    0.0137 H   0  0  0  0  0  0  0  0  0  0  0  0
   -1.7703    2.6551    1.7802 H   0  0  0  0  0  0  0  0  0  0  0  0
    0.2433    2.4063    1.1181 C   0  0  0  0  0  0  0  0  0  0  0  0
    1.0315    2.7703    0.0139 C   0  0  0  0  0  0  0  0  0  0  0  0
    0.5828    2.9003   -0.9631 H   0  0  0  0  0  0  0  0  0  0  0  0
    2.4087    2.9601    0.1648 C   0  0  0  0  0  0  0  0  0  0  0  0
    3.0125    3.2396   -0.6889 H   0  0  0  0  0  0  0  0  0  0  0  0
    3.0077    2.7841    1.4153 C   0  0  0  0  0  0  0  0  0  0  0  0
    4.0742    2.9281    1.5296 H   0  0  0  0  0  0  0  0  0  0  0  0
    2.2303    2.4178    2.5173 C   0  0  0  0  0  0  0  0  0  0  0  0
    2.6959    2.2744    3.4837 H   0  0  0  0  0  0  0  0  0  0  0  0
    0.8532    2.2266    2.3705 C   0  0  0  0  0  0  0  0  0  0  0  0
    0.2634    1.9282    3.2285 H   0  0  0  0  0  0  0  0  0  0  0  0
    2.2169   -1.2365    2.1781 C   0  0  0  0  0  0  0  0  0  0  0  0
    2.3528   -0.8551    3.2119 H   0  0  0  0  0  0  0  0  0  0  0  0
    2.7812   -0.5807    1.4813 H   0  0  0  0  0  0  0  0  0  0  0  0
    2.6168   -2.2699    2.1159 H   0  0  0  0  0  0  0  0  0  0  0  0
  1  2  1  0
  2  3  1  0
  3  4  2  0
  4  5  1  0
  5  6  1  1
  5  7  1  0
  7  8  1  1
  7  9  1  0
  9 10  1  0
  7 11  1  0
 11 12  1  1
 11 13  1  0
 13 14  1  0
 11 15  1  0
 15 16  1  6
 15 17  1  0
 17 18  1  0
 17 19  1  0
 17 20  1  0
 20 21  1  0
 15 22  1  0
 22 23  1  0
 23 24  1  6
 23 25  1  0
 25 26  1  0
 26 27  1  0
 26 28  1  0
 26 29  1  0
 29 30  2  0
 30 31  1  0
 30 32  1  0
 32 33  1  0
 32 34  2  0
 34 35  1  0
 34 36  1  0
 36 37  1  0
 36 38  2  0
 38 39  1  0
  3 40  1  0
 40 41  1  0
 40 42  1  0
 40 43  1  0
 23  5  1  0
 38 29  1  0
M  END
>  <UniqueID>  (364) 
363

>  <SMILES>  (364) 
C/C(O)=N\[C@@H]1[C@H](O)[C@H](O)[C@@H](CO)O[C@H]1OCc1ccccc1

>  <Energy>  (364) 
42.59225578325462

>  <Genealogy>  (364) 
CC(O)=N[C@@H]1[C@H](O)[C@H](O)[C@@H](CO)O[C@H]1OCc1ccccc1 (tautomer)
C/C(O)=N\[C@@H]1[C@H](O)[C@H](O)[C@@H](CO)O[C@H]1OCc1ccccc1 (cis-trans isomerization)
C/C(O)=N\[C@@H]1[C@H](O)[C@H](O)[C@@H](CO)O[C@H]1OCc1ccccc1 (3D coordinates assigned)
C/C(O)=N\[C@@H]1[C@H](O)[C@H](O)[C@@H](CO)O[C@H]1OCc1ccccc1 (nonaromatic ring conformer: 42.59225578325462 kcal/mol)

$$$$
ZINC000100815672
     RDKit          3D

 43 44  0  0  0  0  0  0  0  0999 V2000
   -3.3509    1.3094   -0.7298 O   0  0  0  0  0  0  0  0  0  0  0  0
   -2.9261    1.3214    0.4577 C   0  0  0  0  0  0  0  0  0  0  0  0
   -1.7499    0.5823    0.8135 N   0  0  0  0  0  0  0  0  0  0  0  0
   -0.9887   -0.2067   -0.1624 C   0  0  2  0  0  0  0  0  0  0  0  0
   -1.6997   -1.5442   -0.4410 C   0  0  2  0  0  0  0  0  0  0  0  0
   -1.9749   -2.1959    0.7758 O   0  0  0  0  0  0  0  0  0  0  0  0
   -0.8128   -2.4296   -1.3357 C   0  0  2  0  0  0  0  0  0  0  0  0
   -1.3890   -3.7075   -1.4445 O   0  0  0  0  0  0  0  0  0  0  0  0
    0.6130   -2.5233   -0.7357 C   0  0  1  0  0  0  0  0  0  0  0  0
    1.5486   -3.3659   -1.6177 C   0  0  0  0  0  0  0  0  0  0  0  0
    1.6406   -2.8366   -2.9139 O   0  0  0  0  0  0  0  0  0  0  0  0
    1.1738   -1.2284   -0.5925 O   0  0  0  0  0  0  0  0  0  0  0  0
    0.4436   -0.4632    0.3516 C   0  0  1  0  0  0  0  0  0  0  0  0
    1.0852    0.7909    0.5046 O   0  0  0  0  0  0  0  0  0  0  0  0
    2.0515    0.7490    1.5363 C   0  0  0  0  0  0  0  0  0  0  0  0
    1.4026    1.0318    2.8653 C   0  0  0  0  0  0  0  0  0  0  0  0
    1.3439    0.0405    3.8590 C   0  0  0  0  0  0  0  0  0  0  0  0
    0.6997    0.2990    5.0730 C   0  0  0  0  0  0  0  0  0  0  0  0
    0.1077    1.5444    5.3011 C   0  0  0  0  0  0  0  0  0  0  0  0
    0.1592    2.5340    4.3156 C   0  0  0  0  0  0  0  0  0  0  0  0
    0.8040    2.2803    3.1013 C   0  0  0  0  0  0  0  0  0  0  0  0
   -3.6511    2.1124    1.5027 C   0  0  0  0  0  0  0  0  0  0  0  0
   -4.1037    1.2604    2.4927 F   0  0  0  0  0  0  0  0  0  0  0  0
   -4.7320    2.7758    0.9489 F   0  0  0  0  0  0  0  0  0  0  0  0
   -2.7897    3.0398    2.0591 F   0  0  0  0  0  0  0  0  0  0  0  0
   -1.4232    0.6246    1.8060 H   0  0  0  0  0  0  0  0  0  0  0  0
   -0.9102    0.3673   -1.1139 H   0  0  0  0  0  0  0  0  0  0  0  0
   -2.6523   -1.3305   -0.9808 H   0  0  0  0  0  0  0  0  0  0  0  0
   -2.7525   -2.7922    0.6173 H   0  0  0  0  0  0  0  0  0  0  0  0
   -0.7576   -1.9427   -2.3395 H   0  0  0  0  0  0  0  0  0  0  0  0
   -1.1798   -4.0470   -2.3536 H   0  0  0  0  0  0  0  0  0  0  0  0
    0.5661   -3.0354    0.2542 H   0  0  0  0  0  0  0  0  0  0  0  0
    1.1698   -4.4077   -1.6824 H   0  0  0  0  0  0  0  0  0  0  0  0
    2.5582   -3.4176   -1.1492 H   0  0  0  0  0  0  0  0  0  0  0  0
    2.2653   -2.0668   -2.8650 H   0  0  0  0  0  0  0  0  0  0  0  0
    0.3685   -1.0102    1.3259 H   0  0  0  0  0  0  0  0  0  0  0  0
    2.8004    1.5449    1.3394 H   0  0  0  0  0  0  0  0  0  0  0  0
    2.6223   -0.2098    1.5453 H   0  0  0  0  0  0  0  0  0  0  0  0
    1.7882   -0.9328    3.6918 H   0  0  0  0  0  0  0  0  0  0  0  0
    0.6557   -0.4679    5.8354 H   0  0  0  0  0  0  0  0  0  0  0  0
   -0.3931    1.7415    6.2401 H   0  0  0  0  0  0  0  0  0  0  0  0
   -0.3040    3.4963    4.4911 H   0  0  0  0  0  0  0  0  0  0  0  0
    0.8284    3.0511    2.3408 H   0  0  0  0  0  0  0  0  0  0  0  0
  1  2  2  0
  2  3  1  0
  3  4  1  0
  4  5  1  0
  5  6  1  0
  5  7  1  0
  7  8  1  0
  7  9  1  0
  9 10  1  0
 10 11  1  0
  9 12  1  0
 12 13  1  0
 13 14  1  0
 14 15  1  0
 15 16  1  0
 16 17  2  0
 17 18  1  0
 18 19  2  0
 19 20  1  0
 20 21  2  0
  2 22  1  0
 22 23  1  0
 22 24  1  0
 22 25  1  0
 13  4  1  0
 21 16  1  0
  3 26  1  0
  4 27  1  6
  5 28  1  6
  6 29  1  0
  7 30  1  6
  8 31  1  0
  9 32  1  1
 10 33  1  0
 10 34  1  0
 11 35  1  0
 13 36  1  1
 15 37  1  0
 15 38  1  0
 17 39  1  0
 18 40  1  0
 19 41  1  0
 20 42  1  0
 21 43  1  0
M  END
>  <UniqueID>  (365) 
364

>  <SMILES>  (365) 
O=C(N[C@@H]1[C@H](O)[C@H](O)[C@@H](CO)O[C@H]1OCc1ccccc1)C(F)(F)F

>  <Energy>  (365) 
41.029136328308674

>  <Genealogy>  (365) 
O=C(N[C@@H]1[C@H](O)[C@H](O)[C@@H](CO)O[C@H]1OCc1ccccc1)C(F)(F)F (3D coordinates assigned)
O=C(N[C@@H]1[C@H](O)[C@H](O)[C@@H](CO)O[C@H]1OCc1ccccc1)C(F)(F)F (nonaromatic ring conformer: 41.029136328308674 kcal/mol)

$$$$
ZINC000100815672
     RDKit          3D

 43 44  0  0  0  0  0  0  0  0999 V2000
   -3.2513   -1.3768    2.0684 H   0  0  0  0  0  0  0  0  0  0  0  0
   -2.9626   -0.9982    1.1743 O   0  0  0  0  0  0  0  0  0  0  0  0
   -3.0953   -1.7380   -0.0010 C   0  0  0  0  0  0  0  0  0  0  0  0
   -2.7120   -1.2433   -1.1412 N   0  0  0  0  0  0  0  0  0  0  0  0
   -2.0923    0.0734   -1.3174 C   0  0  2  0  0  0  0  0  0  0  0  0
   -2.5539    0.8041   -0.6140 H   0  0  0  0  0  0  0  0  0  0  0  0
   -2.3484    0.5758   -2.7518 C   0  0  2  0  0  0  0  0  0  0  0  0
   -3.4358    0.8000   -2.8673 H   0  0  0  0  0  0  0  0  0  0  0  0
   -1.9560   -0.3941   -3.6935 O   0  0  0  0  0  0  0  0  0  0  0  0
   -2.7217   -1.0153   -3.8087 H   0  0  0  0  0  0  0  0  0  0  0  0
   -1.5633    1.8773   -2.9959 C   0  0  2  0  0  0  0  0  0  0  0  0
   -2.0013    2.6789   -2.3556 H   0  0  0  0  0  0  0  0  0  0  0  0
   -1.6530    2.2477   -4.3482 O   0  0  0  0  0  0  0  0  0  0  0  0
   -2.5673    2.6101   -4.4849 H   0  0  0  0  0  0  0  0  0  0  0  0
   -0.0811    1.6774   -2.5995 C   0  0  1  0  0  0  0  0  0  0  0  0
    0.3797    0.9091   -3.2645 H   0  0  0  0  0  0  0  0  0  0  0  0
    0.7366    2.9639   -2.7897 C   0  0  0  0  0  0  0  0  0  0  0  0
    1.8005    2.7460   -2.5559 H   0  0  0  0  0  0  0  0  0  0  0  0
    0.7009    3.2997   -3.8522 H   0  0  0  0  0  0  0  0  0  0  0  0
    0.2943    3.9748   -1.9223 O   0  0  0  0  0  0  0  0  0  0  0  0
   -0.3805    4.5070   -2.4190 H   0  0  0  0  0  0  0  0  0  0  0  0
    0.0168    1.2762   -1.2431 O   0  0  0  0  0  0  0  0  0  0  0  0
   -0.5721   -0.0004   -1.0497 C   0  0  1  0  0  0  0  0  0  0  0  0
   -0.1330   -0.7540   -1.7516 H   0  0  0  0  0  0  0  0  0  0  0  0
   -0.3728   -0.3913    0.2944 O   0  0  0  0  0  0  0  0  0  0  0  0
    0.9320   -0.8975    0.4764 C   0  0  0  0  0  0  0  0  0  0  0  0
    1.6966   -0.1414    0.1845 H   0  0  0  0  0  0  0  0  0  0  0  0
    1.0898   -1.8114   -0.1408 H   0  0  0  0  0  0  0  0  0  0  0  0
    1.1031   -1.2666    1.9208 C   0  0  0  0  0  0  0  0  0  0  0  0
    0.5260   -2.4482    2.4150 C   0  0  0  0  0  0  0  0  0  0  0  0
   -0.0190   -3.1100    1.7528 H   0  0  0  0  0  0  0  0  0  0  0  0
    0.6462   -2.7781    3.7685 C   0  0  0  0  0  0  0  0  0  0  0  0
    0.2030   -3.6915    4.1437 H   0  0  0  0  0  0  0  0  0  0  0  0
    1.3333   -1.9270    4.6384 C   0  0  0  0  0  0  0  0  0  0  0  0
    1.4245   -2.1830    5.6861 H   0  0  0  0  0  0  0  0  0  0  0  0
    1.8968   -0.7418    4.1571 C   0  0  0  0  0  0  0  0  0  0  0  0
    2.4219   -0.0797    4.8334 H   0  0  0  0  0  0  0  0  0  0  0  0
    1.7780   -0.4075    2.8043 C   0  0  0  0  0  0  0  0  0  0  0  0
    2.2100    0.5194    2.4478 H   0  0  0  0  0  0  0  0  0  0  0  0
   -3.6892   -3.1130    0.0548 C   0  0  0  0  0  0  0  0  0  0  0  0
   -4.9712   -3.0387    0.5662 F   0  0  0  0  0  0  0  0  0  0  0  0
   -2.9172   -3.9117    0.8774 F   0  0  0  0  0  0  0  0  0  0  0  0
   -3.7395   -3.6816   -1.2066 F   0  0  0  0  0  0  0  0  0  0  0  0
  1  2  1  0
  2  3  1  0
  3  4  2  0
  4  5  1  0
  5  6  1  1
  5  7  1  0
  7  8  1  1
  7  9  1  0
  9 10  1  0
  7 11  1  0
 11 12  1  1
 11 13  1  0
 13 14  1  0
 11 15  1  0
 15 16  1  6
 15 17  1  0
 17 18  1  0
 17 19  1  0
 17 20  1  0
 20 21  1  0
 15 22  1  0
 22 23  1  0
 23 24  1  6
 23 25  1  0
 25 26  1  0
 26 27  1  0
 26 28  1  0
 26 29  1  0
 29 30  2  0
 30 31  1  0
 30 32  1  0
 32 33  1  0
 32 34  2  0
 34 35  1  0
 34 36  1  0
 36 37  1  0
 36 38  2  0
 38 39  1  0
  3 40  1  0
 40 41  1  0
 40 42  1  0
 40 43  1  0
 23  5  1  0
 38 29  1  0
M  END
>  <UniqueID>  (366) 
365

>  <SMILES>  (366) 
OC[C@H]1O[C@@H](OCc2ccccc2)[C@H](/N=C(\O)C(F)(F)F)[C@H](O)[C@@H]1O

>  <Energy>  (366) 
41.47782208520052

>  <Genealogy>  (366) 
OC[C@H]1O[C@@H](OCc2ccccc2)[C@H](N=C(O)C(F)(F)F)[C@H](O)[C@@H]1O (tautomer)
OC[C@H]1O[C@@H](OCc2ccccc2)[C@H](/N=C(\O)C(F)(F)F)[C@H](O)[C@@H]1O (cis-trans isomerization)
OC[C@H]1O[C@@H](OCc2ccccc2)[C@H](/N=C(\O)C(F)(F)F)[C@H](O)[C@@H]1O (3D coordinates assigned)
OC[C@H]1O[C@@H](OCc2ccccc2)[C@H](/N=C(\O)C(F)(F)F)[C@H](O)[C@@H]1O (nonaromatic ring conformer: 41.47782208520052 kcal/mol)

$$$$
ZINC000100815672
     RDKit          3D

 43 44  0  0  0  0  0  0  0  0999 V2000
   -2.8598    2.4520   -0.6083 O   0  0  0  0  0  0  0  0  0  0  0  0
   -3.5090    1.6536    0.1210 C   0  0  0  0  0  0  0  0  0  0  0  0
   -3.0264    0.3213    0.3503 N   0  0  0  0  0  0  0  0  0  0  0  0
   -1.7304   -0.1529   -0.1496 C   0  0  2  0  0  0  0  0  0  0  0  0
   -1.8599   -1.5745   -0.7297 C   0  0  2  0  0  0  0  0  0  0  0  0
   -2.4635   -2.4275    0.2135 O   0  0  0  0  0  0  0  0  0  0  0  0
   -0.4648   -2.1059   -1.1091 C   0  0  2  0  0  0  0  0  0  0  0  0
   -0.5667   -3.4590   -1.4787 O   0  0  0  0  0  0  0  0  0  0  0  0
    0.5061   -1.9389    0.0870 C   0  0  1  0  0  0  0  0  0  0  0  0
    1.9220   -2.3991   -0.2891 C   0  0  0  0  0  0  0  0  0  0  0  0
    2.7918   -2.2430    0.7999 O   0  0  0  0  0  0  0  0  0  0  0  0
    0.5666   -0.5770    0.4794 O   0  0  0  0  0  0  0  0  0  0  0  0
   -0.6846   -0.1360    0.9812 C   0  0  1  0  0  0  0  0  0  0  0  0
   -0.5409    1.2007    1.4337 O   0  0  0  0  0  0  0  0  0  0  0  0
   -0.1992    1.2533    2.8068 C   0  0  0  0  0  0  0  0  0  0  0  0
    1.2263    0.8226    3.0403 C   0  0  0  0  0  0  0  0  0  0  0  0
    1.5066   -0.3955    3.6816 C   0  0  0  0  0  0  0  0  0  0  0  0
    2.8311   -0.7997    3.8756 C   0  0  0  0  0  0  0  0  0  0  0  0
    3.8820    0.0040    3.4246 C   0  0  0  0  0  0  0  0  0  0  0  0
    3.6099    1.2116    2.7756 C   0  0  0  0  0  0  0  0  0  0  0  0
    2.2867    1.6201    2.5811 C   0  0  0  0  0  0  0  0  0  0  0  0
   -4.7808    2.1063    0.7701 C   0  0  0  0  0  0  0  0  0  0  0  0
   -5.8022    1.2327    0.4461 F   0  0  0  0  0  0  0  0  0  0  0  0
   -5.1216    3.3766    0.3395 F   0  0  0  0  0  0  0  0  0  0  0  0
   -4.6145    2.1242    2.1422 F   0  0  0  0  0  0  0  0  0  0  0  0
   -3.5527   -0.2790    1.0253 H   0  0  0  0  0  0  0  0  0  0  0  0
   -1.3718    0.5115   -0.9680 H   0  0  0  0  0  0  0  0  0  0  0  0
   -2.4898   -1.5177   -1.6493 H   0  0  0  0  0  0  0  0  0  0  0  0
   -2.9005   -3.1601   -0.2944 H   0  0  0  0  0  0  0  0  0  0  0  0
   -0.0911   -1.4956   -1.9674 H   0  0  0  0  0  0  0  0  0  0  0  0
    0.0887   -3.6149   -2.2078 H   0  0  0  0  0  0  0  0  0  0  0  0
    0.1691   -2.5760    0.9386 H   0  0  0  0  0  0  0  0  0  0  0  0
    1.9062   -3.4752   -0.5622 H   0  0  0  0  0  0  0  0  0  0  0  0
    2.2948   -1.8295   -1.1721 H   0  0  0  0  0  0  0  0  0  0  0  0
    3.0996   -1.2993    0.7875 H   0  0  0  0  0  0  0  0  0  0  0  0
   -1.0447   -0.8141    1.7958 H   0  0  0  0  0  0  0  0  0  0  0  0
   -0.3000    2.3071    3.1422 H   0  0  0  0  0  0  0  0  0  0  0  0
   -0.9175    0.6769    3.4338 H   0  0  0  0  0  0  0  0  0  0  0  0
    0.7021   -1.0327    4.0269 H   0  0  0  0  0  0  0  0  0  0  0  0
    3.0428   -1.7385    4.3706 H   0  0  0  0  0  0  0  0  0  0  0  0
    4.9065   -0.3118    3.5727 H   0  0  0  0  0  0  0  0  0  0  0  0
    4.4242    1.8301    2.4212 H   0  0  0  0  0  0  0  0  0  0  0  0
    2.0872    2.5550    2.0720 H   0  0  0  0  0  0  0  0  0  0  0  0
  1  2  2  0
  2  3  1  0
  3  4  1  0
  4  5  1  0
  5  6  1  0
  5  7  1  0
  7  8  1  0
  7  9  1  0
  9 10  1  0
 10 11  1  0
  9 12  1  0
 12 13  1  0
 13 14  1  0
 14 15  1  0
 15 16  1  0
 16 17  2  0
 17 18  1  0
 18 19  2  0
 19 20  1  0
 20 21  2  0
  2 22  1  0
 22 23  1  0
 22 24  1  0
 22 25  1  0
 13  4  1  0
 21 16  1  0
  3 26  1  0
  4 27  1  6
  5 28  1  6
  6 29  1  0
  7 30  1  6
  8 31  1  0
  9 32  1  1
 10 33  1  0
 10 34  1  0
 11 35  1  0
 13 36  1  1
 15 37  1  0
 15 38  1  0
 17 39  1  0
 18 40  1  0
 19 41  1  0
 20 42  1  0
 21 43  1  0
M  END
>  <UniqueID>  (367) 
366

>  <SMILES>  (367) 
O=C(N[C@@H]1[C@H](O)[C@H](O)[C@@H](CO)O[C@H]1OCc1ccccc1)C(F)(F)F

>  <Energy>  (367) 
41.79746186560937

>  <Genealogy>  (367) 
O=C(N[C@@H]1[C@H](O)[C@H](O)[C@@H](CO)O[C@H]1OCc1ccccc1)C(F)(F)F (3D coordinates assigned)
O=C(N[C@@H]1[C@H](O)[C@H](O)[C@@H](CO)O[C@H]1OCc1ccccc1)C(F)(F)F (nonaromatic ring conformer: 41.79746186560937 kcal/mol)

$$$$
ZINC000101073479
     RDKit          3D

 40 41  0  0  0  0  0  0  0  0999 V2000
    2.7466   -4.1636    3.5087 C   0  0  0  0  0  0  0  0  0  0  0  0
    2.8535   -2.8108    3.0774 O   0  0  0  0  0  0  0  0  0  0  0  0
    1.7644   -1.9398    2.9258 C   0  0  0  0  0  0  0  0  0  0  0  0
    0.4396   -2.3322    3.1973 C   0  0  0  0  0  0  0  0  0  0  0  0
   -0.6122   -1.4264    3.0280 C   0  0  0  0  0  0  0  0  0  0  0  0
   -0.3610   -0.1272    2.5676 C   0  0  0  0  0  0  0  0  0  0  0  0
   -1.4836    0.8206    2.4277 C   0  0  0  0  0  0  0  0  0  0  0  0
   -1.7920    1.4260    1.3159 N   0  0  0  0  0  0  0  0  0  0  0  0
   -1.1179    1.3073    0.0175 C   0  0  2  0  0  0  0  0  0  0  0  0
   -0.4141    2.6310   -0.3289 C   0  0  2  0  0  0  0  0  0  0  0  0
   -1.3203    3.6995   -0.1938 O   0  0  0  0  0  0  0  0  0  0  0  0
    0.1310    2.5710   -1.7702 C   0  0  2  0  0  0  0  0  0  0  0  0
    0.6298    3.8285   -2.1487 O   0  0  0  0  0  0  0  0  0  0  0  0
   -0.9914    2.1241   -2.7399 C   0  0  1  0  0  0  0  0  0  0  0  0
   -0.4667    1.9775   -4.1751 C   0  0  0  0  0  0  0  0  0  0  0  0
   -0.1525    3.2325   -4.7132 O   0  0  0  0  0  0  0  0  0  0  0  0
   -1.5122    0.8677   -2.3363 O   0  0  0  0  0  0  0  0  0  0  0  0
   -2.1515    0.9645   -1.0760 C   0  0  1  0  0  0  0  0  0  0  0  0
   -2.7377   -0.2789   -0.7910 O   0  0  0  0  0  0  0  0  0  0  0  0
    0.9616    0.2727    2.3244 C   0  0  0  0  0  0  0  0  0  0  0  0
    2.0134   -0.6322    2.4933 C   0  0  0  0  0  0  0  0  0  0  0  0
    3.7588   -4.6164    3.5362 H   0  0  0  0  0  0  0  0  0  0  0  0
    2.3104   -4.2056    4.5291 H   0  0  0  0  0  0  0  0  0  0  0  0
    2.1174   -4.7419    2.7996 H   0  0  0  0  0  0  0  0  0  0  0  0
    0.2124   -3.3318    3.5416 H   0  0  0  0  0  0  0  0  0  0  0  0
   -1.6254   -1.7427    3.2453 H   0  0  0  0  0  0  0  0  0  0  0  0
   -2.1377    0.9543    3.2791 H   0  0  0  0  0  0  0  0  0  0  0  0
   -0.3660    0.4890    0.0266 H   0  0  0  0  0  0  0  0  0  0  0  0
    0.4398    2.7710    0.3729 H   0  0  0  0  0  0  0  0  0  0  0  0
   -0.7828    4.5180   -0.0299 H   0  0  0  0  0  0  0  0  0  0  0  0
    0.9518    1.8156   -1.8094 H   0  0  0  0  0  0  0  0  0  0  0  0
    1.4929    3.9484   -1.6728 H   0  0  0  0  0  0  0  0  0  0  0  0
   -1.8032    2.8894   -2.7607 H   0  0  0  0  0  0  0  0  0  0  0  0
    0.4320    1.3201   -4.1869 H   0  0  0  0  0  0  0  0  0  0  0  0
   -1.2556    1.5021   -4.8004 H   0  0  0  0  0  0  0  0  0  0  0  0
    0.1912    3.0616   -5.6284 H   0  0  0  0  0  0  0  0  0  0  0  0
   -2.9528    1.7443   -1.1122 H   0  0  0  0  0  0  0  0  0  0  0  0
   -3.4526   -0.1192   -0.1207 H   0  0  0  0  0  0  0  0  0  0  0  0
    1.1822    1.2857    2.0183 H   0  0  0  0  0  0  0  0  0  0  0  0
    3.0289   -0.3134    2.2947 H   0  0  0  0  0  0  0  0  0  0  0  0
  1  2  1  0
  2  3  1  0
  3  4  2  0
  4  5  1  0
  5  6  2  0
  6  7  1  0
  7  8  2  0
  8  9  1  0
  9 10  1  0
 10 11  1  0
 10 12  1  0
 12 13  1  0
 12 14  1  0
 14 15  1  0
 15 16  1  0
 14 17  1  0
 17 18  1  0
 18 19  1  0
  6 20  1  0
 20 21  2  0
 21  3  1  0
 18  9  1  0
  1 22  1  0
  1 23  1  0
  1 24  1  0
  4 25  1  0
  5 26  1  0
  7 27  1  0
  9 28  1  1
 10 29  1  1
 11 30  1  0
 12 31  1  1
 13 32  1  0
 14 33  1  6
 15 34  1  0
 15 35  1  0
 16 36  1  0
 18 37  1  6
 19 38  1  0
 20 39  1  0
 21 40  1  0
M  END
>  <UniqueID>  (368) 
367

>  <SMILES>  (368) 
COc1ccc(/C=N\[C@@H]2[C@H](O)[C@H](O)[C@@H](CO)O[C@H]2O)cc1

>  <Energy>  (368) 
47.44586570843856

>  <Genealogy>  (368) 
COc1ccc(/C=N\[C@@H]2[C@H](O)[C@H](O)[C@@H](CO)O[C@H]2O)cc1 (3D coordinates assigned)
COc1ccc(/C=N\[C@@H]2[C@H](O)[C@H](O)[C@@H](CO)O[C@H]2O)cc1 (nonaromatic ring conformer: 47.44586570843856 kcal/mol)

$$$$
ZINC000101073479
     RDKit          3D

 40 41  0  0  0  0  0  0  0  0999 V2000
    3.4490   -3.0116    4.1921 C   0  0  0  0  0  0  0  0  0  0  0  0
    2.1016   -3.0430    3.7328 O   0  0  0  0  0  0  0  0  0  0  0  0
    1.3956   -1.9213    3.2735 C   0  0  0  0  0  0  0  0  0  0  0  0
    0.0729   -2.0953    2.8495 C   0  0  0  0  0  0  0  0  0  0  0  0
   -0.6711   -1.0096    2.3792 C   0  0  0  0  0  0  0  0  0  0  0  0
   -0.0903    0.2651    2.3043 C   0  0  0  0  0  0  0  0  0  0  0  0
   -0.8702    1.4299    1.8466 C   0  0  0  0  0  0  0  0  0  0  0  0
   -1.3812    1.5422    0.6532 N   0  0  0  0  0  0  0  0  0  0  0  0
   -1.2533    0.6079   -0.4749 C   0  0  2  0  0  0  0  0  0  0  0  0
    0.0517    0.8738   -1.2589 C   0  0  2  0  0  0  0  0  0  0  0  0
    1.1811    0.7536   -0.4330 O   0  0  0  0  0  0  0  0  0  0  0  0
    0.0201    2.2675   -1.9218 C   0  0  2  0  0  0  0  0  0  0  0  0
    0.4213    3.2434   -0.9921 O   0  0  0  0  0  0  0  0  0  0  0  0
   -1.4109    2.5924   -2.4419 C   0  0  1  0  0  0  0  0  0  0  0  0
   -1.3695    3.3776   -3.7582 C   0  0  0  0  0  0  0  0  0  0  0  0
   -0.7598    4.6235   -3.5627 O   0  0  0  0  0  0  0  0  0  0  0  0
   -2.1369    1.3955   -2.6588 O   0  0  0  0  0  0  0  0  0  0  0  0
   -2.4796    0.7827   -1.4215 C   0  0  1  0  0  0  0  0  0  0  0  0
   -3.0312   -0.4792   -1.6883 O   0  0  0  0  0  0  0  0  0  0  0  0
    1.2212    0.4512    2.7610 C   0  0  0  0  0  0  0  0  0  0  0  0
    1.9663   -0.6346    3.2307 C   0  0  0  0  0  0  0  0  0  0  0  0
    3.7542   -4.0354    4.4906 H   0  0  0  0  0  0  0  0  0  0  0  0
    3.5361   -2.3431    5.0745 H   0  0  0  0  0  0  0  0  0  0  0  0
    4.1212   -2.6626    3.3799 H   0  0  0  0  0  0  0  0  0  0  0  0
   -0.3831   -3.0763    2.8926 H   0  0  0  0  0  0  0  0  0  0  0  0
   -1.7025   -1.1618    2.0860 H   0  0  0  0  0  0  0  0  0  0  0  0
   -0.9880    2.2575    2.5333 H   0  0  0  0  0  0  0  0  0  0  0  0
   -1.2374   -0.4377   -0.1067 H   0  0  0  0  0  0  0  0  0  0  0  0
    0.1206    0.1149   -2.0755 H   0  0  0  0  0  0  0  0  0  0  0  0
    1.3156   -0.2169   -0.2714 H   0  0  0  0  0  0  0  0  0  0  0  0
    0.7480    2.2366   -2.7679 H   0  0  0  0  0  0  0  0  0  0  0  0
    0.7654    4.0156   -1.5116 H   0  0  0  0  0  0  0  0  0  0  0  0
   -1.9472    3.2327   -1.7003 H   0  0  0  0  0  0  0  0  0  0  0  0
   -0.8140    2.7970   -4.5291 H   0  0  0  0  0  0  0  0  0  0  0  0
   -2.4113    3.5314   -4.1192 H   0  0  0  0  0  0  0  0  0  0  0  0
   -0.7557    5.0700   -4.4490 H   0  0  0  0  0  0  0  0  0  0  0  0
   -3.2627    1.3972   -0.9147 H   0  0  0  0  0  0  0  0  0  0  0  0
   -3.8736   -0.3203   -2.1892 H   0  0  0  0  0  0  0  0  0  0  0  0
    1.6729    1.4356    2.7382 H   0  0  0  0  0  0  0  0  0  0  0  0
    2.9817   -0.4626    3.5604 H   0  0  0  0  0  0  0  0  0  0  0  0
  1  2  1  0
  2  3  1  0
  3  4  2  0
  4  5  1  0
  5  6  2  0
  6  7  1  0
  7  8  2  0
  8  9  1  0
  9 10  1  0
 10 11  1  0
 10 12  1  0
 12 13  1  0
 12 14  1  0
 14 15  1  0
 15 16  1  0
 14 17  1  0
 17 18  1  0
 18 19  1  0
  6 20  1  0
 20 21  2  0
 21  3  1  0
 18  9  1  0
  1 22  1  0
  1 23  1  0
  1 24  1  0
  4 25  1  0
  5 26  1  0
  7 27  1  0
  9 28  1  1
 10 29  1  6
 11 30  1  0
 12 31  1  6
 13 32  1  0
 14 33  1  1
 15 34  1  0
 15 35  1  0
 16 36  1  0
 18 37  1  1
 19 38  1  0
 20 39  1  0
 21 40  1  0
M  END
>  <UniqueID>  (369) 
368

>  <SMILES>  (369) 
COc1ccc(/C=N\[C@@H]2[C@H](O)[C@H](O)[C@@H](CO)O[C@H]2O)cc1

>  <Energy>  (369) 
54.42043189969039

>  <Genealogy>  (369) 
COc1ccc(/C=N\[C@@H]2[C@H](O)[C@H](O)[C@@H](CO)O[C@H]2O)cc1 (3D coordinates assigned)
COc1ccc(/C=N\[C@@H]2[C@H](O)[C@H](O)[C@@H](CO)O[C@H]2O)cc1 (nonaromatic ring conformer: 54.42043189969039 kcal/mol)

$$$$
ZINC000101073479
     RDKit          3D

 40 41  0  0  0  0  0  0  0  0999 V2000
    2.2028   -4.0445    4.4686 C   0  0  0  0  0  0  0  0  0  0  0  0
    1.0263   -3.5778    3.8164 O   0  0  0  0  0  0  0  0  0  0  0  0
    0.8456   -2.2663    3.3525 C   0  0  0  0  0  0  0  0  0  0  0  0
   -0.3643   -1.9422    2.7281 C   0  0  0  0  0  0  0  0  0  0  0  0
   -0.5917   -0.6500    2.2465 C   0  0  0  0  0  0  0  0  0  0  0  0
    0.4015    0.3346    2.3653 C   0  0  0  0  0  0  0  0  0  0  0  0
    0.1742    1.7167    1.8972 C   0  0  0  0  0  0  0  0  0  0  0  0
   -0.1246    2.0335    0.6690 N   0  0  0  0  0  0  0  0  0  0  0  0
   -0.3117    1.1262   -0.4706 C   0  0  2  0  0  0  0  0  0  0  0  0
    0.5193    1.5944   -1.6772 C   0  0  2  0  0  0  0  0  0  0  0  0
    1.8899    1.6824   -1.3671 O   0  0  0  0  0  0  0  0  0  0  0  0
   -0.0245    2.9145   -2.2488 C   0  0  2  0  0  0  0  0  0  0  0  0
    0.2290    3.9698   -1.3547 O   0  0  0  0  0  0  0  0  0  0  0  0
   -1.5479    2.8075   -2.5069 C   0  0  1  0  0  0  0  0  0  0  0  0
   -1.8899    2.0737   -3.8208 C   0  0  0  0  0  0  0  0  0  0  0  0
   -3.2767    2.0587   -4.0286 O   0  0  0  0  0  0  0  0  0  0  0  0
   -2.2792    2.3191   -1.3841 O   0  0  0  0  0  0  0  0  0  0  0  0
   -1.8063    1.0855   -0.8537 C   0  0  1  0  0  0  0  0  0  0  0  0
   -2.0787    0.0253   -1.7337 O   0  0  0  0  0  0  0  0  0  0  0  0
    1.6028    0.0216    3.0155 C   0  0  0  0  0  0  0  0  0  0  0  0
    1.8308   -1.2710    3.4976 C   0  0  0  0  0  0  0  0  0  0  0  0
    2.0748   -5.1162    4.7242 H   0  0  0  0  0  0  0  0  0  0  0  0
    3.0794   -3.9417    3.7946 H   0  0  0  0  0  0  0  0  0  0  0  0
    2.3719   -3.4732    5.4058 H   0  0  0  0  0  0  0  0  0  0  0  0
   -1.1357   -2.6945    2.6227 H   0  0  0  0  0  0  0  0  0  0  0  0
   -1.5460   -0.4186    1.7953 H   0  0  0  0  0  0  0  0  0  0  0  0
    0.3581    2.5202    2.5982 H   0  0  0  0  0  0  0  0  0  0  0  0
    0.0341    0.1013   -0.2187 H   0  0  0  0  0  0  0  0  0  0  0  0
    0.4264    0.8192   -2.4687 H   0  0  0  0  0  0  0  0  0  0  0  0
    2.0108    2.3742   -0.6670 H   0  0  0  0  0  0  0  0  0  0  0  0
    0.5054    3.1156   -3.2101 H   0  0  0  0  0  0  0  0  0  0  0  0
    0.1784    4.8118   -1.8786 H   0  0  0  0  0  0  0  0  0  0  0  0
   -1.9039    3.8489   -2.6698 H   0  0  0  0  0  0  0  0  0  0  0  0
   -1.4247    2.6230   -4.6671 H   0  0  0  0  0  0  0  0  0  0  0  0
   -1.4737    1.0444   -3.8536 H   0  0  0  0  0  0  0  0  0  0  0  0
   -3.6370    1.2956   -3.5068 H   0  0  0  0  0  0  0  0  0  0  0  0
   -2.3876    0.9113    0.0792 H   0  0  0  0  0  0  0  0  0  0  0  0
   -2.0024   -0.8144   -1.2092 H   0  0  0  0  0  0  0  0  0  0  0  0
    2.3697    0.7768    3.1395 H   0  0  0  0  0  0  0  0  0  0  0  0
    2.7732   -1.4844    3.9831 H   0  0  0  0  0  0  0  0  0  0  0  0
  1  2  1  0
  2  3  1  0
  3  4  2  0
  4  5  1  0
  5  6  2  0
  6  7  1  0
  7  8  2  0
  8  9  1  0
  9 10  1  0
 10 11  1  0
 10 12  1  0
 12 13  1  0
 12 14  1  0
 14 15  1  0
 15 16  1  0
 14 17  1  0
 17 18  1  0
 18 19  1  0
  6 20  1  0
 20 21  2  0
 21  3  1  0
 18  9  1  0
  1 22  1  0
  1 23  1  0
  1 24  1  0
  4 25  1  0
  5 26  1  0
  7 27  1  0
  9 28  1  1
 10 29  1  6
 11 30  1  0
 12 31  1  6
 13 32  1  0
 14 33  1  6
 15 34  1  0
 15 35  1  0
 16 36  1  0
 18 37  1  1
 19 38  1  0
 20 39  1  0
 21 40  1  0
M  END
>  <UniqueID>  (370) 
369

>  <SMILES>  (370) 
COc1ccc(/C=N\[C@@H]2[C@H](O)[C@H](O)[C@@H](CO)O[C@H]2O)cc1

>  <Energy>  (370) 
56.19623034054705

>  <Genealogy>  (370) 
COc1ccc(/C=N\[C@@H]2[C@H](O)[C@H](O)[C@@H](CO)O[C@H]2O)cc1 (3D coordinates assigned)
COc1ccc(/C=N\[C@@H]2[C@H](O)[C@H](O)[C@@H](CO)O[C@H]2O)cc1 (nonaromatic ring conformer: 56.19623034054705 kcal/mol)

$$$$
ZINC000101135603
     RDKit          3D

 56 58  0  0  0  0  0  0  0  0999 V2000
   -0.3743    1.4954   -4.6037 H   0  0  0  0  0  0  0  0  0  0  0  0
    0.0629    1.1718   -3.7494 O   0  0  0  0  0  0  0  0  0  0  0  0
   -0.3616    1.6279   -2.5016 C   0  0  0  0  0  0  0  0  0  0  0  0
    0.2230    1.2220   -1.4153 N   0  0  0  0  0  0  0  0  0  0  0  0
    1.3287    0.2626   -1.3793 C   0  0  2  0  0  0  0  0  0  0  0  0
    2.0587    0.5065   -2.1853 H   0  0  0  0  0  0  0  0  0  0  0  0
    0.8134   -1.1784   -1.5715 C   0  0  2  0  0  0  0  0  0  0  0  0
    0.4629   -1.2929   -2.6268 H   0  0  0  0  0  0  0  0  0  0  0  0
   -0.1918   -1.4548   -0.6055 O   0  0  0  0  0  0  0  0  0  0  0  0
   -1.4609   -1.6030   -1.2048 C   0  0  0  0  0  0  0  0  0  0  0  0
   -1.6782   -0.7827   -1.9257 H   0  0  0  0  0  0  0  0  0  0  0  0
   -1.5062   -2.5696   -1.7547 H   0  0  0  0  0  0  0  0  0  0  0  0
   -2.5036   -1.5621   -0.1271 C   0  0  0  0  0  0  0  0  0  0  0  0
   -2.8479   -0.3355    0.4650 C   0  0  0  0  0  0  0  0  0  0  0  0
   -2.3818    0.5832    0.1319 H   0  0  0  0  0  0  0  0  0  0  0  0
   -3.7924   -0.2909    1.4947 C   0  0  0  0  0  0  0  0  0  0  0  0
   -4.0585    0.6573    1.9435 H   0  0  0  0  0  0  0  0  0  0  0  0
   -4.3896   -1.4703    1.9481 C   0  0  0  0  0  0  0  0  0  0  0  0
   -5.1193   -1.4347    2.7467 H   0  0  0  0  0  0  0  0  0  0  0  0
   -4.0404   -2.6964    1.3747 C   0  0  0  0  0  0  0  0  0  0  0  0
   -4.4984   -3.6098    1.7318 H   0  0  0  0  0  0  0  0  0  0  0  0
   -3.0966   -2.7453    0.3436 C   0  0  0  0  0  0  0  0  0  0  0  0
   -2.8286   -3.7032   -0.0846 H   0  0  0  0  0  0  0  0  0  0  0  0
    1.9825   -2.1638   -1.3750 C   0  0  2  0  0  0  0  0  0  0  0  0
    2.7086   -2.0295   -2.2121 H   0  0  0  0  0  0  0  0  0  0  0  0
    1.4960   -3.4817   -1.3793 O   0  0  0  0  0  0  0  0  0  0  0  0
    1.2725   -3.7012   -2.3215 H   0  0  0  0  0  0  0  0  0  0  0  0
    2.7159   -1.8694   -0.0395 C   0  0  1  0  0  0  0  0  0  0  0  0
    2.0340   -2.0729    0.8196 H   0  0  0  0  0  0  0  0  0  0  0  0
    3.9498   -2.7712    0.1326 C   0  0  0  0  0  0  0  0  0  0  0  0
    4.5397   -2.4343    1.0157 H   0  0  0  0  0  0  0  0  0  0  0  0
    4.6092   -2.6832   -0.7572 H   0  0  0  0  0  0  0  0  0  0  0  0
    3.5813   -4.1148    0.2939 O   0  0  0  0  0  0  0  0  0  0  0  0
    3.2278   -4.2042    1.2173 H   0  0  0  0  0  0  0  0  0  0  0  0
    3.1561   -0.5201   -0.0031 O   0  0  0  0  0  0  0  0  0  0  0  0
    2.0556    0.3718   -0.0279 C   0  0  1  0  0  0  0  0  0  0  0  0
    1.3260    0.1052    0.7788 H   0  0  0  0  0  0  0  0  0  0  0  0
    2.5482    1.6962    0.1054 O   0  0  0  0  0  0  0  0  0  0  0  0
    2.3211    2.2067    1.4055 C   0  0  0  0  0  0  0  0  0  0  0  0
    2.9898    3.0805    1.5545 H   0  0  0  0  0  0  0  0  0  0  0  0
    2.6023    1.4696    2.1938 H   0  0  0  0  0  0  0  0  0  0  0  0
    0.8945    2.6737    1.5496 C   0  0  0  0  0  0  0  0  0  0  0  0
    0.0052    2.0020    2.4055 C   0  0  0  0  0  0  0  0  0  0  0  0
    0.3420    1.1605    2.9981 H   0  0  0  0  0  0  0  0  0  0  0  0
   -1.3307    2.4055    2.4898 C   0  0  0  0  0  0  0  0  0  0  0  0
   -2.0122    1.8826    3.1480 H   0  0  0  0  0  0  0  0  0  0  0  0
   -1.7888    3.4774    1.7193 C   0  0  0  0  0  0  0  0  0  0  0  0
   -2.8249    3.7838    1.7808 H   0  0  0  0  0  0  0  0  0  0  0  0
   -0.9100    4.1514    0.8669 C   0  0  0  0  0  0  0  0  0  0  0  0
   -1.2670    4.9779    0.2663 H   0  0  0  0  0  0  0  0  0  0  0  0
    0.4271    3.7514    0.7799 C   0  0  0  0  0  0  0  0  0  0  0  0
    1.0948    4.2706    0.1036 H   0  0  0  0  0  0  0  0  0  0  0  0
   -1.4725    2.6232   -2.4077 C   0  0  0  0  0  0  0  0  0  0  0  0
   -1.0539    3.6493   -2.4644 H   0  0  0  0  0  0  0  0  0  0  0  0
   -2.0192    2.5060   -1.4483 H   0  0  0  0  0  0  0  0  0  0  0  0
   -2.1897    2.4737   -3.2414 H   0  0  0  0  0  0  0  0  0  0  0  0
  1  2  1  0
  2  3  1  0
  3  4  2  0
  4  5  1  0
  5  6  1  6
  5  7  1  0
  7  8  1  6
  7  9  1  0
  9 10  1  0
 10 11  1  0
 10 12  1  0
 10 13  1  0
 13 14  2  0
 14 15  1  0
 14 16  1  0
 16 17  1  0
 16 18  2  0
 18 19  1  0
 18 20  1  0
 20 21  1  0
 20 22  2  0
 22 23  1  0
  7 24  1  0
 24 25  1  6
 24 26  1  0
 26 27  1  0
 24 28  1  0
 28 29  1  1
 28 30  1  0
 30 31  1  0
 30 32  1  0
 30 33  1  0
 33 34  1  0
 28 35  1  0
 35 36  1  0
 36 37  1  1
 36 38  1  0
 38 39  1  0
 39 40  1  0
 39 41  1  0
 39 42  1  0
 42 43  2  0
 43 44  1  0
 43 45  1  0
 45 46  1  0
 45 47  2  0
 47 48  1  0
 47 49  1  0
 49 50  1  0
 49 51  2  0
 51 52  1  0
  3 53  1  0
 53 54  1  0
 53 55  1  0
 53 56  1  0
 36  5  1  0
 51 42  1  0
 22 13  1  0
M  END
>  <UniqueID>  (371) 
370

>  <SMILES>  (371) 
C/C(O)=N\[C@@H]1[C@H](OCc2ccccc2)[C@H](O)[C@@H](CO)O[C@H]1OCc1ccccc1

>  <Energy>  (371) 
54.476633058536834

>  <Genealogy>  (371) 
CC(O)=N[C@@H]1[C@H](OCc2ccccc2)[C@H](O)[C@@H](CO)O[C@H]1OCc1ccccc1 (tautomer)
C/C(O)=N\[C@@H]1[C@H](OCc2ccccc2)[C@H](O)[C@@H](CO)O[C@H]1OCc1ccccc1 (cis-trans isomerization)
C/C(O)=N\[C@@H]1[C@H](OCc2ccccc2)[C@H](O)[C@@H](CO)O[C@H]1OCc1ccccc1 (3D coordinates assigned)
C/C(O)=N\[C@@H]1[C@H](OCc2ccccc2)[C@H](O)[C@@H](CO)O[C@H]1OCc1ccccc1 (nonaromatic ring conformer: 54.476633058536834 kcal/mol)

$$$$
ZINC000101135603
     RDKit          3D

 56 58  0  0  0  0  0  0  0  0999 V2000
   -1.5634   -4.3615   -2.1333 C   0  0  0  0  0  0  0  0  0  0  0  0
   -2.0381   -3.3587   -1.1333 C   0  0  0  0  0  0  0  0  0  0  0  0
   -3.2651   -3.2945   -0.8515 O   0  0  0  0  0  0  0  0  0  0  0  0
   -1.1069   -2.4439   -0.5395 N   0  0  0  0  0  0  0  0  0  0  0  0
   -1.5300   -1.3688    0.3657 C   0  0  2  0  0  0  0  0  0  0  0  0
   -2.1762   -0.2188   -0.4342 C   0  0  2  0  0  0  0  0  0  0  0  0
   -1.2850    0.1978   -1.4602 O   0  0  0  0  0  0  0  0  0  0  0  0
   -1.8567    0.0182   -2.7378 C   0  0  0  0  0  0  0  0  0  0  0  0
   -0.8236    0.3428   -3.7754 C   0  0  0  0  0  0  0  0  0  0  0  0
   -0.7236    1.6431   -4.2974 C   0  0  0  0  0  0  0  0  0  0  0  0
    0.2694    1.9509   -5.2330 C   0  0  0  0  0  0  0  0  0  0  0  0
    1.1751    0.9680   -5.6426 C   0  0  0  0  0  0  0  0  0  0  0  0
    1.0932   -0.3229   -5.1128 C   0  0  0  0  0  0  0  0  0  0  0  0
    0.1019   -0.6348   -4.1771 C   0  0  0  0  0  0  0  0  0  0  0  0
   -2.4637    0.9702    0.5037 C   0  0  2  0  0  0  0  0  0  0  0  0
   -2.8742    2.0849   -0.2465 O   0  0  0  0  0  0  0  0  0  0  0  0
   -1.2001    1.3222    1.3224 C   0  0  1  0  0  0  0  0  0  0  0  0
   -1.4959    2.4544    2.3171 C   0  0  0  0  0  0  0  0  0  0  0  0
   -0.3566    2.7477    3.0797 O   0  0  0  0  0  0  0  0  0  0  0  0
   -0.7605    0.1895    2.0523 O   0  0  0  0  0  0  0  0  0  0  0  0
   -0.3286   -0.8384    1.1765 C   0  0  1  0  0  0  0  0  0  0  0  0
    0.1881   -1.9054    1.9557 O   0  0  0  0  0  0  0  0  0  0  0  0
    1.5772   -1.7556    2.1882 C   0  0  0  0  0  0  0  0  0  0  0  0
    1.8609   -0.6384    3.1600 C   0  0  0  0  0  0  0  0  0  0  0  0
    2.4686    0.5500    2.7216 C   0  0  0  0  0  0  0  0  0  0  0  0
    2.7001    1.5951    3.6212 C   0  0  0  0  0  0  0  0  0  0  0  0
    2.3191    1.4645    4.9596 C   0  0  0  0  0  0  0  0  0  0  0  0
    1.7065    0.2881    5.4006 C   0  0  0  0  0  0  0  0  0  0  0  0
    1.4759   -0.7605    4.5047 C   0  0  0  0  0  0  0  0  0  0  0  0
   -0.5981   -4.7990   -1.8025 H   0  0  0  0  0  0  0  0  0  0  0  0
   -1.4211   -3.8631   -3.1148 H   0  0  0  0  0  0  0  0  0  0  0  0
   -2.3058   -5.1802   -2.2442 H   0  0  0  0  0  0  0  0  0  0  0  0
   -0.0930   -2.5483   -0.7743 H   0  0  0  0  0  0  0  0  0  0  0  0
   -2.2754   -1.7736    1.0878 H   0  0  0  0  0  0  0  0  0  0  0  0
   -3.1633   -0.5795   -0.8160 H   0  0  0  0  0  0  0  0  0  0  0  0
   -2.1917   -1.0343   -2.8836 H   0  0  0  0  0  0  0  0  0  0  0  0
   -2.7392    0.6862   -2.8616 H   0  0  0  0  0  0  0  0  0  0  0  0
   -1.4115    2.4170   -3.9796 H   0  0  0  0  0  0  0  0  0  0  0  0
    0.3397    2.9526   -5.6371 H   0  0  0  0  0  0  0  0  0  0  0  0
    1.9439    1.2083   -6.3656 H   0  0  0  0  0  0  0  0  0  0  0  0
    1.8006   -1.0808   -5.4240 H   0  0  0  0  0  0  0  0  0  0  0  0
    0.0562   -1.6356   -3.7646 H   0  0  0  0  0  0  0  0  0  0  0  0
   -3.2733    0.6778    1.2145 H   0  0  0  0  0  0  0  0  0  0  0  0
   -3.8019    1.9000   -0.5483 H   0  0  0  0  0  0  0  0  0  0  0  0
   -0.3969    1.6844    0.6378 H   0  0  0  0  0  0  0  0  0  0  0  0
   -2.3087    2.1417    3.0072 H   0  0  0  0  0  0  0  0  0  0  0  0
   -1.8378    3.3685    1.7801 H   0  0  0  0  0  0  0  0  0  0  0  0
    0.2607    3.2512    2.4870 H   0  0  0  0  0  0  0  0  0  0  0  0
    0.4330   -0.4480    0.4545 H   0  0  0  0  0  0  0  0  0  0  0  0
    1.9518   -2.7019    2.6326 H   0  0  0  0  0  0  0  0  0  0  0  0
    2.1433   -1.6341    1.2363 H   0  0  0  0  0  0  0  0  0  0  0  0
    2.7558    0.6699    1.6842 H   0  0  0  0  0  0  0  0  0  0  0  0
    3.1678    2.5092    3.2788 H   0  0  0  0  0  0  0  0  0  0  0  0
    2.4956    2.2760    5.6538 H   0  0  0  0  0  0  0  0  0  0  0  0
    1.4087    0.1897    6.4367 H   0  0  0  0  0  0  0  0  0  0  0  0
    0.9941   -1.6647    4.8557 H   0  0  0  0  0  0  0  0  0  0  0  0
  1  2  1  0
  2  3  2  0
  2  4  1  0
  4  5  1  0
  5  6  1  0
  6  7  1  0
  7  8  1  0
  8  9  1  0
  9 10  2  0
 10 11  1  0
 11 12  2  0
 12 13  1  0
 13 14  2  0
  6 15  1  0
 15 16  1  0
 15 17  1  0
 17 18  1  0
 18 19  1  0
 17 20  1  0
 20 21  1  0
 21 22  1  0
 22 23  1  0
 23 24  1  0
 24 25  2  0
 25 26  1  0
 26 27  2  0
 27 28  1  0
 28 29  2  0
 21  5  1  0
 29 24  1  0
 14  9  1  0
  1 30  1  0
  1 31  1  0
  1 32  1  0
  4 33  1  0
  5 34  1  1
  6 35  1  6
  8 36  1  0
  8 37  1  0
 10 38  1  0
 11 39  1  0
 12 40  1  0
 13 41  1  0
 14 42  1  0
 15 43  1  1
 16 44  1  0
 17 45  1  6
 18 46  1  0
 18 47  1  0
 19 48  1  0
 21 49  1  6
 23 50  1  0
 23 51  1  0
 25 52  1  0
 26 53  1  0
 27 54  1  0
 28 55  1  0
 29 56  1  0
M  END
>  <UniqueID>  (372) 
371

>  <SMILES>  (372) 
CC(=O)N[C@@H]1[C@H](OCc2ccccc2)[C@H](O)[C@@H](CO)O[C@H]1OCc1ccccc1

>  <Energy>  (372) 
55.338382986535436

>  <Genealogy>  (372) 
CC(=O)N[C@@H]1[C@H](OCc2ccccc2)[C@H](O)[C@@H](CO)O[C@H]1OCc1ccccc1 (3D coordinates assigned)
CC(=O)N[C@@H]1[C@H](OCc2ccccc2)[C@H](O)[C@@H](CO)O[C@H]1OCc1ccccc1 (nonaromatic ring conformer: 55.338382986535436 kcal/mol)

$$$$
ZINC000101135603
     RDKit          3D

 56 58  0  0  0  0  0  0  0  0999 V2000
   -1.6488    2.5184   -3.4044 H   0  0  0  0  0  0  0  0  0  0  0  0
   -1.2598    1.8122   -2.7913 O   0  0  0  0  0  0  0  0  0  0  0  0
   -2.0758    1.0454   -1.9592 C   0  0  0  0  0  0  0  0  0  0  0  0
   -1.5671    0.1247   -1.1966 N   0  0  0  0  0  0  0  0  0  0  0  0
   -0.1372   -0.1760   -1.0874 C   0  0  2  0  0  0  0  0  0  0  0  0
    0.3574   -0.0298   -2.0753 H   0  0  0  0  0  0  0  0  0  0  0  0
    0.0428   -1.6512   -0.6831 C   0  0  2  0  0  0  0  0  0  0  0  0
   -0.2654   -2.2659   -1.5634 H   0  0  0  0  0  0  0  0  0  0  0  0
   -0.7198   -1.9171    0.4889 O   0  0  0  0  0  0  0  0  0  0  0  0
   -1.5209   -3.0750    0.3483 C   0  0  0  0  0  0  0  0  0  0  0  0
   -0.9950   -3.9002   -0.1858 H   0  0  0  0  0  0  0  0  0  0  0  0
   -1.7308   -3.4707    1.3645 H   0  0  0  0  0  0  0  0  0  0  0  0
   -2.8312   -2.7297   -0.3066 C   0  0  0  0  0  0  0  0  0  0  0  0
   -3.8017   -2.0057    0.4047 C   0  0  0  0  0  0  0  0  0  0  0  0
   -3.6213   -1.7110    1.4311 H   0  0  0  0  0  0  0  0  0  0  0  0
   -5.0087   -1.6555   -0.2082 C   0  0  0  0  0  0  0  0  0  0  0  0
   -5.7541   -1.0986    0.3445 H   0  0  0  0  0  0  0  0  0  0  0  0
   -5.2494   -2.0150   -1.5370 C   0  0  0  0  0  0  0  0  0  0  0  0
   -6.1817   -1.7382   -2.0119 H   0  0  0  0  0  0  0  0  0  0  0  0
   -4.2831   -2.7244   -2.2553 C   0  0  0  0  0  0  0  0  0  0  0  0
   -4.4679   -2.9965   -3.2864 H   0  0  0  0  0  0  0  0  0  0  0  0
   -3.0767   -3.0810   -1.6444 C   0  0  0  0  0  0  0  0  0  0  0  0
   -2.3355   -3.6267   -2.2146 H   0  0  0  0  0  0  0  0  0  0  0  0
    1.5333   -1.9315   -0.4042 C   0  0  2  0  0  0  0  0  0  0  0  0
    2.0993   -1.8486   -1.3629 H   0  0  0  0  0  0  0  0  0  0  0  0
    1.6906   -3.2221    0.1276 O   0  0  0  0  0  0  0  0  0  0  0  0
    1.5861   -3.8569   -0.6283 H   0  0  0  0  0  0  0  0  0  0  0  0
    2.0915   -0.8812    0.5836 C   0  0  1  0  0  0  0  0  0  0  0  0
    1.5814   -0.9814    1.5708 H   0  0  0  0  0  0  0  0  0  0  0  0
    3.5893   -1.1012    0.8233 C   0  0  0  0  0  0  0  0  0  0  0  0
    4.1396   -1.0164   -0.1411 H   0  0  0  0  0  0  0  0  0  0  0  0
    3.7593   -2.1164    1.2465 H   0  0  0  0  0  0  0  0  0  0  0  0
    4.0680   -0.1405    1.7231 O   0  0  0  0  0  0  0  0  0  0  0  0
    5.0387   -0.3181    1.8271 H   0  0  0  0  0  0  0  0  0  0  0  0
    1.9106    0.4232    0.0597 O   0  0  0  0  0  0  0  0  0  0  0  0
    0.5329    0.7432   -0.0428 C   0  0  1  0  0  0  0  0  0  0  0  0
    0.0153    0.5851    0.9369 H   0  0  0  0  0  0  0  0  0  0  0  0
    0.4183    2.0871   -0.4808 O   0  0  0  0  0  0  0  0  0  0  0  0
    0.3960    2.9913    0.6091 C   0  0  0  0  0  0  0  0  0  0  0  0
    0.1069    3.9891    0.2170 H   0  0  0  0  0  0  0  0  0  0  0  0
   -0.3935    2.7268    1.3493 H   0  0  0  0  0  0  0  0  0  0  0  0
    1.7536    3.1184    1.2516 C   0  0  0  0  0  0  0  0  0  0  0  0
    2.8169    3.6970    0.5403 C   0  0  0  0  0  0  0  0  0  0  0  0
    2.6622    4.0748   -0.4629 H   0  0  0  0  0  0  0  0  0  0  0  0
    4.0865    3.7837    1.1199 C   0  0  0  0  0  0  0  0  0  0  0  0
    4.9035    4.2299    0.5678 H   0  0  0  0  0  0  0  0  0  0  0  0
    4.3027    3.2916    2.4101 C   0  0  0  0  0  0  0  0  0  0  0  0
    5.2864    3.3576    2.8567 H   0  0  0  0  0  0  0  0  0  0  0  0
    3.2501    2.7096    3.1219 C   0  0  0  0  0  0  0  0  0  0  0  0
    3.4204    2.3226    4.1182 H   0  0  0  0  0  0  0  0  0  0  0  0
    1.9796    2.6185    2.5449 C   0  0  0  0  0  0  0  0  0  0  0  0
    1.1765    2.1531    3.1024 H   0  0  0  0  0  0  0  0  0  0  0  0
   -3.5565    1.2471   -1.9727 C   0  0  0  0  0  0  0  0  0  0  0  0
   -3.9808    1.0516   -0.9651 H   0  0  0  0  0  0  0  0  0  0  0  0
   -4.0170    0.5526   -2.7057 H   0  0  0  0  0  0  0  0  0  0  0  0
   -3.7985    2.2918   -2.2587 H   0  0  0  0  0  0  0  0  0  0  0  0
  1  2  1  0
  2  3  1  0
  3  4  2  0
  4  5  1  0
  5  6  1  6
  5  7  1  0
  7  8  1  6
  7  9  1  0
  9 10  1  0
 10 11  1  0
 10 12  1  0
 10 13  1  0
 13 14  2  0
 14 15  1  0
 14 16  1  0
 16 17  1  0
 16 18  2  0
 18 19  1  0
 18 20  1  0
 20 21  1  0
 20 22  2  0
 22 23  1  0
  7 24  1  0
 24 25  1  6
 24 26  1  0
 26 27  1  0
 24 28  1  0
 28 29  1  1
 28 30  1  0
 30 31  1  0
 30 32  1  0
 30 33  1  0
 33 34  1  0
 28 35  1  0
 35 36  1  0
 36 37  1  1
 36 38  1  0
 38 39  1  0
 39 40  1  0
 39 41  1  0
 39 42  1  0
 42 43  2  0
 43 44  1  0
 43 45  1  0
 45 46  1  0
 45 47  2  0
 47 48  1  0
 47 49  1  0
 49 50  1  0
 49 51  2  0
 51 52  1  0
  3 53  1  0
 53 54  1  0
 53 55  1  0
 53 56  1  0
 36  5  1  0
 51 42  1  0
 22 13  1  0
M  END
>  <UniqueID>  (373) 
372

>  <SMILES>  (373) 
C/C(O)=N\[C@@H]1[C@H](OCc2ccccc2)[C@H](O)[C@@H](CO)O[C@H]1OCc1ccccc1

>  <Energy>  (373) 
56.028569590478455

>  <Genealogy>  (373) 
CC(O)=N[C@@H]1[C@H](OCc2ccccc2)[C@H](O)[C@@H](CO)O[C@H]1OCc1ccccc1 (tautomer)
C/C(O)=N\[C@@H]1[C@H](OCc2ccccc2)[C@H](O)[C@@H](CO)O[C@H]1OCc1ccccc1 (cis-trans isomerization)
C/C(O)=N\[C@@H]1[C@H](OCc2ccccc2)[C@H](O)[C@@H](CO)O[C@H]1OCc1ccccc1 (3D coordinates assigned)
C/C(O)=N\[C@@H]1[C@H](OCc2ccccc2)[C@H](O)[C@@H](CO)O[C@H]1OCc1ccccc1 (nonaromatic ring conformer: 56.028569590478455 kcal/mol)

$$$$
ZINC000101136391
     RDKit          3D

 38 39  0  0  0  0  0  0  0  0999 V2000
   -0.8334    2.1432   -1.9497 N   0  0  0  0  0  0  0  0  0  0  0  0
   -1.2753    0.8240   -1.4886 C   0  0  2  0  0  0  0  0  0  0  0  0
   -2.8092    0.8038   -1.3070 C   0  0  2  0  0  0  0  0  0  0  0  0
   -3.2229    1.8714   -0.4885 O   0  0  0  0  0  0  0  0  0  0  0  0
   -3.2430   -0.5295   -0.6720 C   0  0  2  0  0  0  0  0  0  0  0  0
   -4.6083   -0.4853   -0.3437 O   0  0  0  0  0  0  0  0  0  0  0  0
   -2.4024   -0.8029    0.5971 C   0  0  1  0  0  0  0  0  0  0  0  0
   -2.7747   -2.1436    1.2480 C   0  0  0  0  0  0  0  0  0  0  0  0
   -2.4606   -3.2189    0.4023 O   0  0  0  0  0  0  0  0  0  0  0  0
   -1.0219   -0.8245    0.2763 O   0  0  0  0  0  0  0  0  0  0  0  0
   -0.5828    0.4540   -0.1575 C   0  0  1  0  0  0  0  0  0  0  0  0
    0.8144    0.4041   -0.3766 O   0  0  0  0  0  0  0  0  0  0  0  0
    1.5064    0.4469    0.8540 C   0  0  0  0  0  0  0  0  0  0  0  0
    2.9715    0.2552    0.5905 C   0  0  0  0  0  0  0  0  0  0  0  0
    3.5226   -1.0368    0.5610 C   0  0  0  0  0  0  0  0  0  0  0  0
    4.8799   -1.2169    0.2762 C   0  0  0  0  0  0  0  0  0  0  0  0
    5.6919   -0.1117    0.0067 C   0  0  0  0  0  0  0  0  0  0  0  0
    5.1467    1.1752    0.0163 C   0  0  0  0  0  0  0  0  0  0  0  0
    3.7899    1.3597    0.3007 C   0  0  0  0  0  0  0  0  0  0  0  0
   -1.3151    2.3528   -2.8544 H   0  0  0  0  0  0  0  0  0  0  0  0
    0.1859    2.0930   -2.1780 H   0  0  0  0  0  0  0  0  0  0  0  0
   -1.0012    0.0612   -2.2543 H   0  0  0  0  0  0  0  0  0  0  0  0
   -3.2950    0.8818   -2.3089 H   0  0  0  0  0  0  0  0  0  0  0  0
   -3.3330    2.6637   -1.0763 H   0  0  0  0  0  0  0  0  0  0  0  0
   -3.0584   -1.3472   -1.4080 H   0  0  0  0  0  0  0  0  0  0  0  0
   -5.1100   -0.5696   -1.1963 H   0  0  0  0  0  0  0  0  0  0  0  0
   -2.6114   -0.0137    1.3575 H   0  0  0  0  0  0  0  0  0  0  0  0
   -2.1906   -2.2570    2.1861 H   0  0  0  0  0  0  0  0  0  0  0  0
   -3.8522   -2.1567    1.5341 H   0  0  0  0  0  0  0  0  0  0  0  0
   -3.2763   -3.4181   -0.1270 H   0  0  0  0  0  0  0  0  0  0  0  0
   -0.8331    1.2419    0.5973 H   0  0  0  0  0  0  0  0  0  0  0  0
    1.3509    1.4305    1.3532 H   0  0  0  0  0  0  0  0  0  0  0  0
    1.1530   -0.3520    1.5461 H   0  0  0  0  0  0  0  0  0  0  0  0
    2.9021   -1.9026    0.7574 H   0  0  0  0  0  0  0  0  0  0  0  0
    5.3013   -2.2137    0.2603 H   0  0  0  0  0  0  0  0  0  0  0  0
    6.7418   -0.2529   -0.2150 H   0  0  0  0  0  0  0  0  0  0  0  0
    5.7746    2.0297   -0.2007 H   0  0  0  0  0  0  0  0  0  0  0  0
    3.3777    2.3613    0.2942 H   0  0  0  0  0  0  0  0  0  0  0  0
  1  2  1  0
  2  3  1  0
  3  4  1  0
  3  5  1  0
  5  6  1  0
  5  7  1  0
  7  8  1  0
  8  9  1  0
  7 10  1  0
 10 11  1  0
 11 12  1  0
 12 13  1  0
 13 14  1  0
 14 15  2  0
 15 16  1  0
 16 17  2  0
 17 18  1  0
 18 19  2  0
 11  2  1  0
 19 14  1  0
  1 20  1  0
  1 21  1  0
  2 22  1  6
  3 23  1  6
  4 24  1  0
  5 25  1  6
  6 26  1  0
  7 27  1  1
  8 28  1  0
  8 29  1  0
  9 30  1  0
 11 31  1  1
 13 32  1  0
 13 33  1  0
 15 34  1  0
 16 35  1  0
 17 36  1  0
 18 37  1  0
 19 38  1  0
M  END
>  <UniqueID>  (374) 
373

>  <SMILES>  (374) 
N[C@@H]1[C@H](O)[C@H](O)[C@@H](CO)O[C@H]1OCc1ccccc1

>  <Energy>  (374) 
38.44307977016432

>  <Genealogy>  (374) 
N[C@@H]1[C@H](O)[C@H](O)[C@@H](CO)O[C@H]1OCc1ccccc1 (3D coordinates assigned)
N[C@@H]1[C@H](O)[C@H](O)[C@@H](CO)O[C@H]1OCc1ccccc1 (nonaromatic ring conformer: 38.44307977016432 kcal/mol)

$$$$
ZINC000101136391
     RDKit          3D

 39 40  0  0  0  0  0  0  0  0999 V2000
    1.4005    1.7558   -1.1637 N   0  0  0  0  0  4  0  0  0  0  0  0
    0.3842    2.2526   -0.2247 C   0  0  2  0  0  0  0  0  0  0  0  0
    0.9745    3.3154    0.7307 C   0  0  2  0  0  0  0  0  0  0  0  0
    2.1191    2.8166    1.3807 O   0  0  0  0  0  0  0  0  0  0  0  0
   -0.0782    3.7137    1.7821 C   0  0  2  0  0  0  0  0  0  0  0  0
    0.5065    4.5398    2.7567 O   0  0  0  0  0  0  0  0  0  0  0  0
   -0.6686    2.4474    2.4460 C   0  0  1  0  0  0  0  0  0  0  0  0
   -1.7653    2.8223    3.4535 C   0  0  0  0  0  0  0  0  0  0  0  0
   -2.2506    1.6741    4.0966 O   0  0  0  0  0  0  0  0  0  0  0  0
   -1.2347    1.5989    1.4609 O   0  0  0  0  0  0  0  0  0  0  0  0
   -0.2333    1.0952    0.5920 C   0  0  1  0  0  0  0  0  0  0  0  0
   -0.8339    0.1812   -0.3076 O   0  0  0  0  0  0  0  0  0  0  0  0
   -0.9796   -1.0936    0.2883 C   0  0  0  0  0  0  0  0  0  0  0  0
    0.2779   -1.9017    0.1073 C   0  0  0  0  0  0  0  0  0  0  0  0
    1.0574   -2.2702    1.2166 C   0  0  0  0  0  0  0  0  0  0  0  0
    2.2384   -2.9970    1.0360 C   0  0  0  0  0  0  0  0  0  0  0  0
    2.6500   -3.3570   -0.2502 C   0  0  0  0  0  0  0  0  0  0  0  0
    1.8818   -2.9898   -1.3585 C   0  0  0  0  0  0  0  0  0  0  0  0
    0.7001   -2.2632   -1.1823 C   0  0  0  0  0  0  0  0  0  0  0  0
    1.8657    2.5601   -1.6440 H   0  0  0  0  0  0  0  0  0  0  0  0
    0.9472    1.1614   -1.8949 H   0  0  0  0  0  0  0  0  0  0  0  0
    2.1224    1.1853   -0.6661 H   0  0  0  0  0  0  0  0  0  0  0  0
   -0.4310    2.7355   -0.8118 H   0  0  0  0  0  0  0  0  0  0  0  0
    1.2338    4.2277    0.1419 H   0  0  0  0  0  0  0  0  0  0  0  0
    2.9002    3.0410    0.8106 H   0  0  0  0  0  0  0  0  0  0  0  0
   -0.9057    4.2623    1.2718 H   0  0  0  0  0  0  0  0  0  0  0  0
    0.6310    5.4315    2.3379 H   0  0  0  0  0  0  0  0  0  0  0  0
    0.1298    1.9125    3.0129 H   0  0  0  0  0  0  0  0  0  0  0  0
   -2.5952    3.3631    2.9422 H   0  0  0  0  0  0  0  0  0  0  0  0
   -1.3481    3.4993    4.2288 H   0  0  0  0  0  0  0  0  0  0  0  0
   -2.9117    1.2592    3.4830 H   0  0  0  0  0  0  0  0  0  0  0  0
    0.5863    0.6030    1.1735 H   0  0  0  0  0  0  0  0  0  0  0  0
   -1.8085   -1.6220   -0.2282 H   0  0  0  0  0  0  0  0  0  0  0  0
   -1.2822   -1.0320    1.3605 H   0  0  0  0  0  0  0  0  0  0  0  0
    0.7550   -1.9913    2.2183 H   0  0  0  0  0  0  0  0  0  0  0  0
    2.8361   -3.2787    1.8933 H   0  0  0  0  0  0  0  0  0  0  0  0
    3.5650   -3.9184   -0.3882 H   0  0  0  0  0  0  0  0  0  0  0  0
    2.2032   -3.2660   -2.3544 H   0  0  0  0  0  0  0  0  0  0  0  0
    0.1163   -1.9782   -2.0489 H   0  0  0  0  0  0  0  0  0  0  0  0
  1  2  1  0
  2  3  1  0
  3  4  1  0
  3  5  1  0
  5  6  1  0
  5  7  1  0
  7  8  1  0
  8  9  1  0
  7 10  1  0
 10 11  1  0
 11 12  1  0
 12 13  1  0
 13 14  1  0
 14 15  2  0
 15 16  1  0
 16 17  2  0
 17 18  1  0
 18 19  2  0
 11  2  1  0
 19 14  1  0
  1 20  1  0
  1 21  1  0
  1 22  1  0
  2 23  1  6
  3 24  1  6
  4 25  1  0
  5 26  1  6
  6 27  1  0
  7 28  1  1
  8 29  1  0
  8 30  1  0
  9 31  1  0
 11 32  1  1
 13 33  1  0
 13 34  1  0
 15 35  1  0
 16 36  1  0
 17 37  1  0
 18 38  1  0
 19 39  1  0
M  CHG  1   1   1
M  END
>  <UniqueID>  (375) 
374

>  <SMILES>  (375) 
[NH3+][C@@H]1[C@H](O)[C@H](O)[C@@H](CO)O[C@H]1OCc1ccccc1

>  <Energy>  (375) 
39.68327709557367

>  <Genealogy>  (375) 
[NH3+][C@@H]1[C@H](O)[C@H](O)[C@@H](CO)O[C@H]1OCc1ccccc1 (protonated)
[NH3+][C@@H]1[C@H](O)[C@H](O)[C@@H](CO)O[C@H]1OCc1ccccc1 (3D coordinates assigned)
[NH3+][C@@H]1[C@H](O)[C@H](O)[C@@H](CO)O[C@H]1OCc1ccccc1 (nonaromatic ring conformer: 39.68327709557367 kcal/mol)

$$$$
ZINC000101136391
     RDKit          3D

 38 39  0  0  0  0  0  0  0  0999 V2000
   -0.4899    0.0038    1.5992 N   0  0  0  0  0  0  0  0  0  0  0  0
   -0.5552    0.6531    0.2848 C   0  0  2  0  0  0  0  0  0  0  0  0
   -2.0015    1.0954   -0.0321 C   0  0  2  0  0  0  0  0  0  0  0  0
   -2.5025    1.9530    0.9621 O   0  0  0  0  0  0  0  0  0  0  0  0
   -2.9293   -0.1296   -0.2123 C   0  0  2  0  0  0  0  0  0  0  0  0
   -3.4411   -0.5532    1.0276 O   0  0  0  0  0  0  0  0  0  0  0  0
   -2.1569   -1.3056   -0.8652 C   0  0  1  0  0  0  0  0  0  0  0  0
   -3.0853   -2.1499   -1.7482 C   0  0  0  0  0  0  0  0  0  0  0  0
   -2.4115   -3.2850   -2.2217 O   0  0  0  0  0  0  0  0  0  0  0  0
   -1.0900   -0.8077   -1.6529 O   0  0  0  0  0  0  0  0  0  0  0  0
   -0.0395   -0.3172   -0.8295 C   0  0  1  0  0  0  0  0  0  0  0  0
    0.8555    0.4026   -1.6661 O   0  0  0  0  0  0  0  0  0  0  0  0
    2.1714   -0.1156   -1.6110 C   0  0  0  0  0  0  0  0  0  0  0  0
    2.8544    0.2774   -0.3264 C   0  0  0  0  0  0  0  0  0  0  0  0
    3.1029    1.6314   -0.0491 C   0  0  0  0  0  0  0  0  0  0  0  0
    3.7062    2.0040    1.1560 C   0  0  0  0  0  0  0  0  0  0  0  0
    4.0644    1.0288    2.0908 C   0  0  0  0  0  0  0  0  0  0  0  0
    3.8201   -0.3208    1.8217 C   0  0  0  0  0  0  0  0  0  0  0  0
    3.2168   -0.6976    0.6178 C   0  0  0  0  0  0  0  0  0  0  0  0
   -0.7692    0.6975    2.3300 H   0  0  0  0  0  0  0  0  0  0  0  0
    0.5102   -0.2248    1.8028 H   0  0  0  0  0  0  0  0  0  0  0  0
    0.0879    1.5633    0.3120 H   0  0  0  0  0  0  0  0  0  0  0  0
   -1.9825    1.6463   -1.0031 H   0  0  0  0  0  0  0  0  0  0  0  0
   -2.0216    2.8163    0.8653 H   0  0  0  0  0  0  0  0  0  0  0  0
   -3.7688    0.1829   -0.8799 H   0  0  0  0  0  0  0  0  0  0  0  0
   -4.2422    0.0017    1.2180 H   0  0  0  0  0  0  0  0  0  0  0  0
   -1.7657   -1.9847   -0.0689 H   0  0  0  0  0  0  0  0  0  0  0  0
   -3.4718   -1.5436   -2.5999 H   0  0  0  0  0  0  0  0  0  0  0  0
   -3.9572   -2.4879   -1.1480 H   0  0  0  0  0  0  0  0  0  0  0  0
   -1.8593   -2.9894   -2.9919 H   0  0  0  0  0  0  0  0  0  0  0  0
    0.4448   -1.2026   -0.3457 H   0  0  0  0  0  0  0  0  0  0  0  0
    2.7470    0.3206   -2.4544 H   0  0  0  0  0  0  0  0  0  0  0  0
    2.1859   -1.2178   -1.7765 H   0  0  0  0  0  0  0  0  0  0  0  0
    2.8221    2.3962   -0.7627 H   0  0  0  0  0  0  0  0  0  0  0  0
    3.8934    3.0491    1.3664 H   0  0  0  0  0  0  0  0  0  0  0  0
    4.5299    1.3187    3.0238 H   0  0  0  0  0  0  0  0  0  0  0  0
    4.0953   -1.0749    2.5476 H   0  0  0  0  0  0  0  0  0  0  0  0
    3.0253   -1.7461    0.4268 H   0  0  0  0  0  0  0  0  0  0  0  0
  1  2  1  0
  2  3  1  0
  3  4  1  0
  3  5  1  0
  5  6  1  0
  5  7  1  0
  7  8  1  0
  8  9  1  0
  7 10  1  0
 10 11  1  0
 11 12  1  0
 12 13  1  0
 13 14  1  0
 14 15  2  0
 15 16  1  0
 16 17  2  0
 17 18  1  0
 18 19  2  0
 11  2  1  0
 19 14  1  0
  1 20  1  0
  1 21  1  0
  2 22  1  1
  3 23  1  6
  4 24  1  0
  5 25  1  6
  6 26  1  0
  7 27  1  1
  8 28  1  0
  8 29  1  0
  9 30  1  0
 11 31  1  1
 13 32  1  0
 13 33  1  0
 15 34  1  0
 16 35  1  0
 17 36  1  0
 18 37  1  0
 19 38  1  0
M  END
>  <UniqueID>  (376) 
375

>  <SMILES>  (376) 
N[C@@H]1[C@H](O)[C@H](O)[C@@H](CO)O[C@H]1OCc1ccccc1

>  <Energy>  (376) 
48.37187139696437

>  <Genealogy>  (376) 
N[C@@H]1[C@H](O)[C@H](O)[C@@H](CO)O[C@H]1OCc1ccccc1 (3D coordinates assigned)
N[C@@H]1[C@H](O)[C@H](O)[C@@H](CO)O[C@H]1OCc1ccccc1 (nonaromatic ring conformer: 48.37187139696437 kcal/mol)

$$$$
ZINC000101178654
     RDKit          3D

 39 39  0  0  0  0  0  0  0  0999 V2000
    1.4248   -5.5135   -0.4453 H   0  0  0  0  0  0  0  0  0  0  0  0
    0.8034   -4.7782   -0.1302 O   0  0  0  0  0  0  0  0  0  0  0  0
    1.2515   -3.4736    0.0610 C   0  0  0  0  0  0  0  0  0  0  0  0
    0.3980   -2.5842    0.4819 N   0  0  0  0  0  0  0  0  0  0  0  0
    0.6503   -1.1595    0.7288 C   0  0  2  0  0  0  0  0  0  0  0  0
    1.7320   -0.9747    0.9100 H   0  0  0  0  0  0  0  0  0  0  0  0
   -0.1107   -0.7120    1.9921 C   0  0  2  0  0  0  0  0  0  0  0  0
    0.3546   -1.1957    2.8841 H   0  0  0  0  0  0  0  0  0  0  0  0
   -1.4691   -1.0711    1.9056 O   0  0  0  0  0  0  0  0  0  0  0  0
   -1.5453   -2.0051    2.2332 H   0  0  0  0  0  0  0  0  0  0  0  0
    0.0082    0.8143    2.1592 C   0  0  2  0  0  0  0  0  0  0  0  0
    1.0695    1.0639    2.3973 H   0  0  0  0  0  0  0  0  0  0  0  0
   -0.8258    1.2503    3.2024 O   0  0  0  0  0  0  0  0  0  0  0  0
   -0.3867    0.9805    4.0510 H   0  0  0  0  0  0  0  0  0  0  0  0
   -0.3832    1.5208    0.8386 C   0  0  1  0  0  0  0  0  0  0  0  0
   -1.4602    1.3292    0.6194 H   0  0  0  0  0  0  0  0  0  0  0  0
   -0.2218    3.0427    0.9470 C   0  0  0  0  0  0  0  0  0  0  0  0
   -0.8556    3.4356    1.7733 H   0  0  0  0  0  0  0  0  0  0  0  0
   -0.5659    3.5088   -0.0035 H   0  0  0  0  0  0  0  0  0  0  0  0
    1.1203    3.3782    1.1720 O   0  0  0  0  0  0  0  0  0  0  0  0
    1.1501    4.3683    1.2319 H   0  0  0  0  0  0  0  0  0  0  0  0
    0.4261    1.0575   -0.2296 O   0  0  0  0  0  0  0  0  0  0  0  0
    0.1903   -0.3190   -0.4806 C   0  0  1  0  0  0  0  0  0  0  0  0
   -0.8984   -0.5152   -0.6496 H   0  0  0  0  0  0  0  0  0  0  0  0
    0.9414   -0.7091   -1.6140 O   0  0  0  0  0  0  0  0  0  0  0  0
    0.3210   -0.2898   -2.8175 C   0  0  0  0  0  0  0  0  0  0  0  0
   -0.3605    0.5848   -2.6792 H   0  0  0  0  0  0  0  0  0  0  0  0
   -0.4835   -1.4512   -3.4078 C   0  0  0  0  0  0  0  0  0  0  0  0
   -1.2922   -1.7494   -2.7082 H   0  0  0  0  0  0  0  0  0  0  0  0
   -0.9496   -1.1486   -4.3698 H   0  0  0  0  0  0  0  0  0  0  0  0
    0.1744   -2.3296   -3.5823 H   0  0  0  0  0  0  0  0  0  0  0  0
    1.4101    0.1472   -3.7959 C   0  0  0  0  0  0  0  0  0  0  0  0
    2.1126   -0.6902   -3.9967 H   0  0  0  0  0  0  0  0  0  0  0  0
    0.9585    0.4814   -4.7545 H   0  0  0  0  0  0  0  0  0  0  0  0
    1.9825    0.9950   -3.3631 H   0  0  0  0  0  0  0  0  0  0  0  0
    2.6984   -3.1467   -0.1941 C   0  0  0  0  0  0  0  0  0  0  0  0
    3.2266   -4.0244   -0.6208 H   0  0  0  0  0  0  0  0  0  0  0  0
    3.1954   -2.8734    0.7600 H   0  0  0  0  0  0  0  0  0  0  0  0
    2.7907   -2.3110   -0.9161 H   0  0  0  0  0  0  0  0  0  0  0  0
  1  2  1  0
  2  3  1  0
  3  4  2  0
  4  5  1  0
  5  6  1  1
  5  7  1  0
  7  8  1  1
  7  9  1  0
  9 10  1  0
  7 11  1  0
 11 12  1  1
 11 13  1  0
 13 14  1  0
 11 15  1  0
 15 16  1  6
 15 17  1  0
 17 18  1  0
 17 19  1  0
 17 20  1  0
 20 21  1  0
 15 22  1  0
 22 23  1  0
 23 24  1  6
 23 25  1  0
 25 26  1  0
 26 27  1  0
 26 28  1  0
 28 29  1  0
 28 30  1  0
 28 31  1  0
 26 32  1  0
 32 33  1  0
 32 34  1  0
 32 35  1  0
  3 36  1  0
 36 37  1  0
 36 38  1  0
 36 39  1  0
 23  5  1  0
M  END
>  <UniqueID>  (377) 
376

>  <SMILES>  (377) 
C/C(O)=N/[C@@H]1[C@H](O)[C@H](O)[C@@H](CO)O[C@H]1OC(C)C

>  <Energy>  (377) 
33.418541233462996

>  <Genealogy>  (377) 
CC(O)=N[C@@H]1[C@H](O)[C@H](O)[C@@H](CO)O[C@H]1OC(C)C (tautomer)
C/C(O)=N/[C@@H]1[C@H](O)[C@H](O)[C@@H](CO)O[C@H]1OC(C)C (cis-trans isomerization)
C/C(O)=N/[C@@H]1[C@H](O)[C@H](O)[C@@H](CO)O[C@H]1OC(C)C (3D coordinates assigned)
C/C(O)=N/[C@@H]1[C@H](O)[C@H](O)[C@@H](CO)O[C@H]1OC(C)C (nonaromatic ring conformer: 33.418541233462996 kcal/mol)

$$$$
ZINC000101178654
     RDKit          3D

 39 39  0  0  0  0  0  0  0  0999 V2000
   -3.9735    1.9062    1.6938 H   0  0  0  0  0  0  0  0  0  0  0  0
   -3.1738    1.4507    1.2709 O   0  0  0  0  0  0  0  0  0  0  0  0
   -1.9288    1.4476    1.8993 C   0  0  0  0  0  0  0  0  0  0  0  0
   -0.9147    0.8429    1.3577 N   0  0  0  0  0  0  0  0  0  0  0  0
   -0.9597    0.1335    0.0774 C   0  0  2  0  0  0  0  0  0  0  0  0
   -1.5175    0.7497   -0.6649 H   0  0  0  0  0  0  0  0  0  0  0  0
   -1.6810   -1.2271    0.2307 C   0  0  2  0  0  0  0  0  0  0  0  0
   -2.7695   -1.0273    0.3342 H   0  0  0  0  0  0  0  0  0  0  0  0
   -1.2771   -1.9033    1.3991 O   0  0  0  0  0  0  0  0  0  0  0  0
   -0.3106   -2.1068    1.3247 H   0  0  0  0  0  0  0  0  0  0  0  0
   -1.4922   -2.0919   -1.0363 C   0  0  2  0  0  0  0  0  0  0  0  0
   -2.1008   -1.6284   -1.8448 H   0  0  0  0  0  0  0  0  0  0  0  0
   -1.9830   -3.3950   -0.8322 O   0  0  0  0  0  0  0  0  0  0  0  0
   -1.3577   -3.8641   -0.2204 H   0  0  0  0  0  0  0  0  0  0  0  0
   -0.0131   -2.0927   -1.5022 C   0  0  1  0  0  0  0  0  0  0  0  0
    0.6273   -2.6181   -0.7561 H   0  0  0  0  0  0  0  0  0  0  0  0
    0.1346   -2.8514   -2.8291 C   0  0  0  0  0  0  0  0  0  0  0  0
   -0.2306   -3.8933   -2.7079 H   0  0  0  0  0  0  0  0  0  0  0  0
   -0.4781   -2.3680   -3.6250 H   0  0  0  0  0  0  0  0  0  0  0  0
    1.4825   -2.9062   -3.2131 O   0  0  0  0  0  0  0  0  0  0  0  0
    1.6920   -2.0393   -3.6494 H   0  0  0  0  0  0  0  0  0  0  0  0
    0.4344   -0.7607   -1.6934 O   0  0  0  0  0  0  0  0  0  0  0  0
    0.4749   -0.0550   -0.4653 C   0  0  1  0  0  0  0  0  0  0  0  0
    1.0876   -0.6354    0.2687 H   0  0  0  0  0  0  0  0  0  0  0  0
    1.0294    1.2253   -0.7298 O   0  0  0  0  0  0  0  0  0  0  0  0
    1.9828    1.6179    0.2441 C   0  0  0  0  0  0  0  0  0  0  0  0
    1.7444    1.2286    1.2621 H   0  0  0  0  0  0  0  0  0  0  0  0
    3.3765    1.1307   -0.1657 C   0  0  0  0  0  0  0  0  0  0  0  0
    3.6487    1.5313   -1.1657 H   0  0  0  0  0  0  0  0  0  0  0  0
    3.3962    0.0218   -0.2116 H   0  0  0  0  0  0  0  0  0  0  0  0
    4.1340    1.4610    0.5767 H   0  0  0  0  0  0  0  0  0  0  0  0
    1.9668    3.1421    0.3475 C   0  0  0  0  0  0  0  0  0  0  0  0
    2.7004    3.4868    1.1075 H   0  0  0  0  0  0  0  0  0  0  0  0
    0.9558    3.4846    0.6555 H   0  0  0  0  0  0  0  0  0  0  0  0
    2.2149    3.6023   -0.6331 H   0  0  0  0  0  0  0  0  0  0  0  0
   -1.7605    2.1218    3.2223 C   0  0  0  0  0  0  0  0  0  0  0  0
   -0.6917    2.3658    3.4039 H   0  0  0  0  0  0  0  0  0  0  0  0
   -2.3467    3.0642    3.2426 H   0  0  0  0  0  0  0  0  0  0  0  0
   -2.1226    1.4492    4.0272 H   0  0  0  0  0  0  0  0  0  0  0  0
  1  2  1  0
  2  3  1  0
  3  4  2  0
  4  5  1  0
  5  6  1  6
  5  7  1  0
  7  8  1  1
  7  9  1  0
  9 10  1  0
  7 11  1  0
 11 12  1  6
 11 13  1  0
 13 14  1  0
 11 15  1  0
 15 16  1  1
 15 17  1  0
 17 18  1  0
 17 19  1  0
 17 20  1  0
 20 21  1  0
 15 22  1  0
 22 23  1  0
 23 24  1  1
 23 25  1  0
 25 26  1  0
 26 27  1  0
 26 28  1  0
 28 29  1  0
 28 30  1  0
 28 31  1  0
 26 32  1  0
 32 33  1  0
 32 34  1  0
 32 35  1  0
  3 36  1  0
 36 37  1  0
 36 38  1  0
 36 39  1  0
 23  5  1  0
M  END
>  <UniqueID>  (378) 
377

>  <SMILES>  (378) 
C/C(O)=N\[C@@H]1[C@H](O)[C@H](O)[C@@H](CO)O[C@H]1OC(C)C

>  <Energy>  (378) 
34.81778303564077

>  <Genealogy>  (378) 
CC(O)=N[C@@H]1[C@H](O)[C@H](O)[C@@H](CO)O[C@H]1OC(C)C (tautomer)
C/C(O)=N\[C@@H]1[C@H](O)[C@H](O)[C@@H](CO)O[C@H]1OC(C)C (cis-trans isomerization)
C/C(O)=N\[C@@H]1[C@H](O)[C@H](O)[C@@H](CO)O[C@H]1OC(C)C (3D coordinates assigned)
C/C(O)=N\[C@@H]1[C@H](O)[C@H](O)[C@@H](CO)O[C@H]1OC(C)C (nonaromatic ring conformer: 34.81778303564077 kcal/mol)

$$$$
ZINC000101178654
     RDKit          3D

 39 39  0  0  0  0  0  0  0  0999 V2000
   -3.4973    1.0885    0.0338 H   0  0  0  0  0  0  0  0  0  0  0  0
   -3.4325    1.5095    0.9505 O   0  0  0  0  0  0  0  0  0  0  0  0
   -2.2748    1.4863    1.7330 C   0  0  0  0  0  0  0  0  0  0  0  0
   -1.1835    0.8885    1.3483 N   0  0  0  0  0  0  0  0  0  0  0  0
   -0.9918    0.1319    0.1084 C   0  0  2  0  0  0  0  0  0  0  0  0
   -1.4307    0.6923   -0.7473 H   0  0  0  0  0  0  0  0  0  0  0  0
   -1.6633   -1.2607    0.2055 C   0  0  2  0  0  0  0  0  0  0  0  0
   -2.7620   -1.1235    0.1198 H   0  0  0  0  0  0  0  0  0  0  0  0
   -1.4280   -1.8678    1.4553 O   0  0  0  0  0  0  0  0  0  0  0  0
   -0.4556   -2.0323    1.5467 H   0  0  0  0  0  0  0  0  0  0  0  0
   -1.2241   -2.1618   -0.9716 C   0  0  2  0  0  0  0  0  0  0  0  0
   -1.7142   -1.7616   -1.8867 H   0  0  0  0  0  0  0  0  0  0  0  0
   -1.6775   -3.4818   -0.7922 O   0  0  0  0  0  0  0  0  0  0  0  0
   -1.1423   -3.8919   -0.0639 H   0  0  0  0  0  0  0  0  0  0  0  0
    0.3119   -2.0981   -1.1861 C   0  0  1  0  0  0  0  0  0  0  0  0
    0.8391   -2.5527   -0.3158 H   0  0  0  0  0  0  0  0  0  0  0  0
    0.7401   -2.9095   -2.4196 C   0  0  0  0  0  0  0  0  0  0  0  0
    1.8495   -2.8811   -2.5199 H   0  0  0  0  0  0  0  0  0  0  0  0
    0.4529   -3.9741   -2.2869 H   0  0  0  0  0  0  0  0  0  0  0  0
    0.1334   -2.4209   -3.5868 O   0  0  0  0  0  0  0  0  0  0  0  0
    0.6485   -1.6187   -3.8631 H   0  0  0  0  0  0  0  0  0  0  0  0
    0.7254   -0.7541   -1.3612 O   0  0  0  0  0  0  0  0  0  0  0  0
    0.5180   -0.0053   -0.1740 C   0  0  1  0  0  0  0  0  0  0  0  0
    1.0055   -0.4975    0.7030 H   0  0  0  0  0  0  0  0  0  0  0  0
    1.0514    1.2936   -0.3563 O   0  0  0  0  0  0  0  0  0  0  0  0
    2.4663    1.2906   -0.2589 C   0  0  0  0  0  0  0  0  0  0  0  0
    2.9202    0.2911   -0.4673 H   0  0  0  0  0  0  0  0  0  0  0  0
    3.0262    2.2563   -1.3022 C   0  0  0  0  0  0  0  0  0  0  0  0
    4.1359    2.2804   -1.2519 H   0  0  0  0  0  0  0  0  0  0  0  0
    2.6319    3.2819   -1.1359 H   0  0  0  0  0  0  0  0  0  0  0  0
    2.7285    1.9209   -2.3186 H   0  0  0  0  0  0  0  0  0  0  0  0
    2.8820    1.7326    1.1470 C   0  0  0  0  0  0  0  0  0  0  0  0
    2.4984    1.0140    1.9012 H   0  0  0  0  0  0  0  0  0  0  0  0
    2.4698    2.7389    1.3752 H   0  0  0  0  0  0  0  0  0  0  0  0
    3.9894    1.7659    1.2299 H   0  0  0  0  0  0  0  0  0  0  0  0
   -2.2809    2.1999    3.0428 C   0  0  0  0  0  0  0  0  0  0  0  0
   -3.3216    2.4532    3.3357 H   0  0  0  0  0  0  0  0  0  0  0  0
   -1.8362    1.5543    3.8294 H   0  0  0  0  0  0  0  0  0  0  0  0
   -1.6904    3.1363    2.9585 H   0  0  0  0  0  0  0  0  0  0  0  0
  1  2  1  0
  2  3  1  0
  3  4  2  0
  4  5  1  0
  5  6  1  6
  5  7  1  0
  7  8  1  6
  7  9  1  0
  9 10  1  0
  7 11  1  0
 11 12  1  6
 11 13  1  0
 13 14  1  0
 11 15  1  0
 15 16  1  1
 15 17  1  0
 17 18  1  0
 17 19  1  0
 17 20  1  0
 20 21  1  0
 15 22  1  0
 22 23  1  0
 23 24  1  1
 23 25  1  0
 25 26  1  0
 26 27  1  0
 26 28  1  0
 28 29  1  0
 28 30  1  0
 28 31  1  0
 26 32  1  0
 32 33  1  0
 32 34  1  0
 32 35  1  0
  3 36  1  0
 36 37  1  0
 36 38  1  0
 36 39  1  0
 23  5  1  0
M  END
>  <UniqueID>  (379) 
378

>  <SMILES>  (379) 
C/C(O)=N\[C@@H]1[C@H](O)[C@H](O)[C@@H](CO)O[C@H]1OC(C)C

>  <Energy>  (379) 
35.590677244468324

>  <Genealogy>  (379) 
CC(O)=N[C@@H]1[C@H](O)[C@H](O)[C@@H](CO)O[C@H]1OC(C)C (tautomer)
C/C(O)=N\[C@@H]1[C@H](O)[C@H](O)[C@@H](CO)O[C@H]1OC(C)C (cis-trans isomerization)
C/C(O)=N\[C@@H]1[C@H](O)[C@H](O)[C@@H](CO)O[C@H]1OC(C)C (3D coordinates assigned)
C/C(O)=N\[C@@H]1[C@H](O)[C@H](O)[C@@H](CO)O[C@H]1OC(C)C (nonaromatic ring conformer: 35.590677244468324 kcal/mol)

$$$$
ZINC000101361998
     RDKit          3D

 54 56  0  0  0  0  0  0  0  0999 V2000
    2.6959   -0.7098    3.5472 H   0  0  0  0  0  0  0  0  0  0  0  0
    2.4931   -0.5555    2.5680 O   0  0  0  0  0  0  0  0  0  0  0  0
    1.9034    0.6328    2.1458 C   0  0  0  0  0  0  0  0  0  0  0  0
    1.6247    0.8244    0.8894 N   0  0  0  0  0  0  0  0  0  0  0  0
    1.8578   -0.1383   -0.1912 C   0  0  2  0  0  0  0  0  0  0  0  0
    2.8401   -0.6417   -0.0386 H   0  0  0  0  0  0  0  0  0  0  0  0
    1.9128    0.6201   -1.5304 C   0  0  2  0  0  0  0  0  0  0  0  0
    2.8397    1.2416   -1.5376 H   0  0  0  0  0  0  0  0  0  0  0  0
    0.7818    1.4478   -1.6553 O   0  0  0  0  0  0  0  0  0  0  0  0
    1.0260    2.1830   -2.2755 H   0  0  0  0  0  0  0  0  0  0  0  0
    1.9703   -0.3785   -2.7020 C   0  0  2  0  0  0  0  0  0  0  0  0
    2.9432   -0.9243   -2.6618 H   0  0  0  0  0  0  0  0  0  0  0  0
    1.8597    0.3032   -3.9257 O   0  0  0  0  0  0  0  0  0  0  0  0
    2.7374    0.7365   -4.0899 H   0  0  0  0  0  0  0  0  0  0  0  0
    0.8267   -1.4061   -2.5610 C   0  0  1  0  0  0  0  0  0  0  0  0
   -0.1583   -0.8869   -2.6322 H   0  0  0  0  0  0  0  0  0  0  0  0
    0.8808   -2.4418   -3.6936 C   0  0  0  0  0  0  0  0  0  0  0  0
    1.8545   -2.9759   -3.6645 H   0  0  0  0  0  0  0  0  0  0  0  0
    0.7958   -1.9433   -4.6860 H   0  0  0  0  0  0  0  0  0  0  0  0
   -0.1472   -3.3837   -3.5443 O   0  0  0  0  0  0  0  0  0  0  0  0
   -0.9878   -2.9331   -3.8210 H   0  0  0  0  0  0  0  0  0  0  0  0
    0.9435   -2.0884   -1.3252 O   0  0  0  0  0  0  0  0  0  0  0  0
    0.7374   -1.2060   -0.2328 C   0  0  1  0  0  0  0  0  0  0  0  0
   -0.2478   -0.6806   -0.3210 H   0  0  0  0  0  0  0  0  0  0  0  0
    0.7891   -1.9602    0.9620 O   0  0  0  0  0  0  0  0  0  0  0  0
   -0.4163   -2.6698    1.1715 C   0  0  0  0  0  0  0  0  0  0  0  0
   -0.1675   -3.6224    1.6856 H   0  0  0  0  0  0  0  0  0  0  0  0
   -0.9254   -2.9667    0.2235 H   0  0  0  0  0  0  0  0  0  0  0  0
   -1.3299   -1.8806    2.0675 C   0  0  0  0  0  0  0  0  0  0  0  0
   -0.9464   -1.6032    3.3899 C   0  0  0  0  0  0  0  0  0  0  0  0
    0.0133   -1.9396    3.7634 H   0  0  0  0  0  0  0  0  0  0  0  0
   -1.8042   -0.8972    4.2384 C   0  0  0  0  0  0  0  0  0  0  0  0
   -1.5057   -0.6872    5.2574 H   0  0  0  0  0  0  0  0  0  0  0  0
   -3.0498   -0.4672    3.7738 C   0  0  0  0  0  0  0  0  0  0  0  0
   -3.7158    0.0734    4.4337 H   0  0  0  0  0  0  0  0  0  0  0  0
   -3.4301   -0.7212    2.4527 C   0  0  0  0  0  0  0  0  0  0  0  0
   -4.3898   -0.3745    2.0906 H   0  0  0  0  0  0  0  0  0  0  0  0
   -2.5724   -1.4220    1.5987 C   0  0  0  0  0  0  0  0  0  0  0  0
   -2.8811   -1.6143    0.5784 H   0  0  0  0  0  0  0  0  0  0  0  0
    1.6245    1.6251    3.0947 O   0  0  0  0  0  0  0  0  0  0  0  0
    1.1767    2.9394    2.7625 C   0  0  0  0  0  0  0  0  0  0  0  0
    1.2327    3.5733    3.6726 H   0  0  0  0  0  0  0  0  0  0  0  0
    1.8605    3.3900    2.0100 H   0  0  0  0  0  0  0  0  0  0  0  0
   -0.2449    2.9179    2.2688 C   0  0  0  0  0  0  0  0  0  0  0  0
   -1.2988    2.6617    3.1610 C   0  0  0  0  0  0  0  0  0  0  0  0
   -1.0962    2.4742    4.2081 H   0  0  0  0  0  0  0  0  0  0  0  0
   -2.6210    2.6560    2.7046 C   0  0  0  0  0  0  0  0  0  0  0  0
   -3.4316    2.4724    3.3974 H   0  0  0  0  0  0  0  0  0  0  0  0
   -2.8975    2.8782    1.3527 C   0  0  0  0  0  0  0  0  0  0  0  0
   -3.9207    2.8625    1.0000 H   0  0  0  0  0  0  0  0  0  0  0  0
   -1.8534    3.1244    0.4569 C   0  0  0  0  0  0  0  0  0  0  0  0
   -2.0677    3.2990   -0.5894 H   0  0  0  0  0  0  0  0  0  0  0  0
   -0.5322    3.1530    0.9131 C   0  0  0  0  0  0  0  0  0  0  0  0
    0.2655    3.3585    0.2102 H   0  0  0  0  0  0  0  0  0  0  0  0
  1  2  1  0
  2  3  1  0
  3  4  2  0
  4  5  1  0
  5  6  1  1
  5  7  1  0
  7  8  1  1
  7  9  1  0
  9 10  1  0
  7 11  1  0
 11 12  1  6
 11 13  1  0
 13 14  1  0
 11 15  1  0
 15 16  1  1
 15 17  1  0
 17 18  1  0
 17 19  1  0
 17 20  1  0
 20 21  1  0
 15 22  1  0
 22 23  1  0
 23 24  1  6
 23 25  1  0
 25 26  1  0
 26 27  1  0
 26 28  1  0
 26 29  1  0
 29 30  2  0
 30 31  1  0
 30 32  1  0
 32 33  1  0
 32 34  2  0
 34 35  1  0
 34 36  1  0
 36 37  1  0
 36 38  2  0
 38 39  1  0
  3 40  1  0
 40 41  1  0
 41 42  1  0
 41 43  1  0
 41 44  1  0
 44 45  2  0
 45 46  1  0
 45 47  1  0
 47 48  1  0
 47 49  2  0
 49 50  1  0
 49 51  1  0
 51 52  1  0
 51 53  2  0
 53 54  1  0
 23  5  1  0
 38 29  1  0
 53 44  1  0
M  END
>  <UniqueID>  (380) 
379

>  <SMILES>  (380) 
OC[C@H]1O[C@@H](OCc2ccccc2)[C@H](/N=C(\O)OCc2ccccc2)[C@H](O)[C@@H]1O

>  <Energy>  (380) 
49.626254001847386

>  <Genealogy>  (380) 
OC[C@H]1O[C@@H](OCc2ccccc2)[C@H](N=C(O)OCc2ccccc2)[C@H](O)[C@@H]1O (tautomer)
OC[C@H]1O[C@@H](OCc2ccccc2)[C@H](/N=C(\O)OCc2ccccc2)[C@H](O)[C@@H]1O (cis-trans isomerization)
OC[C@H]1O[C@@H](OCc2ccccc2)[C@H](/N=C(\O)OCc2ccccc2)[C@H](O)[C@@H]1O (3D coordinates assigned)
OC[C@H]1O[C@@H](OCc2ccccc2)[C@H](/N=C(\O)OCc2ccccc2)[C@H](O)[C@@H]1O (nonaromatic ring conformer: 49.626254001847386 kcal/mol)

$$$$
ZINC000101361998
     RDKit          3D

 54 56  0  0  0  0  0  0  0  0999 V2000
    1.1839   -0.2591   -2.4193 O   0  0  0  0  0  0  0  0  0  0  0  0
    0.2620    0.5506   -2.1241 C   0  0  0  0  0  0  0  0  0  0  0  0
   -0.9917    0.0724   -1.6216 N   0  0  0  0  0  0  0  0  0  0  0  0
   -1.2005   -1.3137   -1.1878 C   0  0  2  0  0  0  0  0  0  0  0  0
   -2.4862   -1.8902   -1.8093 C   0  0  2  0  0  0  0  0  0  0  0  0
   -3.5741   -1.0357   -1.5460 O   0  0  0  0  0  0  0  0  0  0  0  0
   -2.7571   -3.2932   -1.2215 C   0  0  2  0  0  0  0  0  0  0  0  0
   -4.0127   -3.7627   -1.6447 O   0  0  0  0  0  0  0  0  0  0  0  0
   -2.7053   -3.2321    0.3255 C   0  0  1  0  0  0  0  0  0  0  0  0
   -2.9098   -4.6236    0.9357 C   0  0  0  0  0  0  0  0  0  0  0  0
   -2.8951   -4.5281    2.3328 O   0  0  0  0  0  0  0  0  0  0  0  0
   -1.4477   -2.7340    0.7554 O   0  0  0  0  0  0  0  0  0  0  0  0
   -1.2770   -1.3833    0.3487 C   0  0  1  0  0  0  0  0  0  0  0  0
   -0.0626   -0.8817    0.8732 O   0  0  0  0  0  0  0  0  0  0  0  0
   -0.1638   -0.7102    2.2727 C   0  0  0  0  0  0  0  0  0  0  0  0
    1.0854   -0.0430    2.7679 C   0  0  0  0  0  0  0  0  0  0  0  0
    1.1948    1.3596    2.7402 C   0  0  0  0  0  0  0  0  0  0  0  0
    2.3629    1.9808    3.1914 C   0  0  0  0  0  0  0  0  0  0  0  0
    3.4355    1.2107    3.6493 C   0  0  0  0  0  0  0  0  0  0  0  0
    3.3396   -0.1845    3.6634 C   0  0  0  0  0  0  0  0  0  0  0  0
    2.1723   -0.8128    3.2193 C   0  0  0  0  0  0  0  0  0  0  0  0
    0.4451    1.9267   -2.2964 O   0  0  0  0  0  0  0  0  0  0  0  0
    1.6577    2.5034   -2.7754 C   0  0  0  0  0  0  0  0  0  0  0  0
    2.7281    2.4414   -1.7191 C   0  0  0  0  0  0  0  0  0  0  0  0
    2.6933    3.3284   -0.6316 C   0  0  0  0  0  0  0  0  0  0  0  0
    3.6861    3.2717    0.3511 C   0  0  0  0  0  0  0  0  0  0  0  0
    4.7056    2.3156    0.2670 C   0  0  0  0  0  0  0  0  0  0  0  0
    4.7400    1.4209   -0.8052 C   0  0  0  0  0  0  0  0  0  0  0  0
    3.7563    1.4825   -1.7968 C   0  0  0  0  0  0  0  0  0  0  0  0
   -1.7367    0.7804   -1.4233 H   0  0  0  0  0  0  0  0  0  0  0  0
   -0.3521   -1.9523   -1.5203 H   0  0  0  0  0  0  0  0  0  0  0  0
   -2.3279   -1.9789   -2.9111 H   0  0  0  0  0  0  0  0  0  0  0  0
   -4.2475   -1.1954   -2.2573 H   0  0  0  0  0  0  0  0  0  0  0  0
   -1.9586   -3.9900   -1.5764 H   0  0  0  0  0  0  0  0  0  0  0  0
   -3.9208   -3.9982   -2.6057 H   0  0  0  0  0  0  0  0  0  0  0  0
   -3.5322   -2.5842    0.7021 H   0  0  0  0  0  0  0  0  0  0  0  0
   -3.8885   -5.0417    0.6099 H   0  0  0  0  0  0  0  0  0  0  0  0
   -2.0965   -5.3041    0.5942 H   0  0  0  0  0  0  0  0  0  0  0  0
   -2.9549   -5.4605    2.6723 H   0  0  0  0  0  0  0  0  0  0  0  0
   -2.1336   -0.7489    0.6899 H   0  0  0  0  0  0  0  0  0  0  0  0
   -1.0365   -0.0707    2.5416 H   0  0  0  0  0  0  0  0  0  0  0  0
   -0.2863   -1.6946    2.7798 H   0  0  0  0  0  0  0  0  0  0  0  0
    0.3799    1.9668    2.3678 H   0  0  0  0  0  0  0  0  0  0  0  0
    2.4423    3.0538    3.1780 H   0  0  0  0  0  0  0  0  0  0  0  0
    4.3437    1.6922    3.9890 H   0  0  0  0  0  0  0  0  0  0  0  0
    4.1729   -0.7826    4.0141 H   0  0  0  0  0  0  0  0  0  0  0  0
    2.1161   -1.8968    3.2288 H   0  0  0  0  0  0  0  0  0  0  0  0
    1.9760    1.9938   -3.7121 H   0  0  0  0  0  0  0  0  0  0  0  0
    1.4659    3.5667   -3.0337 H   0  0  0  0  0  0  0  0  0  0  0  0
    1.9025    4.0669   -0.5501 H   0  0  0  0  0  0  0  0  0  0  0  0
    3.6648    3.9679    1.1785 H   0  0  0  0  0  0  0  0  0  0  0  0
    5.4688    2.2680    1.0335 H   0  0  0  0  0  0  0  0  0  0  0  0
    5.5302    0.6808   -0.8692 H   0  0  0  0  0  0  0  0  0  0  0  0
    3.7967    0.7830   -2.6228 H   0  0  0  0  0  0  0  0  0  0  0  0
  1  2  2  0
  2  3  1  0
  3  4  1  0
  4  5  1  0
  5  6  1  0
  5  7  1  0
  7  8  1  0
  7  9  1  0
  9 10  1  0
 10 11  1  0
  9 12  1  0
 12 13  1  0
 13 14  1  0
 14 15  1  0
 15 16  1  0
 16 17  2  0
 17 18  1  0
 18 19  2  0
 19 20  1  0
 20 21  2  0
  2 22  1  0
 22 23  1  0
 23 24  1  0
 24 25  2  0
 25 26  1  0
 26 27  2  0
 27 28  1  0
 28 29  2  0
 13  4  1  0
 21 16  1  0
 29 24  1  0
  3 30  1  0
  4 31  1  6
  5 32  1  6
  6 33  1  0
  7 34  1  6
  8 35  1  0
  9 36  1  1
 10 37  1  0
 10 38  1  0
 11 39  1  0
 13 40  1  1
 15 41  1  0
 15 42  1  0
 17 43  1  0
 18 44  1  0
 19 45  1  0
 20 46  1  0
 21 47  1  0
 23 48  1  0
 23 49  1  0
 25 50  1  0
 26 51  1  0
 27 52  1  0
 28 53  1  0
 29 54  1  0
M  END
>  <UniqueID>  (381) 
380

>  <SMILES>  (381) 
O=C(N[C@@H]1[C@H](O)[C@H](O)[C@@H](CO)O[C@H]1OCc1ccccc1)OCc1ccccc1

>  <Energy>  (381) 
50.332878173747126

>  <Genealogy>  (381) 
O=C(N[C@@H]1[C@H](O)[C@H](O)[C@@H](CO)O[C@H]1OCc1ccccc1)OCc1ccccc1 (3D coordinates assigned)
O=C(N[C@@H]1[C@H](O)[C@H](O)[C@@H](CO)O[C@H]1OCc1ccccc1)OCc1ccccc1 (nonaromatic ring conformer: 50.332878173747126 kcal/mol)

$$$$
ZINC000101361998
     RDKit          3D

 54 56  0  0  0  0  0  0  0  0999 V2000
    2.2654   -1.9615    2.5274 H   0  0  0  0  0  0  0  0  0  0  0  0
    1.9363   -1.3505    1.7902 O   0  0  0  0  0  0  0  0  0  0  0  0
    1.0434   -1.8148    0.8309 C   0  0  0  0  0  0  0  0  0  0  0  0
    0.6110   -1.0383   -0.1225 N   0  0  0  0  0  0  0  0  0  0  0  0
    0.9583    0.3633   -0.3954 C   0  0  2  0  0  0  0  0  0  0  0  0
    0.2459    0.7120   -1.1766 H   0  0  0  0  0  0  0  0  0  0  0  0
    2.3714    0.5125   -0.9892 C   0  0  2  0  0  0  0  0  0  0  0  0
    2.3996   -0.0354   -1.9615 H   0  0  0  0  0  0  0  0  0  0  0  0
    3.3323   -0.0181   -0.1112 O   0  0  0  0  0  0  0  0  0  0  0  0
    4.1119   -0.2910   -0.6621 H   0  0  0  0  0  0  0  0  0  0  0  0
    2.6547    2.0061   -1.2450 C   0  0  2  0  0  0  0  0  0  0  0  0
    1.9828    2.3410   -2.0729 H   0  0  0  0  0  0  0  0  0  0  0  0
    4.0017    2.1676   -1.6150 O   0  0  0  0  0  0  0  0  0  0  0  0
    4.0377    2.9009   -2.2830 H   0  0  0  0  0  0  0  0  0  0  0  0
    2.3344    2.8356    0.0270 C   0  0  1  0  0  0  0  0  0  0  0  0
    3.0296    2.5429    0.8491 H   0  0  0  0  0  0  0  0  0  0  0  0
    2.5443    4.3326   -0.2284 C   0  0  0  0  0  0  0  0  0  0  0  0
    1.8969    4.6625   -1.0724 H   0  0  0  0  0  0  0  0  0  0  0  0
    3.6079    4.5259   -0.4925 H   0  0  0  0  0  0  0  0  0  0  0  0
    2.2188    5.0583    0.9251 O   0  0  0  0  0  0  0  0  0  0  0  0
    2.3579    6.0144    0.6973 H   0  0  0  0  0  0  0  0  0  0  0  0
    0.9843    2.6356    0.4219 O   0  0  0  0  0  0  0  0  0  0  0  0
    0.7703    1.2915    0.8228 C   0  0  1  0  0  0  0  0  0  0  0  0
    1.4985    1.0110    1.6203 H   0  0  0  0  0  0  0  0  0  0  0  0
   -0.5604    1.1533    1.2826 O   0  0  0  0  0  0  0  0  0  0  0  0
   -0.6786    1.6446    2.6012 C   0  0  0  0  0  0  0  0  0  0  0  0
   -0.3233    2.6989    2.6717 H   0  0  0  0  0  0  0  0  0  0  0  0
   -0.0734    1.0263    3.3033 H   0  0  0  0  0  0  0  0  0  0  0  0
   -2.1202    1.5761    3.0129 C   0  0  0  0  0  0  0  0  0  0  0  0
   -2.9692    2.6778    2.8137 C   0  0  0  0  0  0  0  0  0  0  0  0
   -2.5852    3.5975    2.3897 H   0  0  0  0  0  0  0  0  0  0  0  0
   -4.3217    2.5958    3.1603 C   0  0  0  0  0  0  0  0  0  0  0  0
   -4.9708    3.4486    3.0108 H   0  0  0  0  0  0  0  0  0  0  0  0
   -4.8378    1.4109    3.6932 C   0  0  0  0  0  0  0  0  0  0  0  0
   -5.8851    1.3481    3.9586 H   0  0  0  0  0  0  0  0  0  0  0  0
   -4.0032    0.3047    3.8767 C   0  0  0  0  0  0  0  0  0  0  0  0
   -4.4060   -0.6155    4.2803 H   0  0  0  0  0  0  0  0  0  0  0  0
   -2.6500    0.3830    3.5325 C   0  0  0  0  0  0  0  0  0  0  0  0
   -2.0164   -0.4850    3.6683 H   0  0  0  0  0  0  0  0  0  0  0  0
    0.6093   -3.1444    0.9065 O   0  0  0  0  0  0  0  0  0  0  0  0
   -0.2446   -3.7542   -0.0612 C   0  0  0  0  0  0  0  0  0  0  0  0
   -0.5563   -4.7505    0.3175 H   0  0  0  0  0  0  0  0  0  0  0  0
   -1.1675   -3.1465   -0.1879 H   0  0  0  0  0  0  0  0  0  0  0  0
    0.4843   -3.9332   -1.3659 C   0  0  0  0  0  0  0  0  0  0  0  0
    1.5505   -4.8427   -1.4539 C   0  0  0  0  0  0  0  0  0  0  0  0
    1.8375   -5.4341   -0.5930 H   0  0  0  0  0  0  0  0  0  0  0  0
    2.2547   -4.9887   -2.6532 C   0  0  0  0  0  0  0  0  0  0  0  0
    3.0754   -5.6917   -2.7164 H   0  0  0  0  0  0  0  0  0  0  0  0
    1.9029   -4.2247   -3.7695 C   0  0  0  0  0  0  0  0  0  0  0  0
    2.4504   -4.3371   -4.6963 H   0  0  0  0  0  0  0  0  0  0  0  0
    0.8455   -3.3144   -3.6884 C   0  0  0  0  0  0  0  0  0  0  0  0
    0.5762   -2.7205   -4.5523 H   0  0  0  0  0  0  0  0  0  0  0  0
    0.1374   -3.1670   -2.4916 C   0  0  0  0  0  0  0  0  0  0  0  0
   -0.6741   -2.4514   -2.4416 H   0  0  0  0  0  0  0  0  0  0  0  0
  1  2  1  0
  2  3  1  0
  3  4  2  0
  4  5  1  0
  5  6  1  6
  5  7  1  0
  7  8  1  6
  7  9  1  0
  9 10  1  0
  7 11  1  0
 11 12  1  6
 11 13  1  0
 13 14  1  0
 11 15  1  0
 15 16  1  1
 15 17  1  0
 17 18  1  0
 17 19  1  0
 17 20  1  0
 20 21  1  0
 15 22  1  0
 22 23  1  0
 23 24  1  1
 23 25  1  0
 25 26  1  0
 26 27  1  0
 26 28  1  0
 26 29  1  0
 29 30  2  0
 30 31  1  0
 30 32  1  0
 32 33  1  0
 32 34  2  0
 34 35  1  0
 34 36  1  0
 36 37  1  0
 36 38  2  0
 38 39  1  0
  3 40  1  0
 40 41  1  0
 41 42  1  0
 41 43  1  0
 41 44  1  0
 44 45  2  0
 45 46  1  0
 45 47  1  0
 47 48  1  0
 47 49  2  0
 49 50  1  0
 49 51  1  0
 51 52  1  0
 51 53  2  0
 53 54  1  0
 23  5  1  0
 38 29  1  0
 53 44  1  0
M  END
>  <UniqueID>  (382) 
381

>  <SMILES>  (382) 
OC[C@H]1O[C@@H](OCc2ccccc2)[C@H](/N=C(/O)OCc2ccccc2)[C@H](O)[C@@H]1O

>  <Energy>  (382) 
56.46382294275877

>  <Genealogy>  (382) 
OC[C@H]1O[C@@H](OCc2ccccc2)[C@H](N=C(O)OCc2ccccc2)[C@H](O)[C@@H]1O (tautomer)
OC[C@H]1O[C@@H](OCc2ccccc2)[C@H](/N=C(/O)OCc2ccccc2)[C@H](O)[C@@H]1O (cis-trans isomerization)
OC[C@H]1O[C@@H](OCc2ccccc2)[C@H](/N=C(/O)OCc2ccccc2)[C@H](O)[C@@H]1O (3D coordinates assigned)
OC[C@H]1O[C@@H](OCc2ccccc2)[C@H](/N=C(/O)OCc2ccccc2)[C@H](O)[C@@H]1O (nonaromatic ring conformer: 56.46382294275877 kcal/mol)

$$$$
ZINC000102205030
     RDKit          3D

 38 38  0  0  0  0  0  0  0  0999 V2000
    0.5537    1.1136   -3.2293 H   0  0  0  0  0  0  0  0  0  0  0  0
    1.3499    0.4941   -3.1746 O   0  0  0  0  0  0  0  0  0  0  0  0
    1.7768   -0.1256   -1.9965 C   0  0  0  0  0  0  0  0  0  0  0  0
    1.1573    0.0222   -0.8596 N   0  0  0  0  0  0  0  0  0  0  0  0
   -0.0752    0.7762   -0.6088 C   0  0  2  0  0  0  0  0  0  0  0  0
   -0.0965    1.7012   -1.2251 H   0  0  0  0  0  0  0  0  0  0  0  0
   -0.1037    1.2288    0.8682 C   0  0  2  0  0  0  0  0  0  0  0  0
    0.6257    2.0619    0.9753 H   0  0  0  0  0  0  0  0  0  0  0  0
    0.3187    0.2063    1.7419 O   0  0  0  0  0  0  0  0  0  0  0  0
   -0.3340   -0.5368    1.6949 H   0  0  0  0  0  0  0  0  0  0  0  0
   -1.4949    1.7782    1.2592 C   0  0  2  0  0  0  0  0  0  0  0  0
   -1.6309    2.7691    0.7634 H   0  0  0  0  0  0  0  0  0  0  0  0
   -1.5787    1.9337    2.6531 O   0  0  0  0  0  0  0  0  0  0  0  0
   -1.0270    2.7257    2.8856 H   0  0  0  0  0  0  0  0  0  0  0  0
   -2.6185    0.8382    0.7630 C   0  0  1  0  0  0  0  0  0  0  0  0
   -2.5778   -0.1315    1.3114 H   0  0  0  0  0  0  0  0  0  0  0  0
   -3.9989    1.4499    1.0455 C   0  0  0  0  0  0  0  0  0  0  0  0
   -4.1092    2.4246    0.5160 H   0  0  0  0  0  0  0  0  0  0  0  0
   -4.1085    1.6428    2.1338 H   0  0  0  0  0  0  0  0  0  0  0  0
   -5.0145    0.5636    0.6576 O   0  0  0  0  0  0  0  0  0  0  0  0
   -5.1303    0.6711   -0.3225 H   0  0  0  0  0  0  0  0  0  0  0  0
   -2.4985    0.6292   -0.6334 O   0  0  0  0  0  0  0  0  0  0  0  0
   -1.3142   -0.0879   -0.9366 C   0  0  1  0  0  0  0  0  0  0  0  0
   -1.2528   -1.0298   -0.3374 H   0  0  0  0  0  0  0  0  0  0  0  0
   -1.3111   -0.3777   -2.3218 O   0  0  0  0  0  0  0  0  0  0  0  0
   -2.0564   -1.5474   -2.6069 C   0  0  0  0  0  0  0  0  0  0  0  0
   -2.8932   -1.7229   -1.8898 H   0  0  0  0  0  0  0  0  0  0  0  0
   -2.5248   -1.4225   -3.6063 H   0  0  0  0  0  0  0  0  0  0  0  0
   -1.1368   -2.7675   -2.6521 C   0  0  0  0  0  0  0  0  0  0  0  0
   -0.6728   -2.9291   -1.6554 H   0  0  0  0  0  0  0  0  0  0  0  0
   -1.7339   -3.6675   -2.9147 H   0  0  0  0  0  0  0  0  0  0  0  0
   -0.0945   -2.5685   -3.6488 N   0  0  0  0  0  0  0  0  0  0  0  0
    0.7750   -3.4216   -3.8259 N   0  0  0  0  0  4  0  0  0  0  0  0
    1.6447   -4.2731   -4.0025 N   0  0  0  0  0  2  0  0  0  0  0  0
    3.0021   -0.9748   -2.0404 C   0  0  0  0  0  0  0  0  0  0  0  0
    3.8177   -0.4829   -1.4704 H   0  0  0  0  0  0  0  0  0  0  0  0
    2.7877   -1.9687   -1.5935 H   0  0  0  0  0  0  0  0  0  0  0  0
    3.3309   -1.1203   -3.0908 H   0  0  0  0  0  0  0  0  0  0  0  0
  1  2  1  0
  2  3  1  0
  3  4  2  0
  4  5  1  0
  5  6  1  6
  5  7  1  0
  7  8  1  6
  7  9  1  0
  9 10  1  0
  7 11  1  0
 11 12  1  6
 11 13  1  0
 13 14  1  0
 11 15  1  0
 15 16  1  1
 15 17  1  0
 17 18  1  0
 17 19  1  0
 17 20  1  0
 20 21  1  0
 15 22  1  0
 22 23  1  0
 23 24  1  1
 23 25  1  0
 25 26  1  0
 26 27  1  0
 26 28  1  0
 26 29  1  0
 29 30  1  0
 29 31  1  0
 29 32  1  0
 32 33  2  0
 33 34  2  0
  3 35  1  0
 35 36  1  0
 35 37  1  0
 35 38  1  0
 23  5  1  0
M  CHG  2  33   1  34  -1
M  END
>  <UniqueID>  (383) 
382

>  <SMILES>  (383) 
C/C(O)=N\[C@@H]1[C@H](O)[C@H](O)[C@@H](CO)O[C@H]1OCCN=[N+]=[N-]

>  <Energy>  (383) 
33.84595458334942

>  <Genealogy>  (383) 
CC(O)=N[C@@H]1[C@H](O)[C@H](O)[C@@H](CO)O[C@H]1OCCN=[N+]=[N-] (tautomer)
C/C(O)=N\[C@@H]1[C@H](O)[C@H](O)[C@@H](CO)O[C@H]1OCCN=[N+]=[N-] (cis-trans isomerization)
C/C(O)=N\[C@@H]1[C@H](O)[C@H](O)[C@@H](CO)O[C@H]1OCCN=[N+]=[N-] (3D coordinates assigned)
C/C(O)=N\[C@@H]1[C@H](O)[C@H](O)[C@@H](CO)O[C@H]1OCCN=[N+]=[N-] (nonaromatic ring conformer: 33.84595458334942 kcal/mol)

$$$$
ZINC000102205030
     RDKit          3D

 38 38  0  0  0  0  0  0  0  0999 V2000
    4.8826    0.7545   -1.4465 H   0  0  0  0  0  0  0  0  0  0  0  0
    4.0838    0.6381   -0.8346 O   0  0  0  0  0  0  0  0  0  0  0  0
    2.7795    0.7954   -1.2965 C   0  0  0  0  0  0  0  0  0  0  0  0
    1.8026    0.6454   -0.4479 N   0  0  0  0  0  0  0  0  0  0  0  0
    0.3647    0.7491   -0.7238 C   0  0  2  0  0  0  0  0  0  0  0  0
    0.1784    1.3492   -1.6418 H   0  0  0  0  0  0  0  0  0  0  0  0
   -0.3277    1.4702    0.4457 C   0  0  2  0  0  0  0  0  0  0  0  0
    0.0092    2.5343    0.4426 H   0  0  0  0  0  0  0  0  0  0  0  0
    0.0309    0.8596    1.6622 O   0  0  0  0  0  0  0  0  0  0  0  0
   -0.0781    1.5433    2.3737 H   0  0  0  0  0  0  0  0  0  0  0  0
   -1.8586    1.4285    0.2565 C   0  0  2  0  0  0  0  0  0  0  0  0
   -2.1253    2.0550   -0.6279 H   0  0  0  0  0  0  0  0  0  0  0  0
   -2.4993    1.9319    1.4007 O   0  0  0  0  0  0  0  0  0  0  0  0
   -2.3772    2.9171    1.3862 H   0  0  0  0  0  0  0  0  0  0  0  0
   -2.3161   -0.0251   -0.0194 C   0  0  1  0  0  0  0  0  0  0  0  0
   -2.1164   -0.6638    0.8734 H   0  0  0  0  0  0  0  0  0  0  0  0
   -3.8230   -0.0969   -0.3015 C   0  0  0  0  0  0  0  0  0  0  0  0
   -4.0936    0.6185   -1.1108 H   0  0  0  0  0  0  0  0  0  0  0  0
   -4.0758   -1.1253   -0.6451 H   0  0  0  0  0  0  0  0  0  0  0  0
   -4.5539    0.1892    0.8590 O   0  0  0  0  0  0  0  0  0  0  0  0
   -5.5109    0.1380    0.6014 H   0  0  0  0  0  0  0  0  0  0  0  0
   -1.6377   -0.5388   -1.1534 O   0  0  0  0  0  0  0  0  0  0  0  0
   -0.2468   -0.6560   -0.9061 C   0  0  1  0  0  0  0  0  0  0  0  0
   -0.0609   -1.2367    0.0324 H   0  0  0  0  0  0  0  0  0  0  0  0
    0.3569   -1.2667   -2.0343 O   0  0  0  0  0  0  0  0  0  0  0  0
    0.4694   -2.6715   -1.8846 C   0  0  0  0  0  0  0  0  0  0  0  0
    1.1856   -3.0349   -2.6520 H   0  0  0  0  0  0  0  0  0  0  0  0
    0.9082   -2.9600   -0.9028 H   0  0  0  0  0  0  0  0  0  0  0  0
   -0.8667   -3.3855   -2.1099 C   0  0  0  0  0  0  0  0  0  0  0  0
   -1.5765   -3.1410   -1.2890 H   0  0  0  0  0  0  0  0  0  0  0  0
   -0.6977   -4.4829   -2.0909 H   0  0  0  0  0  0  0  0  0  0  0  0
   -1.4207   -3.0184   -3.4074 N   0  0  0  0  0  0  0  0  0  0  0  0
   -2.5260   -2.4831   -3.4976 N   0  0  0  0  0  4  0  0  0  0  0  0
   -3.6296   -1.9478   -3.5879 N   0  0  0  0  0  2  0  0  0  0  0  0
    2.5471    1.1589   -2.7384 C   0  0  0  0  0  0  0  0  0  0  0  0
    1.8648    0.4309   -3.2209 H   0  0  0  0  0  0  0  0  0  0  0  0
    2.1131    2.1785   -2.8032 H   0  0  0  0  0  0  0  0  0  0  0  0
    3.5038    1.1530   -3.3007 H   0  0  0  0  0  0  0  0  0  0  0  0
  1  2  1  0
  2  3  1  0
  3  4  2  0
  4  5  1  0
  5  6  1  6
  5  7  1  0
  7  8  1  1
  7  9  1  0
  9 10  1  0
  7 11  1  0
 11 12  1  6
 11 13  1  0
 13 14  1  0
 11 15  1  0
 15 16  1  1
 15 17  1  0
 17 18  1  0
 17 19  1  0
 17 20  1  0
 20 21  1  0
 15 22  1  0
 22 23  1  0
 23 24  1  1
 23 25  1  0
 25 26  1  0
 26 27  1  0
 26 28  1  0
 26 29  1  0
 29 30  1  0
 29 31  1  0
 29 32  1  0
 32 33  2  0
 33 34  2  0
  3 35  1  0
 35 36  1  0
 35 37  1  0
 35 38  1  0
 23  5  1  0
M  CHG  2  33   1  34  -1
M  END
>  <UniqueID>  (384) 
383

>  <SMILES>  (384) 
C/C(O)=N\[C@@H]1[C@H](O)[C@H](O)[C@@H](CO)O[C@H]1OCCN=[N+]=[N-]

>  <Energy>  (384) 
34.5784357210453

>  <Genealogy>  (384) 
CC(O)=N[C@@H]1[C@H](O)[C@H](O)[C@@H](CO)O[C@H]1OCCN=[N+]=[N-] (tautomer)
C/C(O)=N\[C@@H]1[C@H](O)[C@H](O)[C@@H](CO)O[C@H]1OCCN=[N+]=[N-] (cis-trans isomerization)
C/C(O)=N\[C@@H]1[C@H](O)[C@H](O)[C@@H](CO)O[C@H]1OCCN=[N+]=[N-] (3D coordinates assigned)
C/C(O)=N\[C@@H]1[C@H](O)[C@H](O)[C@@H](CO)O[C@H]1OCCN=[N+]=[N-] (nonaromatic ring conformer: 34.5784357210453 kcal/mol)

$$$$
ZINC000102205030
     RDKit          3D

 38 38  0  0  0  0  0  0  0  0999 V2000
    3.9124    1.5330   -3.0215 H   0  0  0  0  0  0  0  0  0  0  0  0
    3.0483    1.4238   -2.5457 O   0  0  0  0  0  0  0  0  0  0  0  0
    3.3101    0.5889   -1.4517 C   0  0  0  0  0  0  0  0  0  0  0  0
    4.0669    1.0717   -0.7927 H   0  0  0  0  0  0  0  0  0  0  0  0
    3.7116   -0.3857   -1.8110 H   0  0  0  0  0  0  0  0  0  0  0  0
    2.0196    0.3504   -0.6610 C   0  0  1  0  0  0  0  0  0  0  0  0
    1.6567    1.3532   -0.3352 H   0  0  0  0  0  0  0  0  0  0  0  0
    1.0594   -0.2244   -1.5380 O   0  0  0  0  0  0  0  0  0  0  0  0
   -0.1075   -0.5937   -0.8238 C   0  0  1  0  0  0  0  0  0  0  0  0
   -0.4249    0.2279   -0.1302 H   0  0  0  0  0  0  0  0  0  0  0  0
   -1.1427   -0.8887   -1.7423 O   0  0  0  0  0  0  0  0  0  0  0  0
   -1.6859    0.3045   -2.2685 C   0  0  0  0  0  0  0  0  0  0  0  0
   -0.8925    0.9292   -2.7393 H   0  0  0  0  0  0  0  0  0  0  0  0
   -2.1903    0.8876   -1.4646 H   0  0  0  0  0  0  0  0  0  0  0  0
   -2.7244   -0.0490   -3.3309 C   0  0  0  0  0  0  0  0  0  0  0  0
   -2.2457   -0.6170   -4.1584 H   0  0  0  0  0  0  0  0  0  0  0  0
   -3.5083   -0.6900   -2.8743 H   0  0  0  0  0  0  0  0  0  0  0  0
   -3.3555    1.1535   -3.8606 N   0  0  0  0  0  0  0  0  0  0  0  0
   -2.7120    1.9731   -4.5172 N   0  0  0  0  0  4  0  0  0  0  0  0
   -2.0693    2.7918   -5.1726 N   0  0  0  0  0  2  0  0  0  0  0  0
    0.1803   -1.8590    0.0205 C   0  0  2  0  0  0  0  0  0  0  0  0
   -0.0367   -2.7666   -0.5878 H   0  0  0  0  0  0  0  0  0  0  0  0
   -0.6829   -1.8702    1.2093 N   0  0  0  0  0  0  0  0  0  0  0  0
   -0.3214   -1.4881    2.1123 H   0  0  0  0  0  0  0  0  0  0  0  0
   -2.0502   -2.3011    1.1615 C   0  0  0  0  0  0  0  0  0  0  0  0
   -2.5441   -2.7479    0.0909 O   0  0  0  0  0  0  0  0  0  0  0  0
   -2.9060   -2.1977    2.3814 C   0  0  0  0  0  0  0  0  0  0  0  0
   -2.3779   -2.6470    3.2479 H   0  0  0  0  0  0  0  0  0  0  0  0
   -3.1158   -1.1291    2.5952 H   0  0  0  0  0  0  0  0  0  0  0  0
   -3.8675   -2.7332    2.2308 H   0  0  0  0  0  0  0  0  0  0  0  0
    1.6846   -1.9410    0.4026 C   0  0  2  0  0  0  0  0  0  0  0  0
    2.2329   -2.4173   -0.4455 H   0  0  0  0  0  0  0  0  0  0  0  0
    1.8836   -2.7169    1.5570 O   0  0  0  0  0  0  0  0  0  0  0  0
    1.6795   -3.6560    1.3070 H   0  0  0  0  0  0  0  0  0  0  0  0
    2.2966   -0.5427    0.5941 C   0  0  2  0  0  0  0  0  0  0  0  0
    3.3930   -0.6800    0.7529 H   0  0  0  0  0  0  0  0  0  0  0  0
    1.7492    0.0564    1.7411 O   0  0  0  0  0  0  0  0  0  0  0  0
    2.3452    0.8139    1.9796 H   0  0  0  0  0  0  0  0  0  0  0  0
  1  2  1  0
  2  3  1  0
  3  4  1  0
  3  5  1  0
  3  6  1  0
  6  7  1  1
  6  8  1  0
  8  9  1  0
  9 10  1  1
  9 11  1  0
 11 12  1  0
 12 13  1  0
 12 14  1  0
 12 15  1  0
 15 16  1  0
 15 17  1  0
 15 18  1  0
 18 19  2  0
 19 20  2  0
  9 21  1  0
 21 22  1  6
 21 23  1  0
 23 24  1  0
 23 25  1  0
 25 26  2  0
 25 27  1  0
 27 28  1  0
 27 29  1  0
 27 30  1  0
 21 31  1  0
 31 32  1  6
 31 33  1  0
 33 34  1  0
 31 35  1  0
 35 36  1  1
 35 37  1  0
 37 38  1  0
 35  6  1  0
M  CHG  2  19   1  20  -1
M  END
>  <UniqueID>  (385) 
384

>  <SMILES>  (385) 
CC(=O)N[C@@H]1[C@H](O)[C@H](O)[C@@H](CO)O[C@H]1OCCN=[N+]=[N-]

>  <Energy>  (385) 
37.05045572488774

>  <Genealogy>  (385) 
CC(=O)N[C@@H]1[C@H](O)[C@H](O)[C@@H](CO)O[C@H]1OCCN=[N+]=[N-] (cis-trans isomerization)
CC(=O)N[C@@H]1[C@H](O)[C@H](O)[C@@H](CO)O[C@H]1OCCN=[N+]=[N-] (3D coordinates assigned)
CC(=O)N[C@@H]1[C@H](O)[C@H](O)[C@@H](CO)O[C@H]1OCCN=[N+]=[N-] (nonaromatic ring conformer: 37.05045572488774 kcal/mol)

$$$$
ZINC000102863660
     RDKit          3D

 42 42  0  0  0  0  0  0  0  0999 V2000
   -2.6136    3.2571   -0.0345 C   0  0  0  0  0  0  0  0  0  0  0  0
   -2.0120    2.2365    0.8754 C   0  0  0  0  0  0  0  0  0  0  0  0
   -2.7652    1.5220    1.5908 O   0  0  0  0  0  0  0  0  0  0  0  0
   -0.5897    2.0482    0.8972 N   0  0  0  0  0  0  0  0  0  0  0  0
    0.0587    0.9865    1.6763 C   0  0  1  0  0  0  0  0  0  0  0  0
    0.3749   -0.2205    0.7718 C   0  0  2  0  0  0  0  0  0  0  0  0
   -0.8508   -0.7154    0.2550 O   0  0  0  0  0  0  0  0  0  0  0  0
   -0.7800   -1.2419   -1.0695 C   0  0  0  0  0  0  0  0  0  0  0  0
    0.3445   -2.2928   -1.2444 C   0  0  0  0  0  0  0  0  0  0  0  0
   -2.1244   -1.9458   -1.3203 C   0  0  0  0  0  0  0  0  0  0  0  0
   -0.6377   -0.1082   -2.1104 C   0  0  0  0  0  0  0  0  0  0  0  0
    0.9835   -1.2475    1.5376 O   0  0  0  0  0  0  0  0  0  0  0  0
    2.2484   -0.8337    2.0284 C   0  0  2  0  0  0  0  0  0  0  0  0
    2.9323   -2.0391    2.6861 C   0  0  0  0  0  0  0  0  0  0  0  0
    2.1456   -2.5373    3.7336 O   0  0  0  0  0  0  0  0  0  0  0  0
    2.0837    0.3394    3.0254 C   0  0  1  0  0  0  0  0  0  0  0  0
    3.3426    0.7598    3.4858 O   0  0  0  0  0  0  0  0  0  0  0  0
    1.3485    1.5087    2.3387 C   0  0  1  0  0  0  0  0  0  0  0  0
    2.1814    2.1040    1.3729 O   0  0  0  0  0  0  0  0  0  0  0  0
   -3.6684    3.4583    0.2493 H   0  0  0  0  0  0  0  0  0  0  0  0
   -2.0395    4.2049    0.0320 H   0  0  0  0  0  0  0  0  0  0  0  0
   -2.5835    2.8842   -1.0792 H   0  0  0  0  0  0  0  0  0  0  0  0
   -0.0177    2.5855    0.2066 H   0  0  0  0  0  0  0  0  0  0  0  0
   -0.6205    0.6462    2.4905 H   0  0  0  0  0  0  0  0  0  0  0  0
    1.0623    0.1273   -0.0316 H   0  0  0  0  0  0  0  0  0  0  0  0
    0.2596   -2.7942   -2.2328 H   0  0  0  0  0  0  0  0  0  0  0  0
    0.2743   -3.0671   -0.4507 H   0  0  0  0  0  0  0  0  0  0  0  0
    1.3520   -1.8296   -1.1990 H   0  0  0  0  0  0  0  0  0  0  0  0
   -2.1681   -2.3809   -2.3426 H   0  0  0  0  0  0  0  0  0  0  0  0
   -2.2740   -2.7641   -0.5831 H   0  0  0  0  0  0  0  0  0  0  0  0
   -2.9640   -1.2258   -1.2083 H   0  0  0  0  0  0  0  0  0  0  0  0
   -1.3874    0.6876   -1.9142 H   0  0  0  0  0  0  0  0  0  0  0  0
    0.3714    0.3504   -2.0941 H   0  0  0  0  0  0  0  0  0  0  0  0
   -0.7994   -0.4986   -3.1385 H   0  0  0  0  0  0  0  0  0  0  0  0
    2.9058   -0.5155    1.1851 H   0  0  0  0  0  0  0  0  0  0  0  0
    3.9352   -1.7462    3.0699 H   0  0  0  0  0  0  0  0  0  0  0  0
    3.0746   -2.8334    1.9193 H   0  0  0  0  0  0  0  0  0  0  0  0
    2.6446   -3.3081    4.1099 H   0  0  0  0  0  0  0  0  0  0  0  0
    1.4674   -0.0091    3.8878 H   0  0  0  0  0  0  0  0  0  0  0  0
    3.1797    1.3251    4.2856 H   0  0  0  0  0  0  0  0  0  0  0  0
    1.0610    2.2627    3.1096 H   0  0  0  0  0  0  0  0  0  0  0  0
    2.7607    2.7540    1.8499 H   0  0  0  0  0  0  0  0  0  0  0  0
  1  2  1  0
  2  3  2  0
  2  4  1  0
  4  5  1  0
  5  6  1  0
  6  7  1  0
  7  8  1  0
  8  9  1  0
  8 10  1  0
  8 11  1  0
  6 12  1  0
 12 13  1  0
 13 14  1  0
 14 15  1  0
 13 16  1  0
 16 17  1  0
 16 18  1  0
 18 19  1  0
 18  5  1  0
  1 20  1  0
  1 21  1  0
  1 22  1  0
  4 23  1  0
  5 24  1  1
  6 25  1  6
  9 26  1  0
  9 27  1  0
  9 28  1  0
 10 29  1  0
 10 30  1  0
 10 31  1  0
 11 32  1  0
 11 33  1  0
 11 34  1  0
 13 35  1  6
 14 36  1  0
 14 37  1  0
 15 38  1  0
 16 39  1  1
 17 40  1  0
 18 41  1  1
 19 42  1  0
M  END
>  <UniqueID>  (386) 
385

>  <SMILES>  (386) 
CC(=O)N[C@H]1[C@H](OC(C)(C)C)O[C@H](CO)[C@@H](O)[C@H]1O

>  <Energy>  (386) 
38.13632163516804

>  <Genealogy>  (386) 
CC(=O)N[C@H]1[C@H](OC(C)(C)C)O[C@H](CO)[C@@H](O)[C@H]1O (3D coordinates assigned)
CC(=O)N[C@H]1[C@H](OC(C)(C)C)O[C@H](CO)[C@@H](O)[C@H]1O (nonaromatic ring conformer: 38.13632163516804 kcal/mol)

$$$$
ZINC000102863660
     RDKit          3D

 42 42  0  0  0  0  0  0  0  0999 V2000
    0.9148    4.4442    0.5129 H   0  0  0  0  0  0  0  0  0  0  0  0
    0.2108    4.5050   -0.2134 O   0  0  0  0  0  0  0  0  0  0  0  0
   -0.4711    3.3729   -0.6505 C   0  0  0  0  0  0  0  0  0  0  0  0
   -0.1867    2.2181   -0.1176 N   0  0  0  0  0  0  0  0  0  0  0  0
   -0.8074    0.9275   -0.4355 C   0  0  1  0  0  0  0  0  0  0  0  0
   -1.0777    0.8832   -1.5142 H   0  0  0  0  0  0  0  0  0  0  0  0
    0.2041   -0.2014   -0.1629 C   0  0  2  0  0  0  0  0  0  0  0  0
    0.4931   -0.1493    0.9112 H   0  0  0  0  0  0  0  0  0  0  0  0
    1.3161   -0.0127   -1.0248 O   0  0  0  0  0  0  0  0  0  0  0  0
    2.5729   -0.4254   -0.4880 C   0  0  0  0  0  0  0  0  0  0  0  0
    2.5503   -1.8694    0.0734 C   0  0  0  0  0  0  0  0  0  0  0  0
    2.1318   -2.5695   -0.6810 H   0  0  0  0  0  0  0  0  0  0  0  0
    1.9429   -1.9418    0.9995 H   0  0  0  0  0  0  0  0  0  0  0  0
    3.5786   -2.2042    0.3303 H   0  0  0  0  0  0  0  0  0  0  0  0
    3.5686   -0.3932   -1.6600 C   0  0  0  0  0  0  0  0  0  0  0  0
    3.6231    0.6293   -2.0928 H   0  0  0  0  0  0  0  0  0  0  0  0
    3.2407   -1.0883   -2.4630 H   0  0  0  0  0  0  0  0  0  0  0  0
    4.5885   -0.6909   -1.3320 H   0  0  0  0  0  0  0  0  0  0  0  0
    3.0700    0.5705    0.5843 C   0  0  0  0  0  0  0  0  0  0  0  0
    4.1351    0.3759    0.8357 H   0  0  0  0  0  0  0  0  0  0  0  0
    2.4951    0.4881    1.5287 H   0  0  0  0  0  0  0  0  0  0  0  0
    2.9808    1.6127    0.2093 H   0  0  0  0  0  0  0  0  0  0  0  0
   -0.3861   -1.4552   -0.4621 O   0  0  0  0  0  0  0  0  0  0  0  0
   -1.4517   -1.7375    0.4298 C   0  0  2  0  0  0  0  0  0  0  0  0
   -1.0999   -1.6947    1.4878 H   0  0  0  0  0  0  0  0  0  0  0  0
   -1.9311   -3.1730    0.1697 C   0  0  0  0  0  0  0  0  0  0  0  0
   -2.3391   -3.2492   -0.8610 H   0  0  0  0  0  0  0  0  0  0  0  0
   -2.7422   -3.4505    0.8804 H   0  0  0  0  0  0  0  0  0  0  0  0
   -0.8643   -4.0752    0.2917 O   0  0  0  0  0  0  0  0  0  0  0  0
   -0.6768   -4.1644    1.2626 H   0  0  0  0  0  0  0  0  0  0  0  0
   -2.6003   -0.7209    0.2216 C   0  0  1  0  0  0  0  0  0  0  0  0
   -2.9720   -0.8036   -0.8290 H   0  0  0  0  0  0  0  0  0  0  0  0
   -3.6455   -0.9626    1.1307 O   0  0  0  0  0  0  0  0  0  0  0  0
   -4.2993   -1.5553    0.6759 H   0  0  0  0  0  0  0  0  0  0  0  0
   -2.0733    0.7132    0.4185 C   0  0  1  0  0  0  0  0  0  0  0  0
   -2.8579    1.4276    0.0796 H   0  0  0  0  0  0  0  0  0  0  0  0
   -1.7739    0.9431    1.7746 O   0  0  0  0  0  0  0  0  0  0  0  0
   -2.6219    1.2028    2.2206 H   0  0  0  0  0  0  0  0  0  0  0  0
   -1.4919    3.5310   -1.7390 C   0  0  0  0  0  0  0  0  0  0  0  0
   -1.5901    4.6027   -2.0116 H   0  0  0  0  0  0  0  0  0  0  0  0
   -1.1736    2.9710   -2.6428 H   0  0  0  0  0  0  0  0  0  0  0  0
   -2.4832    3.1697   -1.4006 H   0  0  0  0  0  0  0  0  0  0  0  0
  1  2  1  0
  2  3  1  0
  3  4  2  0
  4  5  1  0
  5  6  1  6
  5  7  1  0
  7  8  1  1
  7  9  1  0
  9 10  1  0
 10 11  1  0
 11 12  1  0
 11 13  1  0
 11 14  1  0
 10 15  1  0
 15 16  1  0
 15 17  1  0
 15 18  1  0
 10 19  1  0
 19 20  1  0
 19 21  1  0
 19 22  1  0
  7 23  1  0
 23 24  1  0
 24 25  1  1
 24 26  1  0
 26 27  1  0
 26 28  1  0
 26 29  1  0
 29 30  1  0
 24 31  1  0
 31 32  1  6
 31 33  1  0
 33 34  1  0
 31 35  1  0
 35 36  1  6
 35 37  1  0
 37 38  1  0
  3 39  1  0
 39 40  1  0
 39 41  1  0
 39 42  1  0
 35  5  1  0
M  END
>  <UniqueID>  (387) 
386

>  <SMILES>  (387) 
C/C(O)=N/[C@H]1[C@H](OC(C)(C)C)O[C@H](CO)[C@@H](O)[C@H]1O

>  <Energy>  (387) 
40.825845498693255

>  <Genealogy>  (387) 
CC(O)=N[C@H]1[C@H](OC(C)(C)C)O[C@H](CO)[C@@H](O)[C@H]1O (tautomer)
C/C(O)=N/[C@H]1[C@H](OC(C)(C)C)O[C@H](CO)[C@@H](O)[C@H]1O (cis-trans isomerization)
C/C(O)=N/[C@H]1[C@H](OC(C)(C)C)O[C@H](CO)[C@@H](O)[C@H]1O (3D coordinates assigned)
C/C(O)=N/[C@H]1[C@H](OC(C)(C)C)O[C@H](CO)[C@@H](O)[C@H]1O (nonaromatic ring conformer: 40.825845498693255 kcal/mol)

$$$$
ZINC000102863660
     RDKit          3D

 42 42  0  0  0  0  0  0  0  0999 V2000
    4.4775   -1.3522    2.0081 H   0  0  0  0  0  0  0  0  0  0  0  0
    3.4655   -1.3208    1.9784 O   0  0  0  0  0  0  0  0  0  0  0  0
    2.7848   -0.3464    1.2528 C   0  0  0  0  0  0  0  0  0  0  0  0
    1.4824   -0.3621    1.2713 N   0  0  0  0  0  0  0  0  0  0  0  0
    0.5733    0.5486    0.5650 C   0  0  1  0  0  0  0  0  0  0  0  0
    1.0793    1.5111    0.3303 H   0  0  0  0  0  0  0  0  0  0  0  0
    0.0841   -0.1001   -0.7473 C   0  0  2  0  0  0  0  0  0  0  0  0
   -0.4231   -1.0555   -0.4843 H   0  0  0  0  0  0  0  0  0  0  0  0
    1.2054   -0.3056   -1.5910 O   0  0  0  0  0  0  0  0  0  0  0  0
    1.1416   -1.4711   -2.4117 C   0  0  0  0  0  0  0  0  0  0  0  0
    2.3040   -1.3510   -3.4117 C   0  0  0  0  0  0  0  0  0  0  0  0
    3.2727   -1.2800   -2.8708 H   0  0  0  0  0  0  0  0  0  0  0  0
    2.3443   -2.2296   -4.0919 H   0  0  0  0  0  0  0  0  0  0  0  0
    2.1881   -0.4336   -4.0284 H   0  0  0  0  0  0  0  0  0  0  0  0
   -0.1739   -1.5696   -3.2241 C   0  0  0  0  0  0  0  0  0  0  0  0
   -1.0464   -1.7810   -2.5717 H   0  0  0  0  0  0  0  0  0  0  0  0
   -0.3614   -0.6200   -3.7696 H   0  0  0  0  0  0  0  0  0  0  0  0
   -0.1131   -2.3948   -3.9662 H   0  0  0  0  0  0  0  0  0  0  0  0
    1.3668   -2.7507   -1.5749 C   0  0  0  0  0  0  0  0  0  0  0  0
    1.5337   -3.6273   -2.2377 H   0  0  0  0  0  0  0  0  0  0  0  0
    2.2572   -2.6287   -0.9214 H   0  0  0  0  0  0  0  0  0  0  0  0
    0.4937   -2.9907   -0.9355 H   0  0  0  0  0  0  0  0  0  0  0  0
   -0.8138    0.7757   -1.4081 O   0  0  0  0  0  0  0  0  0  0  0  0
   -2.0013    0.9487   -0.6527 C   0  0  2  0  0  0  0  0  0  0  0  0
   -2.4782   -0.0373   -0.4403 H   0  0  0  0  0  0  0  0  0  0  0  0
   -2.9955    1.7605   -1.4959 C   0  0  0  0  0  0  0  0  0  0  0  0
   -3.9606    1.8832   -0.9541 H   0  0  0  0  0  0  0  0  0  0  0  0
   -2.5811    2.7731   -1.6892 H   0  0  0  0  0  0  0  0  0  0  0  0
   -3.2202    1.1309   -2.7287 O   0  0  0  0  0  0  0  0  0  0  0  0
   -3.8007    0.3464   -2.5459 H   0  0  0  0  0  0  0  0  0  0  0  0
   -1.6820    1.6705    0.6789 C   0  0  1  0  0  0  0  0  0  0  0  0
   -1.2434    2.6731    0.4528 H   0  0  0  0  0  0  0  0  0  0  0  0
   -2.8446    1.8096    1.4575 O   0  0  0  0  0  0  0  0  0  0  0  0
   -3.2323    2.6997    1.2501 H   0  0  0  0  0  0  0  0  0  0  0  0
   -0.6311    0.8675    1.4688 C   0  0  1  0  0  0  0  0  0  0  0  0
   -0.2682    1.4886    2.3223 H   0  0  0  0  0  0  0  0  0  0  0  0
   -1.1926   -0.3290    1.9538 O   0  0  0  0  0  0  0  0  0  0  0  0
   -1.6539   -0.1099    2.8051 H   0  0  0  0  0  0  0  0  0  0  0  0
    3.5693    0.6965    0.5032 C   0  0  0  0  0  0  0  0  0  0  0  0
    3.3860    1.6967    0.9482 H   0  0  0  0  0  0  0  0  0  0  0  0
    3.2863    0.7063   -0.5679 H   0  0  0  0  0  0  0  0  0  0  0  0
    4.6568    0.4847    0.5650 H   0  0  0  0  0  0  0  0  0  0  0  0
  1  2  1  0
  2  3  1  0
  3  4  2  0
  4  5  1  0
  5  6  1  6
  5  7  1  0
  7  8  1  1
  7  9  1  0
  9 10  1  0
 10 11  1  0
 11 12  1  0
 11 13  1  0
 11 14  1  0
 10 15  1  0
 15 16  1  0
 15 17  1  0
 15 18  1  0
 10 19  1  0
 19 20  1  0
 19 21  1  0
 19 22  1  0
  7 23  1  0
 23 24  1  0
 24 25  1  1
 24 26  1  0
 26 27  1  0
 26 28  1  0
 26 29  1  0
 29 30  1  0
 24 31  1  0
 31 32  1  6
 31 33  1  0
 33 34  1  0
 31 35  1  0
 35 36  1  1
 35 37  1  0
 37 38  1  0
  3 39  1  0
 39 40  1  0
 39 41  1  0
 39 42  1  0
 35  5  1  0
M  END
>  <UniqueID>  (388) 
387

>  <SMILES>  (388) 
C/C(O)=N\[C@H]1[C@H](OC(C)(C)C)O[C@H](CO)[C@@H](O)[C@H]1O

>  <Energy>  (388) 
41.50734628905602

>  <Genealogy>  (388) 
CC(O)=N[C@H]1[C@H](OC(C)(C)C)O[C@H](CO)[C@@H](O)[C@H]1O (tautomer)
C/C(O)=N\[C@H]1[C@H](OC(C)(C)C)O[C@H](CO)[C@@H](O)[C@H]1O (cis-trans isomerization)
C/C(O)=N\[C@H]1[C@H](OC(C)(C)C)O[C@H](CO)[C@@H](O)[C@H]1O (3D coordinates assigned)
C/C(O)=N\[C@H]1[C@H](OC(C)(C)C)O[C@H](CO)[C@@H](O)[C@H]1O (nonaromatic ring conformer: 41.50734628905602 kcal/mol)

$$$$
ZINC000102974493
     RDKit          3D

 40 41  0  0  0  0  0  0  0  0999 V2000
    0.2554    2.6726    2.7792 C   0  0  0  0  0  0  0  0  0  0  0  0
   -0.0388    2.3132    1.3592 C   0  0  0  0  0  0  0  0  0  0  0  0
    0.3013    3.1042    0.4385 O   0  0  0  0  0  0  0  0  0  0  0  0
   -0.6469    1.0498    1.0506 N   0  0  0  0  0  0  0  0  0  0  0  0
   -0.8662    0.5816   -0.3229 C   0  0  1  0  0  0  0  0  0  0  0  0
    0.1247   -0.5470   -0.6951 C   0  0  2  0  0  0  0  0  0  0  0  0
    1.4665   -0.0556   -0.6264 O   0  0  0  0  0  0  0  0  0  0  0  0
    2.2665    0.0475    0.5252 C   0  0  0  0  0  0  0  0  0  0  0  0
    1.9489   -0.5830    1.7465 C   0  0  0  0  0  0  0  0  0  0  0  0
    2.7834   -0.4265    2.8576 C   0  0  0  0  0  0  0  0  0  0  0  0
    3.9411    0.3508    2.7636 C   0  0  0  0  0  0  0  0  0  0  0  0
    4.9814    0.5502    4.1615 Cl  0  0  0  0  0  0  0  0  0  0  0  0
    4.2687    0.9677    1.5532 C   0  0  0  0  0  0  0  0  0  0  0  0
    3.4372    0.8121    0.4405 C   0  0  0  0  0  0  0  0  0  0  0  0
   -0.1086   -0.9590   -2.0310 O   0  0  0  0  0  0  0  0  0  0  0  0
   -1.3864   -1.5614   -2.1661 C   0  0  2  0  0  0  0  0  0  0  0  0
   -1.4874   -2.1392   -3.5846 C   0  0  0  0  0  0  0  0  0  0  0  0
   -2.5999   -2.9843   -3.6910 O   0  0  0  0  0  0  0  0  0  0  0  0
   -2.4968   -0.5132   -1.8974 C   0  0  1  0  0  0  0  0  0  0  0  0
   -3.7708   -1.1015   -1.9885 O   0  0  0  0  0  0  0  0  0  0  0  0
   -2.3149    0.0881   -0.4919 C   0  0  1  0  0  0  0  0  0  0  0  0
   -2.6115   -0.8757    0.4902 O   0  0  0  0  0  0  0  0  0  0  0  0
   -0.5567    2.3058    3.4411 H   0  0  0  0  0  0  0  0  0  0  0  0
    0.3334    3.7749    2.8898 H   0  0  0  0  0  0  0  0  0  0  0  0
    1.2152    2.2080    3.0859 H   0  0  0  0  0  0  0  0  0  0  0  0
   -0.8599    0.4008    1.8417 H   0  0  0  0  0  0  0  0  0  0  0  0
   -0.7128    1.4200   -1.0389 H   0  0  0  0  0  0  0  0  0  0  0  0
    0.0098   -1.4218   -0.0190 H   0  0  0  0  0  0  0  0  0  0  0  0
    1.0664   -1.1930    1.8594 H   0  0  0  0  0  0  0  0  0  0  0  0
    2.5274   -0.9090    3.7924 H   0  0  0  0  0  0  0  0  0  0  0  0
    5.1654    1.5688    1.4734 H   0  0  0  0  0  0  0  0  0  0  0  0
    3.6976    1.2978   -0.4913 H   0  0  0  0  0  0  0  0  0  0  0  0
   -1.4878   -2.4145   -1.4541 H   0  0  0  0  0  0  0  0  0  0  0  0
   -1.5594   -1.3140   -4.3289 H   0  0  0  0  0  0  0  0  0  0  0  0
   -0.5664   -2.7258   -3.8017 H   0  0  0  0  0  0  0  0  0  0  0  0
   -2.6148   -3.3031   -4.6307 H   0  0  0  0  0  0  0  0  0  0  0  0
   -2.3968    0.3182   -2.6377 H   0  0  0  0  0  0  0  0  0  0  0  0
   -4.1177   -0.9136   -2.8995 H   0  0  0  0  0  0  0  0  0  0  0  0
   -2.9955    0.9659   -0.3817 H   0  0  0  0  0  0  0  0  0  0  0  0
   -3.5943   -0.8570    0.6289 H   0  0  0  0  0  0  0  0  0  0  0  0
  1  2  1  0
  2  3  2  0
  2  4  1  0
  4  5  1  0
  5  6  1  0
  6  7  1  0
  7  8  1  0
  8  9  2  0
  9 10  1  0
 10 11  2  0
 11 12  1  0
 11 13  1  0
 13 14  2  0
  6 15  1  0
 15 16  1  0
 16 17  1  0
 17 18  1  0
 16 19  1  0
 19 20  1  0
 19 21  1  0
 21 22  1  0
 21  5  1  0
 14  8  1  0
  1 23  1  0
  1 24  1  0
  1 25  1  0
  4 26  1  0
  5 27  1  6
  6 28  1  1
  9 29  1  0
 10 30  1  0
 13 31  1  0
 14 32  1  0
 16 33  1  1
 17 34  1  0
 17 35  1  0
 18 36  1  0
 19 37  1  6
 20 38  1  0
 21 39  1  6
 22 40  1  0
M  END
>  <UniqueID>  (389) 
388

>  <SMILES>  (389) 
CC(=O)N[C@H]1[C@H](Oc2ccc(Cl)cc2)O[C@H](CO)[C@@H](O)[C@H]1O

>  <Energy>  (389) 
38.21603993503328

>  <Genealogy>  (389) 
CC(=O)N[C@H]1[C@H](Oc2ccc(Cl)cc2)O[C@H](CO)[C@@H](O)[C@H]1O (3D coordinates assigned)
CC(=O)N[C@H]1[C@H](Oc2ccc(Cl)cc2)O[C@H](CO)[C@@H](O)[C@H]1O (nonaromatic ring conformer: 38.21603993503328 kcal/mol)

$$$$
ZINC000102974493
     RDKit          3D

 40 41  0  0  0  0  0  0  0  0999 V2000
   -0.8441    1.9496   -2.9531 H   0  0  0  0  0  0  0  0  0  0  0  0
    0.1058    2.0926   -2.6305 O   0  0  0  0  0  0  0  0  0  0  0  0
    0.6788    1.2468   -1.6852 C   0  0  0  0  0  0  0  0  0  0  0  0
   -0.0198    0.2465   -1.2249 N   0  0  0  0  0  0  0  0  0  0  0  0
    0.4000   -0.7365   -0.2200 C   0  0  1  0  0  0  0  0  0  0  0  0
    1.5070   -0.7482   -0.1150 H   0  0  0  0  0  0  0  0  0  0  0  0
   -0.2265   -0.4268    1.1615 C   0  0  2  0  0  0  0  0  0  0  0  0
   -1.3377   -0.4392    1.1109 H   0  0  0  0  0  0  0  0  0  0  0  0
    0.2136    0.8506    1.6297 O   0  0  0  0  0  0  0  0  0  0  0  0
   -0.3693    2.0982    1.3433 C   0  0  0  0  0  0  0  0  0  0  0  0
    0.2806    3.2454    1.8170 C   0  0  0  0  0  0  0  0  0  0  0  0
    1.1978    3.1498    2.3842 H   0  0  0  0  0  0  0  0  0  0  0  0
   -0.2380    4.5171    1.5570 C   0  0  0  0  0  0  0  0  0  0  0  0
    0.2791    5.3934    1.9265 H   0  0  0  0  0  0  0  0  0  0  0  0
   -1.4178    4.6549    0.8209 C   0  0  0  0  0  0  0  0  0  0  0  0
   -2.0663    6.2508    0.4907 Cl  0  0  0  0  0  0  0  0  0  0  0  0
   -2.0796    3.5185    0.3476 C   0  0  0  0  0  0  0  0  0  0  0  0
   -2.9931    3.6206   -0.2245 H   0  0  0  0  0  0  0  0  0  0  0  0
   -1.5641    2.2448    0.6074 C   0  0  0  0  0  0  0  0  0  0  0  0
   -2.0997    1.3932    0.2163 H   0  0  0  0  0  0  0  0  0  0  0  0
    0.2050   -1.3963    2.1002 O   0  0  0  0  0  0  0  0  0  0  0  0
   -0.3097   -2.6798    1.7816 C   0  0  2  0  0  0  0  0  0  0  0  0
   -1.4235   -2.6461    1.7229 H   0  0  0  0  0  0  0  0  0  0  0  0
    0.0563   -3.6324    2.9283 C   0  0  0  0  0  0  0  0  0  0  0  0
    1.1571   -3.7993    2.9483 H   0  0  0  0  0  0  0  0  0  0  0  0
   -0.2438   -3.1661    3.8937 H   0  0  0  0  0  0  0  0  0  0  0  0
   -0.6136   -4.8545    2.7838 O   0  0  0  0  0  0  0  0  0  0  0  0
   -0.3212   -5.4206    3.5447 H   0  0  0  0  0  0  0  0  0  0  0  0
    0.2747   -3.1679    0.4327 C   0  0  1  0  0  0  0  0  0  0  0  0
    1.3821   -3.2566    0.5404 H   0  0  0  0  0  0  0  0  0  0  0  0
   -0.2667   -4.4185    0.0918 O   0  0  0  0  0  0  0  0  0  0  0  0
    0.3125   -4.7959   -0.6208 H   0  0  0  0  0  0  0  0  0  0  0  0
   -0.0310   -2.1398   -0.6760 C   0  0  1  0  0  0  0  0  0  0  0  0
    0.5578   -2.4030   -1.5870 H   0  0  0  0  0  0  0  0  0  0  0  0
   -1.4056   -2.1403   -0.9784 O   0  0  0  0  0  0  0  0  0  0  0  0
   -1.5615   -2.8817   -1.6198 H   0  0  0  0  0  0  0  0  0  0  0  0
    2.0876    1.5198   -1.2465 C   0  0  0  0  0  0  0  0  0  0  0  0
    2.1425    1.6087   -0.1424 H   0  0  0  0  0  0  0  0  0  0  0  0
    2.7544    0.7022   -1.5915 H   0  0  0  0  0  0  0  0  0  0  0  0
    2.4435    2.4738   -1.6886 H   0  0  0  0  0  0  0  0  0  0  0  0
  1  2  1  0
  2  3  1  0
  3  4  2  0
  4  5  1  0
  5  6  1  1
  5  7  1  0
  7  8  1  6
  7  9  1  0
  9 10  1  0
 10 11  2  0
 11 12  1  0
 11 13  1  0
 13 14  1  0
 13 15  2  0
 15 16  1  0
 15 17  1  0
 17 18  1  0
 17 19  2  0
 19 20  1  0
  7 21  1  0
 21 22  1  0
 22 23  1  6
 22 24  1  0
 24 25  1  0
 24 26  1  0
 24 27  1  0
 27 28  1  0
 22 29  1  0
 29 30  1  1
 29 31  1  0
 31 32  1  0
 29 33  1  0
 33 34  1  6
 33 35  1  0
 35 36  1  0
  3 37  1  0
 37 38  1  0
 37 39  1  0
 37 40  1  0
 33  5  1  0
 19 10  1  0
M  END
>  <UniqueID>  (390) 
389

>  <SMILES>  (390) 
C/C(O)=N\[C@H]1[C@H](Oc2ccc(Cl)cc2)O[C@H](CO)[C@@H](O)[C@H]1O

>  <Energy>  (390) 
40.73341517828496

>  <Genealogy>  (390) 
CC(O)=N[C@H]1[C@H](Oc2ccc(Cl)cc2)O[C@H](CO)[C@@H](O)[C@H]1O (tautomer)
C/C(O)=N\[C@H]1[C@H](Oc2ccc(Cl)cc2)O[C@H](CO)[C@@H](O)[C@H]1O (cis-trans isomerization)
C/C(O)=N\[C@H]1[C@H](Oc2ccc(Cl)cc2)O[C@H](CO)[C@@H](O)[C@H]1O (3D coordinates assigned)
C/C(O)=N\[C@H]1[C@H](Oc2ccc(Cl)cc2)O[C@H](CO)[C@@H](O)[C@H]1O (nonaromatic ring conformer: 40.73341517828496 kcal/mol)

$$$$
ZINC000102974493
     RDKit          3D

 40 41  0  0  0  0  0  0  0  0999 V2000
   -0.8767   -3.0368   -1.7476 H   0  0  0  0  0  0  0  0  0  0  0  0
   -0.8251   -2.0437   -1.5550 O   0  0  0  0  0  0  0  0  0  0  0  0
   -1.9317   -1.3401   -1.0854 C   0  0  0  0  0  0  0  0  0  0  0  0
   -1.8628   -0.0686   -0.8126 N   0  0  0  0  0  0  0  0  0  0  0  0
   -0.7119    0.8356   -0.9553 C   0  0  1  0  0  0  0  0  0  0  0  0
   -1.0028    1.7882   -0.4582 H   0  0  0  0  0  0  0  0  0  0  0  0
    0.5566    0.3318   -0.2348 C   0  0  2  0  0  0  0  0  0  0  0  0
    0.9235   -0.6105   -0.6974 H   0  0  0  0  0  0  0  0  0  0  0  0
    0.2380    0.0698    1.1311 O   0  0  0  0  0  0  0  0  0  0  0  0
    1.1207   -0.4915    2.0668 C   0  0  0  0  0  0  0  0  0  0  0  0
    2.4362   -0.8746    1.7354 C   0  0  0  0  0  0  0  0  0  0  0  0
    2.8216   -0.7500    0.7330 H   0  0  0  0  0  0  0  0  0  0  0  0
    3.2740   -1.4285    2.7084 C   0  0  0  0  0  0  0  0  0  0  0  0
    4.2830   -1.7191    2.4448 H   0  0  0  0  0  0  0  0  0  0  0  0
    2.8105   -1.6067    4.0155 C   0  0  0  0  0  0  0  0  0  0  0  0
    3.8636   -2.3020    5.2339 Cl  0  0  0  0  0  0  0  0  0  0  0  0
    1.5062   -1.2300    4.3497 C   0  0  0  0  0  0  0  0  0  0  0  0
    1.1419   -1.3660    5.3600 H   0  0  0  0  0  0  0  0  0  0  0  0
    0.6666   -0.6755    3.3789 C   0  0  0  0  0  0  0  0  0  0  0  0
   -0.3419   -0.3866    3.6467 H   0  0  0  0  0  0  0  0  0  0  0  0
    1.5607    1.3310   -0.2910 O   0  0  0  0  0  0  0  0  0  0  0  0
    1.9853    1.5383   -1.6297 C   0  0  2  0  0  0  0  0  0  0  0  0
    2.3393    0.5798   -2.0778 H   0  0  0  0  0  0  0  0  0  0  0  0
    3.1804    2.5019   -1.6171 C   0  0  0  0  0  0  0  0  0  0  0  0
    2.8858    3.4810   -1.1734 H   0  0  0  0  0  0  0  0  0  0  0  0
    3.5216    2.6907   -2.6569 H   0  0  0  0  0  0  0  0  0  0  0  0
    4.2509    1.9424   -0.9040 O   0  0  0  0  0  0  0  0  0  0  0  0
    4.0659    2.0960    0.0592 H   0  0  0  0  0  0  0  0  0  0  0  0
    0.8187    2.1176   -2.4784 C   0  0  1  0  0  0  0  0  0  0  0  0
    0.5184    3.0914   -2.0310 H   0  0  0  0  0  0  0  0  0  0  0  0
    1.2046    2.3662   -3.8090 O   0  0  0  0  0  0  0  0  0  0  0  0
    1.6321    1.5431   -4.1625 H   0  0  0  0  0  0  0  0  0  0  0  0
   -0.4084    1.1801   -2.4272 C   0  0  1  0  0  0  0  0  0  0  0  0
   -1.2925    1.7162   -2.8482 H   0  0  0  0  0  0  0  0  0  0  0  0
   -0.1562    0.0095   -3.1630 O   0  0  0  0  0  0  0  0  0  0  0  0
   -0.4440    0.1836   -4.0970 H   0  0  0  0  0  0  0  0  0  0  0  0
   -3.2169   -2.0662   -0.8500 C   0  0  0  0  0  0  0  0  0  0  0  0
   -3.1593   -2.6133    0.1138 H   0  0  0  0  0  0  0  0  0  0  0  0
   -4.0699   -1.3551   -0.8148 H   0  0  0  0  0  0  0  0  0  0  0  0
   -3.3951   -2.7917   -1.6711 H   0  0  0  0  0  0  0  0  0  0  0  0
  1  2  1  0
  2  3  1  0
  3  4  2  0
  4  5  1  0
  5  6  1  1
  5  7  1  0
  7  8  1  6
  7  9  1  0
  9 10  1  0
 10 11  2  0
 11 12  1  0
 11 13  1  0
 13 14  1  0
 13 15  2  0
 15 16  1  0
 15 17  1  0
 17 18  1  0
 17 19  2  0
 19 20  1  0
  7 21  1  0
 21 22  1  0
 22 23  1  6
 22 24  1  0
 24 25  1  0
 24 26  1  0
 24 27  1  0
 27 28  1  0
 22 29  1  0
 29 30  1  1
 29 31  1  0
 31 32  1  0
 29 33  1  0
 33 34  1  6
 33 35  1  0
 35 36  1  0
  3 37  1  0
 37 38  1  0
 37 39  1  0
 37 40  1  0
 33  5  1  0
 19 10  1  0
M  END
>  <UniqueID>  (391) 
390

>  <SMILES>  (391) 
C/C(O)=N/[C@H]1[C@H](Oc2ccc(Cl)cc2)O[C@H](CO)[C@@H](O)[C@H]1O

>  <Energy>  (391) 
40.88128327750633

>  <Genealogy>  (391) 
CC(O)=N[C@H]1[C@H](Oc2ccc(Cl)cc2)O[C@H](CO)[C@@H](O)[C@H]1O (tautomer)
C/C(O)=N/[C@H]1[C@H](Oc2ccc(Cl)cc2)O[C@H](CO)[C@@H](O)[C@H]1O (cis-trans isomerization)
C/C(O)=N/[C@H]1[C@H](Oc2ccc(Cl)cc2)O[C@H](CO)[C@@H](O)[C@H]1O (3D coordinates assigned)
C/C(O)=N/[C@H]1[C@H](Oc2ccc(Cl)cc2)O[C@H](CO)[C@@H](O)[C@H]1O (nonaromatic ring conformer: 40.88128327750633 kcal/mol)

$$$$
ZINC000105341667
     RDKit          3D

 29 29  0  0  0  0  0  0  0  0999 V2000
   -2.4548   -1.6344    0.6297 C   0  0  0  0  0  0  0  0  0  0  0  0
   -1.3631   -0.7486    0.7394 O   0  0  0  0  0  0  0  0  0  0  0  0
   -0.7900   -0.4869   -0.5354 C   0  0  2  0  0  0  0  0  0  0  0  0
    0.6602   -1.0061   -0.5618 C   0  0  2  0  0  0  0  0  0  0  0  0
    0.6930   -2.3531   -0.1635 O   0  0  0  0  0  0  0  0  0  0  0  0
    1.5485   -0.1552    0.3770 C   0  0  1  0  0  0  0  0  0  0  0  0
    3.0068   -0.6356    0.3237 C   0  0  0  0  0  0  0  0  0  0  0  0
    3.7948    0.0947    1.2254 O   0  0  0  0  0  0  0  0  0  0  0  0
    1.5143    1.2130   -0.0036 O   0  0  0  0  0  0  0  0  0  0  0  0
    0.2101    1.7614    0.1187 C   0  0  2  0  0  0  0  0  0  0  0  0
   -0.2245    1.7441    1.4560 O   0  0  0  0  0  0  0  0  0  0  0  0
   -0.7889    1.0321   -0.8099 C   0  0  2  0  0  0  0  0  0  0  0  0
   -2.1390    1.6006   -0.6985 N   0  0  0  0  0  4  0  0  0  0  0  0
   -2.8620   -1.8229    1.6441 H   0  0  0  0  0  0  0  0  0  0  0  0
   -2.1352   -2.6114    0.2044 H   0  0  0  0  0  0  0  0  0  0  0  0
   -3.2675   -1.1885    0.0147 H   0  0  0  0  0  0  0  0  0  0  0  0
   -1.3355   -0.9760   -1.3813 H   0  0  0  0  0  0  0  0  0  0  0  0
    1.0579   -0.9130   -1.6008 H   0  0  0  0  0  0  0  0  0  0  0  0
    0.3440   -2.8850   -0.9258 H   0  0  0  0  0  0  0  0  0  0  0  0
    1.2044   -0.2789    1.4299 H   0  0  0  0  0  0  0  0  0  0  0  0
    3.4096   -0.5420   -0.7115 H   0  0  0  0  0  0  0  0  0  0  0  0
    3.0612   -1.7070    0.6112 H   0  0  0  0  0  0  0  0  0  0  0  0
    4.0355    0.9450    0.7731 H   0  0  0  0  0  0  0  0  0  0  0  0
    0.2606    2.8211   -0.2196 H   0  0  0  0  0  0  0  0  0  0  0  0
    0.4067    2.3187    1.9625 H   0  0  0  0  0  0  0  0  0  0  0  0
   -0.4369    1.1845   -1.8568 H   0  0  0  0  0  0  0  0  0  0  0  0
   -2.5107    1.5042    0.2740 H   0  0  0  0  0  0  0  0  0  0  0  0
   -2.1162    2.6144   -0.9545 H   0  0  0  0  0  0  0  0  0  0  0  0
   -2.7834    1.1106   -1.3609 H   0  0  0  0  0  0  0  0  0  0  0  0
  1  2  1  0
  2  3  1  0
  3  4  1  0
  4  5  1  0
  4  6  1  0
  6  7  1  0
  7  8  1  0
  6  9  1  0
  9 10  1  0
 10 11  1  0
 10 12  1  0
 12 13  1  0
 12  3  1  0
  1 14  1  0
  1 15  1  0
  1 16  1  0
  3 17  1  6
  4 18  1  6
  5 19  1  0
  6 20  1  1
  7 21  1  0
  7 22  1  0
  8 23  1  0
 10 24  1  6
 11 25  1  0
 12 26  1  6
 13 27  1  0
 13 28  1  0
 13 29  1  0
M  CHG  1  13   1
M  END
>  <UniqueID>  (392) 
391

>  <SMILES>  (392) 
CO[C@@H]1[C@H](O)[C@@H](CO)O[C@H](O)[C@@H]1[NH3+]

>  <Energy>  (392) 
29.773283244133868

>  <Genealogy>  (392) 
CO[C@@H]1[C@H](O)[C@@H](CO)O[C@H](O)[C@@H]1[NH3+] (protonated)
CO[C@@H]1[C@H](O)[C@@H](CO)O[C@H](O)[C@@H]1[NH3+] (3D coordinates assigned)
CO[C@@H]1[C@H](O)[C@@H](CO)O[C@H](O)[C@@H]1[NH3+] (nonaromatic ring conformer: 29.773283244133868 kcal/mol)

$$$$
ZINC000105341667
     RDKit          3D

 28 28  0  0  0  0  0  0  0  0999 V2000
    3.1544    1.2187   -0.4671 C   0  0  0  0  0  0  0  0  0  0  0  0
    2.0443    0.7954    0.2944 O   0  0  0  0  0  0  0  0  0  0  0  0
    0.8686    0.7584   -0.5012 C   0  0  2  0  0  0  0  0  0  0  0  0
    0.0923    2.0872   -0.3759 C   0  0  2  0  0  0  0  0  0  0  0  0
   -0.0393    2.4287    0.9816 O   0  0  0  0  0  0  0  0  0  0  0  0
   -1.3122    1.9855   -1.0286 C   0  0  1  0  0  0  0  0  0  0  0  0
   -1.2744    2.1247   -2.5668 C   0  0  0  0  0  0  0  0  0  0  0  0
   -2.5482    1.9114   -3.1124 O   0  0  0  0  0  0  0  0  0  0  0  0
   -2.0365    0.8387   -0.5965 O   0  0  0  0  0  0  0  0  0  0  0  0
   -1.3401   -0.3725   -0.8496 C   0  0  2  0  0  0  0  0  0  0  0  0
   -2.1507   -1.4533   -0.4742 O   0  0  0  0  0  0  0  0  0  0  0  0
   -0.0185   -0.4237   -0.0575 C   0  0  2  0  0  0  0  0  0  0  0  0
   -0.2801   -0.3793    1.3870 N   0  0  0  0  0  0  0  0  0  0  0  0
    4.0285    1.3205    0.2081 H   0  0  0  0  0  0  0  0  0  0  0  0
    3.4120    0.4629   -1.2413 H   0  0  0  0  0  0  0  0  0  0  0  0
    2.9742    2.2103   -0.9371 H   0  0  0  0  0  0  0  0  0  0  0  0
    1.1033    0.5860   -1.5806 H   0  0  0  0  0  0  0  0  0  0  0  0
    0.6772    2.8823   -0.8951 H   0  0  0  0  0  0  0  0  0  0  0  0
   -0.2279    3.4029    1.0185 H   0  0  0  0  0  0  0  0  0  0  0  0
   -1.8888    2.8678   -0.6731 H   0  0  0  0  0  0  0  0  0  0  0  0
   -0.5687    1.4010   -3.0210 H   0  0  0  0  0  0  0  0  0  0  0  0
   -0.9084    3.1402   -2.8427 H   0  0  0  0  0  0  0  0  0  0  0  0
   -3.0845    2.7213   -2.9072 H   0  0  0  0  0  0  0  0  0  0  0  0
   -1.1165   -0.4860   -1.9349 H   0  0  0  0  0  0  0  0  0  0  0  0
   -2.9443   -1.4306   -1.0704 H   0  0  0  0  0  0  0  0  0  0  0  0
    0.5091   -1.3739   -0.3034 H   0  0  0  0  0  0  0  0  0  0  0  0
   -0.8460   -1.2174    1.6524 H   0  0  0  0  0  0  0  0  0  0  0  0
    0.6268   -0.4913    1.8952 H   0  0  0  0  0  0  0  0  0  0  0  0
  1  2  1  0
  2  3  1  0
  3  4  1  0
  4  5  1  0
  4  6  1  0
  6  7  1  0
  7  8  1  0
  6  9  1  0
  9 10  1  0
 10 11  1  0
 10 12  1  0
 12 13  1  0
 12  3  1  0
  1 14  1  0
  1 15  1  0
  1 16  1  0
  3 17  1  6
  4 18  1  6
  5 19  1  0
  6 20  1  1
  7 21  1  0
  7 22  1  0
  8 23  1  0
 10 24  1  6
 11 25  1  0
 12 26  1  1
 13 27  1  0
 13 28  1  0
M  END
>  <UniqueID>  (393) 
392

>  <SMILES>  (393) 
CO[C@@H]1[C@H](O)[C@@H](CO)O[C@H](O)[C@@H]1N

>  <Energy>  (393) 
31.670605465997387

>  <Genealogy>  (393) 
CO[C@@H]1[C@H](O)[C@@H](CO)O[C@H](O)[C@@H]1N (3D coordinates assigned)
CO[C@@H]1[C@H](O)[C@@H](CO)O[C@H](O)[C@@H]1N (nonaromatic ring conformer: 31.670605465997387 kcal/mol)

$$$$
ZINC000105341667
     RDKit          3D

 28 28  0  0  0  0  0  0  0  0999 V2000
    3.0010    1.3680   -0.6765 C   0  0  0  0  0  0  0  0  0  0  0  0
    1.9659    0.9018    0.1617 O   0  0  0  0  0  0  0  0  0  0  0  0
    0.7619    0.7285   -0.5709 C   0  0  2  0  0  0  0  0  0  0  0  0
   -0.1016    2.0116   -0.5145 C   0  0  2  0  0  0  0  0  0  0  0  0
   -0.1956    2.4843    0.8063 O   0  0  0  0  0  0  0  0  0  0  0  0
   -1.5302    1.7607   -1.0613 C   0  0  1  0  0  0  0  0  0  0  0  0
   -1.6043    1.7322   -2.6026 C   0  0  0  0  0  0  0  0  0  0  0  0
   -1.3785    3.0171   -3.1147 O   0  0  0  0  0  0  0  0  0  0  0  0
   -2.1520    0.6264   -0.4688 O   0  0  0  0  0  0  0  0  0  0  0  0
   -1.4031   -0.5673   -0.6560 C   0  0  2  0  0  0  0  0  0  0  0  0
   -2.1142   -1.6621   -0.1373 O   0  0  0  0  0  0  0  0  0  0  0  0
   -0.0061   -0.4769    0.0011 C   0  0  2  0  0  0  0  0  0  0  0  0
   -0.0836   -0.4042    1.4665 N   0  0  0  0  0  0  0  0  0  0  0  0
    3.2812    0.5943   -1.4247 H   0  0  0  0  0  0  0  0  0  0  0  0
    3.8954    1.5728   -0.0532 H   0  0  0  0  0  0  0  0  0  0  0  0
    2.7206    2.3164   -1.1845 H   0  0  0  0  0  0  0  0  0  0  0  0
    0.9603    0.4886   -1.6444 H   0  0  0  0  0  0  0  0  0  0  0  0
    0.3778    2.7956   -1.1464 H   0  0  0  0  0  0  0  0  0  0  0  0
    0.6341    2.9965    0.9936 H   0  0  0  0  0  0  0  0  0  0  0  0
   -2.1421    2.6376   -0.7529 H   0  0  0  0  0  0  0  0  0  0  0  0
   -2.6181    1.3893   -2.9083 H   0  0  0  0  0  0  0  0  0  0  0  0
   -0.8531    1.0328   -3.0277 H   0  0  0  0  0  0  0  0  0  0  0  0
   -1.4529    2.9385   -4.1012 H   0  0  0  0  0  0  0  0  0  0  0  0
   -1.2738   -0.7735   -1.7399 H   0  0  0  0  0  0  0  0  0  0  0  0
   -2.5105   -1.3812    0.7284 H   0  0  0  0  0  0  0  0  0  0  0  0
    0.5642   -1.3942   -0.2717 H   0  0  0  0  0  0  0  0  0  0  0  0
   -0.8649    0.2252    1.7597 H   0  0  0  0  0  0  0  0  0  0  0  0
   -0.3017   -1.3572    1.8382 H   0  0  0  0  0  0  0  0  0  0  0  0
  1  2  1  0
  2  3  1  0
  3  4  1  0
  4  5  1  0
  4  6  1  0
  6  7  1  0
  7  8  1  0
  6  9  1  0
  9 10  1  0
 10 11  1  0
 10 12  1  0
 12 13  1  0
 12  3  1  0
  1 14  1  0
  1 15  1  0
  1 16  1  0
  3 17  1  6
  4 18  1  6
  5 19  1  0
  6 20  1  1
  7 21  1  0
  7 22  1  0
  8 23  1  0
 10 24  1  6
 11 25  1  0
 12 26  1  1
 13 27  1  0
 13 28  1  0
M  END
>  <UniqueID>  (394) 
393

>  <SMILES>  (394) 
CO[C@@H]1[C@H](O)[C@@H](CO)O[C@H](O)[C@@H]1N

>  <Energy>  (394) 
33.28497894503443

>  <Genealogy>  (394) 
CO[C@@H]1[C@H](O)[C@@H](CO)O[C@H](O)[C@@H]1N (3D coordinates assigned)
CO[C@@H]1[C@H](O)[C@@H](CO)O[C@H](O)[C@@H]1N (nonaromatic ring conformer: 33.28497894503443 kcal/mol)

$$$$
ZINC000106381125
     RDKit          3D

 45 45  0  0  0  0  0  0  0  0999 V2000
    0.1705    1.5930    3.5643 C   0  0  0  0  0  0  0  0  0  0  0  0
   -1.1705    0.9992    3.1206 C   0  0  0  0  0  0  0  0  0  0  0  0
   -1.0373   -0.1427    2.0765 C   0  0  0  0  0  0  0  0  0  0  0  0
   -0.2988   -1.3446    2.7260 C   0  0  0  0  0  0  0  0  0  0  0  0
   -2.4710   -0.5611    1.6728 C   0  0  0  0  0  0  0  0  0  0  0  0
   -0.3441    0.4048    0.9542 O   0  0  0  0  0  0  0  0  0  0  0  0
    0.0778   -0.5408   -0.0164 C   0  0  2  0  0  0  0  0  0  0  0  0
    1.4239   -0.8923    0.2578 O   0  0  0  0  0  0  0  0  0  0  0  0
    1.8816   -1.8881   -0.6426 C   0  0  2  0  0  0  0  0  0  0  0  0
    3.2686   -2.3567   -0.1845 C   0  0  0  0  0  0  0  0  0  0  0  0
    4.1644   -1.2792   -0.1545 O   0  0  0  0  0  0  0  0  0  0  0  0
    1.9186   -1.3343   -2.0883 C   0  0  1  0  0  0  0  0  0  0  0  0
    2.3390   -2.3385   -2.9764 O   0  0  0  0  0  0  0  0  0  0  0  0
    0.5216   -0.8255   -2.4906 C   0  0  1  0  0  0  0  0  0  0  0  0
   -0.3436   -1.9230   -2.6616 O   0  0  0  0  0  0  0  0  0  0  0  0
   -0.0140    0.1269   -1.4015 C   0  0  1  0  0  0  0  0  0  0  0  0
   -1.4008    0.5162   -1.6837 N   0  0  0  0  0  0  0  0  0  0  0  0
   -1.8768    1.8612   -1.5304 C   0  0  0  0  0  0  0  0  0  0  0  0
   -3.3293    2.1612   -1.7087 C   0  0  0  0  0  0  0  0  0  0  0  0
   -1.0868    2.7894   -1.2078 O   0  0  0  0  0  0  0  0  0  0  0  0
   -0.0158    2.4679    4.2223 H   0  0  0  0  0  0  0  0  0  0  0  0
    0.7591    0.8515    4.1426 H   0  0  0  0  0  0  0  0  0  0  0  0
    0.7617    1.9358    2.6893 H   0  0  0  0  0  0  0  0  0  0  0  0
   -1.7127    0.6388    4.0229 H   0  0  0  0  0  0  0  0  0  0  0  0
   -1.7749    1.8243    2.6819 H   0  0  0  0  0  0  0  0  0  0  0  0
   -0.3742   -2.2583    2.1004 H   0  0  0  0  0  0  0  0  0  0  0  0
   -0.7430   -1.5883    3.7150 H   0  0  0  0  0  0  0  0  0  0  0  0
    0.7778   -1.1157    2.8681 H   0  0  0  0  0  0  0  0  0  0  0  0
   -2.9704    0.2641    1.1217 H   0  0  0  0  0  0  0  0  0  0  0  0
   -2.4805   -1.4628    1.0280 H   0  0  0  0  0  0  0  0  0  0  0  0
   -3.0768   -0.8002    2.5736 H   0  0  0  0  0  0  0  0  0  0  0  0
   -0.5680   -1.4471   -0.0323 H   0  0  0  0  0  0  0  0  0  0  0  0
    1.2147   -2.7816   -0.6033 H   0  0  0  0  0  0  0  0  0  0  0  0
    3.6489   -3.1484   -0.8681 H   0  0  0  0  0  0  0  0  0  0  0  0
    3.1807   -2.7940    0.8355 H   0  0  0  0  0  0  0  0  0  0  0  0
    5.0331   -1.6519    0.1478 H   0  0  0  0  0  0  0  0  0  0  0  0
    2.6330   -0.4779   -2.1245 H   0  0  0  0  0  0  0  0  0  0  0  0
    2.5901   -1.8843   -3.8229 H   0  0  0  0  0  0  0  0  0  0  0  0
    0.6214   -0.2572   -3.4467 H   0  0  0  0  0  0  0  0  0  0  0  0
   -0.9573   -1.6999   -3.4094 H   0  0  0  0  0  0  0  0  0  0  0  0
    0.6398    1.0282   -1.3981 H   0  0  0  0  0  0  0  0  0  0  0  0
   -2.1111   -0.2348   -1.8381 H   0  0  0  0  0  0  0  0  0  0  0  0
   -3.8917    1.8041   -0.8213 H   0  0  0  0  0  0  0  0  0  0  0  0
   -3.7112    1.6465   -2.6151 H   0  0  0  0  0  0  0  0  0  0  0  0
   -3.4896    3.2541   -1.8250 H   0  0  0  0  0  0  0  0  0  0  0  0
  1  2  1  0
  2  3  1  0
  3  4  1  0
  3  5  1  0
  3  6  1  0
  6  7  1  0
  7  8  1  0
  8  9  1  0
  9 10  1  0
 10 11  1  0
  9 12  1  0
 12 13  1  0
 12 14  1  0
 14 15  1  0
 14 16  1  0
 16 17  1  0
 17 18  1  0
 18 19  1  0
 18 20  2  0
 16  7  1  0
  1 21  1  0
  1 22  1  0
  1 23  1  0
  2 24  1  0
  2 25  1  0
  4 26  1  0
  4 27  1  0
  4 28  1  0
  5 29  1  0
  5 30  1  0
  5 31  1  0
  7 32  1  6
  9 33  1  6
 10 34  1  0
 10 35  1  0
 11 36  1  0
 12 37  1  1
 13 38  1  0
 14 39  1  6
 15 40  1  0
 16 41  1  1
 17 42  1  0
 19 43  1  0
 19 44  1  0
 19 45  1  0
M  END
>  <UniqueID>  (395) 
394

>  <SMILES>  (395) 
CCC(C)(C)O[C@@H]1O[C@H](CO)[C@@H](O)[C@@H](O)[C@H]1NC(C)=O

>  <Energy>  (395) 
40.87812884376794

>  <Genealogy>  (395) 
CCC(C)(C)O[C@@H]1O[C@H](CO)[C@@H](O)[C@@H](O)[C@H]1NC(C)=O (3D coordinates assigned)
CCC(C)(C)O[C@@H]1O[C@H](CO)[C@@H](O)[C@@H](O)[C@H]1NC(C)=O (nonaromatic ring conformer: 40.87812884376794 kcal/mol)

$$$$
ZINC000106381125
     RDKit          3D

 45 45  0  0  0  0  0  0  0  0999 V2000
    4.5470    3.5263    1.3933 H   0  0  0  0  0  0  0  0  0  0  0  0
    3.6867    3.1164    1.0502 O   0  0  0  0  0  0  0  0  0  0  0  0
    3.5576    1.7436    0.8548 C   0  0  0  0  0  0  0  0  0  0  0  0
    2.4170    1.2864    0.4242 N   0  0  0  0  0  0  0  0  0  0  0  0
    2.0812   -0.1130    0.1402 C   0  0  1  0  0  0  0  0  0  0  0  0
    2.6085   -0.7880    0.8507 H   0  0  0  0  0  0  0  0  0  0  0  0
    0.5683   -0.3235    0.3385 C   0  0  2  0  0  0  0  0  0  0  0  0
    0.0344    0.3501   -0.3671 H   0  0  0  0  0  0  0  0  0  0  0  0
    0.2591   -0.0499    1.6987 O   0  0  0  0  0  0  0  0  0  0  0  0
   -0.9647    0.6542    1.9188 C   0  0  0  0  0  0  0  0  0  0  0  0
   -1.1262    0.7676    3.4483 C   0  0  0  0  0  0  0  0  0  0  0  0
   -0.3165    1.3970    3.8777 H   0  0  0  0  0  0  0  0  0  0  0  0
   -1.0523   -0.2308    3.9285 H   0  0  0  0  0  0  0  0  0  0  0  0
   -2.1051    1.2215    3.7163 H   0  0  0  0  0  0  0  0  0  0  0  0
   -0.8875    2.1011    1.3681 C   0  0  0  0  0  0  0  0  0  0  0  0
   -1.7080    2.7240    1.7864 H   0  0  0  0  0  0  0  0  0  0  0  0
   -0.9964    2.1413    0.2655 H   0  0  0  0  0  0  0  0  0  0  0  0
    0.0816    2.5678    1.6466 H   0  0  0  0  0  0  0  0  0  0  0  0
   -2.2068   -0.0794    1.3198 C   0  0  0  0  0  0  0  0  0  0  0  0
   -2.1209   -0.1519    0.2153 H   0  0  0  0  0  0  0  0  0  0  0  0
   -3.1218    0.5219    1.5170 H   0  0  0  0  0  0  0  0  0  0  0  0
   -2.4355   -1.4872    1.8811 C   0  0  0  0  0  0  0  0  0  0  0  0
   -1.4984   -2.0791    1.8863 H   0  0  0  0  0  0  0  0  0  0  0  0
   -3.1841   -2.0173    1.2552 H   0  0  0  0  0  0  0  0  0  0  0  0
   -2.8341   -1.4324    2.9157 H   0  0  0  0  0  0  0  0  0  0  0  0
    0.2382   -1.6751    0.0702 O   0  0  0  0  0  0  0  0  0  0  0  0
    0.4409   -1.9851   -1.2980 C   0  0  2  0  0  0  0  0  0  0  0  0
   -0.1408   -1.2901   -1.9487 H   0  0  0  0  0  0  0  0  0  0  0  0
   -0.0915   -3.4020   -1.5565 C   0  0  0  0  0  0  0  0  0  0  0  0
    0.0360   -3.6790   -2.6278 H   0  0  0  0  0  0  0  0  0  0  0  0
    0.4807   -4.1328   -0.9456 H   0  0  0  0  0  0  0  0  0  0  0  0
   -1.4446   -3.4892   -1.1986 O   0  0  0  0  0  0  0  0  0  0  0  0
   -1.9572   -3.0190   -1.9071 H   0  0  0  0  0  0  0  0  0  0  0  0
    1.9439   -1.8903   -1.6476 C   0  0  1  0  0  0  0  0  0  0  0  0
    2.4970   -2.6415   -1.0345 H   0  0  0  0  0  0  0  0  0  0  0  0
    2.1368   -2.1592   -3.0130 O   0  0  0  0  0  0  0  0  0  0  0  0
    3.1051   -2.3427   -3.1338 H   0  0  0  0  0  0  0  0  0  0  0  0
    2.4768   -0.4859   -1.3059 C   0  0  1  0  0  0  0  0  0  0  0  0
    3.5869   -0.5148   -1.3930 H   0  0  0  0  0  0  0  0  0  0  0  0
    1.9525    0.4499   -2.2170 O   0  0  0  0  0  0  0  0  0  0  0  0
    2.5911    1.2092   -2.2536 H   0  0  0  0  0  0  0  0  0  0  0  0
    4.7189    0.8401    1.1698 C   0  0  0  0  0  0  0  0  0  0  0  0
    4.4565    0.1677    2.0129 H   0  0  0  0  0  0  0  0  0  0  0  0
    4.9960    0.2377    0.2822 H   0  0  0  0  0  0  0  0  0  0  0  0
    5.6063    1.4362    1.4673 H   0  0  0  0  0  0  0  0  0  0  0  0
  1  2  1  0
  2  3  1  0
  3  4  2  0
  4  5  1  0
  5  6  1  1
  5  7  1  0
  7  8  1  6
  7  9  1  0
  9 10  1  0
 10 11  1  0
 11 12  1  0
 11 13  1  0
 11 14  1  0
 10 15  1  0
 15 16  1  0
 15 17  1  0
 15 18  1  0
 10 19  1  0
 19 20  1  0
 19 21  1  0
 19 22  1  0
 22 23  1  0
 22 24  1  0
 22 25  1  0
  7 26  1  0
 26 27  1  0
 27 28  1  6
 27 29  1  0
 29 30  1  0
 29 31  1  0
 29 32  1  0
 32 33  1  0
 27 34  1  0
 34 35  1  1
 34 36  1  0
 36 37  1  0
 34 38  1  0
 38 39  1  1
 38 40  1  0
 40 41  1  0
  3 42  1  0
 42 43  1  0
 42 44  1  0
 42 45  1  0
 38  5  1  0
M  END
>  <UniqueID>  (396) 
395

>  <SMILES>  (396) 
CCC(C)(C)O[C@@H]1O[C@H](CO)[C@@H](O)[C@@H](O)[C@H]1/N=C(/C)O

>  <Energy>  (396) 
43.788222457211795

>  <Genealogy>  (396) 
CCC(C)(C)O[C@@H]1O[C@H](CO)[C@@H](O)[C@@H](O)[C@H]1N=C(C)O (tautomer)
CCC(C)(C)O[C@@H]1O[C@H](CO)[C@@H](O)[C@@H](O)[C@H]1/N=C(/C)O (cis-trans isomerization)
CCC(C)(C)O[C@@H]1O[C@H](CO)[C@@H](O)[C@@H](O)[C@H]1/N=C(/C)O (3D coordinates assigned)
CCC(C)(C)O[C@@H]1O[C@H](CO)[C@@H](O)[C@@H](O)[C@H]1/N=C(/C)O (nonaromatic ring conformer: 43.788222457211795 kcal/mol)

$$$$
ZINC000106381125
     RDKit          3D

 45 45  0  0  0  0  0  0  0  0999 V2000
   -2.0121    1.2460   -1.5515 H   0  0  0  0  0  0  0  0  0  0  0  0
   -1.6906    2.1511   -1.2377 O   0  0  0  0  0  0  0  0  0  0  0  0
   -1.2768    2.4214    0.0699 C   0  0  0  0  0  0  0  0  0  0  0  0
   -1.2529    1.5111    1.0021 N   0  0  0  0  0  0  0  0  0  0  0  0
   -1.5909    0.0912    0.8647 C   0  0  1  0  0  0  0  0  0  0  0  0
   -2.4500   -0.0372    0.1706 H   0  0  0  0  0  0  0  0  0  0  0  0
   -0.3741   -0.7133    0.3518 C   0  0  2  0  0  0  0  0  0  0  0  0
    0.4551   -0.5736    1.0812 H   0  0  0  0  0  0  0  0  0  0  0  0
   -0.0270   -0.2422   -0.9406 O   0  0  0  0  0  0  0  0  0  0  0  0
    1.3653   -0.2921   -1.2583 C   0  0  0  0  0  0  0  0  0  0  0  0
    2.1435    0.7777   -0.4516 C   0  0  0  0  0  0  0  0  0  0  0  0
    2.3327    0.4540    0.5921 H   0  0  0  0  0  0  0  0  0  0  0  0
    3.1333    0.9872   -0.9098 H   0  0  0  0  0  0  0  0  0  0  0  0
    1.5725    1.7300   -0.4297 H   0  0  0  0  0  0  0  0  0  0  0  0
    1.4493    0.0885   -2.7497 C   0  0  0  0  0  0  0  0  0  0  0  0
    0.9658   -0.6920   -3.3757 H   0  0  0  0  0  0  0  0  0  0  0  0
    0.9175    1.0485   -2.9282 H   0  0  0  0  0  0  0  0  0  0  0  0
    2.4986    0.2200   -3.0882 H   0  0  0  0  0  0  0  0  0  0  0  0
    1.9599   -1.7252   -1.0464 C   0  0  0  0  0  0  0  0  0  0  0  0
    1.3129   -2.4680   -1.5621 H   0  0  0  0  0  0  0  0  0  0  0  0
    1.9589   -1.9839    0.0336 H   0  0  0  0  0  0  0  0  0  0  0  0
    3.3967   -1.9147   -1.5458 C   0  0  0  0  0  0  0  0  0  0  0  0
    4.0802   -1.1710   -1.0877 H   0  0  0  0  0  0  0  0  0  0  0  0
    3.7509   -2.9276   -1.2597 H   0  0  0  0  0  0  0  0  0  0  0  0
    3.4472   -1.8428   -2.6516 H   0  0  0  0  0  0  0  0  0  0  0  0
   -0.7230   -2.0835    0.2464 O   0  0  0  0  0  0  0  0  0  0  0  0
   -0.9758   -2.6411    1.5250 C   0  0  2  0  0  0  0  0  0  0  0  0
   -0.0980   -2.4950    2.1981 H   0  0  0  0  0  0  0  0  0  0  0  0
   -1.1766   -4.1547    1.3619 C   0  0  0  0  0  0  0  0  0  0  0  0
   -1.3669   -4.6334    2.3494 H   0  0  0  0  0  0  0  0  0  0  0  0
   -2.0595   -4.3464    0.7151 H   0  0  0  0  0  0  0  0  0  0  0  0
   -0.0513   -4.7352    0.7591 O   0  0  0  0  0  0  0  0  0  0  0  0
    0.6584   -4.7671    1.4527 H   0  0  0  0  0  0  0  0  0  0  0  0
   -2.2268   -1.9848    2.1520 C   0  0  1  0  0  0  0  0  0  0  0  0
   -3.1035   -2.1974    1.4948 H   0  0  0  0  0  0  0  0  0  0  0  0
   -2.4577   -2.5156    3.4321 O   0  0  0  0  0  0  0  0  0  0  0  0
   -3.3834   -2.2597    3.6841 H   0  0  0  0  0  0  0  0  0  0  0  0
   -2.0312   -0.4564    2.2347 C   0  0  1  0  0  0  0  0  0  0  0  0
   -3.0054    0.0194    2.5001 H   0  0  0  0  0  0  0  0  0  0  0  0
   -1.0651   -0.1395    3.2082 O   0  0  0  0  0  0  0  0  0  0  0  0
   -1.5285   -0.1328    4.0861 H   0  0  0  0  0  0  0  0  0  0  0  0
   -0.8674    3.8131    0.4160 C   0  0  0  0  0  0  0  0  0  0  0  0
    0.1151    3.8001    0.9336 H   0  0  0  0  0  0  0  0  0  0  0  0
   -0.7773    4.4267   -0.5049 H   0  0  0  0  0  0  0  0  0  0  0  0
   -1.6281    4.2703    1.0826 H   0  0  0  0  0  0  0  0  0  0  0  0
  1  2  1  0
  2  3  1  0
  3  4  2  0
  4  5  1  0
  5  6  1  6
  5  7  1  0
  7  8  1  1
  7  9  1  0
  9 10  1  0
 10 11  1  0
 11 12  1  0
 11 13  1  0
 11 14  1  0
 10 15  1  0
 15 16  1  0
 15 17  1  0
 15 18  1  0
 10 19  1  0
 19 20  1  0
 19 21  1  0
 19 22  1  0
 22 23  1  0
 22 24  1  0
 22 25  1  0
  7 26  1  0
 26 27  1  0
 27 28  1  1
 27 29  1  0
 29 30  1  0
 29 31  1  0
 29 32  1  0
 32 33  1  0
 27 34  1  0
 34 35  1  6
 34 36  1  0
 36 37  1  0
 34 38  1  0
 38 39  1  1
 38 40  1  0
 40 41  1  0
  3 42  1  0
 42 43  1  0
 42 44  1  0
 42 45  1  0
 38  5  1  0
M  END
>  <UniqueID>  (397) 
396

>  <SMILES>  (397) 
CCC(C)(C)O[C@@H]1O[C@H](CO)[C@@H](O)[C@@H](O)[C@H]1/N=C(\C)O

>  <Energy>  (397) 
44.23987453617464

>  <Genealogy>  (397) 
CCC(C)(C)O[C@@H]1O[C@H](CO)[C@@H](O)[C@@H](O)[C@H]1N=C(C)O (tautomer)
CCC(C)(C)O[C@@H]1O[C@H](CO)[C@@H](O)[C@@H](O)[C@H]1/N=C(\C)O (cis-trans isomerization)
CCC(C)(C)O[C@@H]1O[C@H](CO)[C@@H](O)[C@@H](O)[C@H]1/N=C(\C)O (3D coordinates assigned)
CCC(C)(C)O[C@@H]1O[C@H](CO)[C@@H](O)[C@@H](O)[C@H]1/N=C(\C)O (nonaromatic ring conformer: 44.23987453617464 kcal/mol)

$$$$
ZINC000106382931
     RDKit          3D

 40 41  0  0  0  0  0  0  0  0999 V2000
    2.1060   -0.1962    3.4797 C   0  0  0  0  0  0  0  0  0  0  0  0
    1.9733    0.1487    2.0322 C   0  0  0  0  0  0  0  0  0  0  0  0
    3.0086    0.4073    1.3611 O   0  0  0  0  0  0  0  0  0  0  0  0
    0.6822    0.1235    1.4049 N   0  0  0  0  0  0  0  0  0  0  0  0
    0.4867    0.3468   -0.0323 C   0  0  1  0  0  0  0  0  0  0  0  0
    0.1470   -0.9740   -0.7636 C   0  0  2  0  0  0  0  0  0  0  0  0
    1.2292   -1.8987   -0.6210 O   0  0  0  0  0  0  0  0  0  0  0  0
    1.4634   -2.7592    0.4660 C   0  0  0  0  0  0  0  0  0  0  0  0
    0.5049   -3.0187    1.4682 C   0  0  0  0  0  0  0  0  0  0  0  0
    0.8098   -3.8786    2.5282 C   0  0  0  0  0  0  0  0  0  0  0  0
    2.0635   -4.4905    2.5981 C   0  0  0  0  0  0  0  0  0  0  0  0
    2.3565   -5.3216    3.6284 F   0  0  0  0  0  0  0  0  0  0  0  0
    3.0138   -4.2474    1.6039 C   0  0  0  0  0  0  0  0  0  0  0  0
    2.7125   -3.3894    0.5423 C   0  0  0  0  0  0  0  0  0  0  0  0
   -0.0141   -0.7197   -2.1485 O   0  0  0  0  0  0  0  0  0  0  0  0
   -1.1398    0.1108   -2.3874 C   0  0  2  0  0  0  0  0  0  0  0  0
   -1.3548    0.2100   -3.9020 C   0  0  0  0  0  0  0  0  0  0  0  0
   -1.5702   -1.0687   -4.4321 O   0  0  0  0  0  0  0  0  0  0  0  0
   -0.9107    1.5117   -1.7737 C   0  0  1  0  0  0  0  0  0  0  0  0
   -2.0376    2.3226   -1.9897 O   0  0  0  0  0  0  0  0  0  0  0  0
   -0.6309    1.3808   -0.2631 C   0  0  1  0  0  0  0  0  0  0  0  0
   -1.7997    0.9848    0.4135 O   0  0  0  0  0  0  0  0  0  0  0  0
    3.0428    0.2325    3.8945 H   0  0  0  0  0  0  0  0  0  0  0  0
    2.1291   -1.2995    3.5953 H   0  0  0  0  0  0  0  0  0  0  0  0
    1.2454    0.2133    4.0489 H   0  0  0  0  0  0  0  0  0  0  0  0
   -0.1410   -0.1541    1.9860 H   0  0  0  0  0  0  0  0  0  0  0  0
    1.4184    0.7562   -0.4831 H   0  0  0  0  0  0  0  0  0  0  0  0
   -0.7877   -1.4250   -0.3654 H   0  0  0  0  0  0  0  0  0  0  0  0
   -0.4752   -2.5682    1.4490 H   0  0  0  0  0  0  0  0  0  0  0  0
    0.0719   -4.0690    3.2970 H   0  0  0  0  0  0  0  0  0  0  0  0
    3.9850   -4.7225    1.6549 H   0  0  0  0  0  0  0  0  0  0  0  0
    3.4573   -3.2046   -0.2215 H   0  0  0  0  0  0  0  0  0  0  0  0
   -2.0616   -0.3438   -1.9529 H   0  0  0  0  0  0  0  0  0  0  0  0
   -0.4574    0.6656   -4.3789 H   0  0  0  0  0  0  0  0  0  0  0  0
   -2.2398    0.8497   -4.1173 H   0  0  0  0  0  0  0  0  0  0  0  0
   -1.6922   -0.9449   -5.4093 H   0  0  0  0  0  0  0  0  0  0  0  0
   -0.0196    1.9710   -2.2646 H   0  0  0  0  0  0  0  0  0  0  0  0
   -1.7551    3.2572   -1.8096 H   0  0  0  0  0  0  0  0  0  0  0  0
   -0.2788    2.3645    0.1292 H   0  0  0  0  0  0  0  0  0  0  0  0
   -2.3271    1.8075    0.5882 H   0  0  0  0  0  0  0  0  0  0  0  0
  1  2  1  0
  2  3  2  0
  2  4  1  0
  4  5  1  0
  5  6  1  0
  6  7  1  0
  7  8  1  0
  8  9  2  0
  9 10  1  0
 10 11  2  0
 11 12  1  0
 11 13  1  0
 13 14  2  0
  6 15  1  0
 15 16  1  0
 16 17  1  0
 17 18  1  0
 16 19  1  0
 19 20  1  0
 19 21  1  0
 21 22  1  0
 21  5  1  0
 14  8  1  0
  1 23  1  0
  1 24  1  0
  1 25  1  0
  4 26  1  0
  5 27  1  6
  6 28  1  1
  9 29  1  0
 10 30  1  0
 13 31  1  0
 14 32  1  0
 16 33  1  1
 17 34  1  0
 17 35  1  0
 18 36  1  0
 19 37  1  6
 20 38  1  0
 21 39  1  1
 22 40  1  0
M  END
>  <UniqueID>  (398) 
397

>  <SMILES>  (398) 
CC(=O)N[C@H]1[C@H](Oc2ccc(F)cc2)O[C@H](CO)[C@@H](O)[C@H]1O

>  <Energy>  (398) 
37.19876645028695

>  <Genealogy>  (398) 
CC(=O)N[C@H]1[C@H](Oc2ccc(F)cc2)O[C@H](CO)[C@@H](O)[C@H]1O (3D coordinates assigned)
CC(=O)N[C@H]1[C@H](Oc2ccc(F)cc2)O[C@H](CO)[C@@H](O)[C@H]1O (nonaromatic ring conformer: 37.19876645028695 kcal/mol)

$$$$
ZINC000106382931
     RDKit          3D

 40 41  0  0  0  0  0  0  0  0999 V2000
   -2.7148   -3.3487   -0.4863 H   0  0  0  0  0  0  0  0  0  0  0  0
   -2.3646   -2.5128   -0.0338 O   0  0  0  0  0  0  0  0  0  0  0  0
   -2.7196   -1.2432   -0.4889 C   0  0  0  0  0  0  0  0  0  0  0  0
   -2.2478   -0.1759    0.0836 N   0  0  0  0  0  0  0  0  0  0  0  0
   -1.3195   -0.1765    1.2176 C   0  0  1  0  0  0  0  0  0  0  0  0
   -1.5556   -1.0267    1.8980 H   0  0  0  0  0  0  0  0  0  0  0  0
    0.1403   -0.3064    0.7299 C   0  0  2  0  0  0  0  0  0  0  0  0
    0.3709    0.5276    0.0258 H   0  0  0  0  0  0  0  0  0  0  0  0
    0.2937   -1.5382    0.0275 O   0  0  0  0  0  0  0  0  0  0  0  0
    1.4557   -1.9375   -0.6500 C   0  0  0  0  0  0  0  0  0  0  0  0
    1.4559   -3.1859   -1.2852 C   0  0  0  0  0  0  0  0  0  0  0  0
    0.5739   -3.8125   -1.2445 H   0  0  0  0  0  0  0  0  0  0  0  0
    2.5885   -3.6315   -1.9734 C   0  0  0  0  0  0  0  0  0  0  0  0
    2.5783   -4.5981   -2.4605 H   0  0  0  0  0  0  0  0  0  0  0  0
    3.7321   -2.8305   -2.0323 C   0  0  0  0  0  0  0  0  0  0  0  0
    4.8300   -3.2635   -2.6995 F   0  0  0  0  0  0  0  0  0  0  0  0
    3.7429   -1.5825   -1.4034 C   0  0  0  0  0  0  0  0  0  0  0  0
    4.6283   -0.9613   -1.4492 H   0  0  0  0  0  0  0  0  0  0  0  0
    2.6117   -1.1333   -0.7147 C   0  0  0  0  0  0  0  0  0  0  0  0
    2.6478   -0.1631   -0.2389 H   0  0  0  0  0  0  0  0  0  0  0  0
    1.0250   -0.3019    1.8377 O   0  0  0  0  0  0  0  0  0  0  0  0
    1.0050    0.9562    2.4906 C   0  0  2  0  0  0  0  0  0  0  0  0
    1.2554    1.7715    1.7714 H   0  0  0  0  0  0  0  0  0  0  0  0
    2.0897    0.9588    3.5771 C   0  0  0  0  0  0  0  0  0  0  0  0
    1.8934    0.1560    4.3249 H   0  0  0  0  0  0  0  0  0  0  0  0
    2.0805    1.9309    4.1140 H   0  0  0  0  0  0  0  0  0  0  0  0
    3.3578    0.7931    3.0010 O   0  0  0  0  0  0  0  0  0  0  0  0
    3.4716   -0.1786    2.8318 H   0  0  0  0  0  0  0  0  0  0  0  0
   -0.3953    1.2071    3.1090 C   0  0  1  0  0  0  0  0  0  0  0  0
   -0.5973    0.4009    3.8493 H   0  0  0  0  0  0  0  0  0  0  0  0
   -0.4587    2.4363    3.7917 O   0  0  0  0  0  0  0  0  0  0  0  0
   -0.1490    3.1470    3.1718 H   0  0  0  0  0  0  0  0  0  0  0  0
   -1.4834    1.1295    2.0200 C   0  0  1  0  0  0  0  0  0  0  0  0
   -2.4787    1.1236    2.5252 H   0  0  0  0  0  0  0  0  0  0  0  0
   -1.3840    2.2440    1.1659 O   0  0  0  0  0  0  0  0  0  0  0  0
   -2.2896    2.4084    0.7940 H   0  0  0  0  0  0  0  0  0  0  0  0
   -3.6348   -1.1053   -1.6624 C   0  0  0  0  0  0  0  0  0  0  0  0
   -3.0709   -1.3141   -2.5950 H   0  0  0  0  0  0  0  0  0  0  0  0
   -4.0569   -0.0788   -1.7145 H   0  0  0  0  0  0  0  0  0  0  0  0
   -4.4716   -1.8290   -1.5724 H   0  0  0  0  0  0  0  0  0  0  0  0
  1  2  1  0
  2  3  1  0
  3  4  2  0
  4  5  1  0
  5  6  1  1
  5  7  1  0
  7  8  1  6
  7  9  1  0
  9 10  1  0
 10 11  2  0
 11 12  1  0
 11 13  1  0
 13 14  1  0
 13 15  2  0
 15 16  1  0
 15 17  1  0
 17 18  1  0
 17 19  2  0
 19 20  1  0
  7 21  1  0
 21 22  1  0
 22 23  1  6
 22 24  1  0
 24 25  1  0
 24 26  1  0
 24 27  1  0
 27 28  1  0
 22 29  1  0
 29 30  1  1
 29 31  1  0
 31 32  1  0
 29 33  1  0
 33 34  1  1
 33 35  1  0
 35 36  1  0
  3 37  1  0
 37 38  1  0
 37 39  1  0
 37 40  1  0
 33  5  1  0
 19 10  1  0
M  END
>  <UniqueID>  (399) 
398

>  <SMILES>  (399) 
C/C(O)=N/[C@H]1[C@H](Oc2ccc(F)cc2)O[C@H](CO)[C@@H](O)[C@H]1O

>  <Energy>  (399) 
37.244224581660305

>  <Genealogy>  (399) 
CC(O)=N[C@H]1[C@H](Oc2ccc(F)cc2)O[C@H](CO)[C@@H](O)[C@H]1O (tautomer)
C/C(O)=N/[C@H]1[C@H](Oc2ccc(F)cc2)O[C@H](CO)[C@@H](O)[C@H]1O (cis-trans isomerization)
C/C(O)=N/[C@H]1[C@H](Oc2ccc(F)cc2)O[C@H](CO)[C@@H](O)[C@H]1O (3D coordinates assigned)
C/C(O)=N/[C@H]1[C@H](Oc2ccc(F)cc2)O[C@H](CO)[C@@H](O)[C@H]1O (nonaromatic ring conformer: 37.244224581660305 kcal/mol)

$$$$
ZINC000106382931
     RDKit          3D

 40 41  0  0  0  0  0  0  0  0999 V2000
   -3.8573    1.8290    3.8848 H   0  0  0  0  0  0  0  0  0  0  0  0
   -3.3299    1.2287    3.2623 O   0  0  0  0  0  0  0  0  0  0  0  0
   -2.6388    1.7385    2.1660 C   0  0  0  0  0  0  0  0  0  0  0  0
   -1.9721    0.9081    1.4163 N   0  0  0  0  0  0  0  0  0  0  0  0
   -1.1991    1.2367    0.2136 C   0  0  1  0  0  0  0  0  0  0  0  0
   -0.7203    2.2352    0.3234 H   0  0  0  0  0  0  0  0  0  0  0  0
   -0.0746    0.2026    0.0323 C   0  0  2  0  0  0  0  0  0  0  0  0
   -0.5148   -0.8205   -0.0338 H   0  0  0  0  0  0  0  0  0  0  0  0
    0.7805    0.2498    1.1740 O   0  0  0  0  0  0  0  0  0  0  0  0
    1.8532   -0.6242    1.4094 C   0  0  0  0  0  0  0  0  0  0  0  0
    2.6211   -0.4353    2.5657 C   0  0  0  0  0  0  0  0  0  0  0  0
    2.3796    0.3691    3.2489 H   0  0  0  0  0  0  0  0  0  0  0  0
    3.7007   -1.2784    2.8463 C   0  0  0  0  0  0  0  0  0  0  0  0
    4.2878   -1.1232    3.7423 H   0  0  0  0  0  0  0  0  0  0  0  0
    4.0215   -2.3197    1.9715 C   0  0  0  0  0  0  0  0  0  0  0  0
    5.0685   -3.1367    2.2443 F   0  0  0  0  0  0  0  0  0  0  0  0
    3.2619   -2.5188    0.8155 C   0  0  0  0  0  0  0  0  0  0  0  0
    3.5095   -3.3257    0.1378 H   0  0  0  0  0  0  0  0  0  0  0  0
    2.1811   -1.6776    0.5317 C   0  0  0  0  0  0  0  0  0  0  0  0
    1.6102   -1.8560   -0.3689 H   0  0  0  0  0  0  0  0  0  0  0  0
    0.6860    0.5104   -1.1233 O   0  0  0  0  0  0  0  0  0  0  0  0
   -0.0969    0.3536   -2.2949 C   0  0  2  0  0  0  0  0  0  0  0  0
   -0.5153   -0.6798   -2.3431 H   0  0  0  0  0  0  0  0  0  0  0  0
    0.8292    0.5255   -3.5067 C   0  0  0  0  0  0  0  0  0  0  0  0
    1.7392   -0.0980   -3.3561 H   0  0  0  0  0  0  0  0  0  0  0  0
    1.1455    1.5892   -3.5977 H   0  0  0  0  0  0  0  0  0  0  0  0
    0.1832    0.1114   -4.6791 O   0  0  0  0  0  0  0  0  0  0  0  0
    0.8272    0.2669   -5.4180 H   0  0  0  0  0  0  0  0  0  0  0  0
   -1.2484    1.3924   -2.3038 C   0  0  1  0  0  0  0  0  0  0  0  0
   -0.8085    2.4199   -2.2918 H   0  0  0  0  0  0  0  0  0  0  0  0
   -2.0661    1.2193   -3.4346 O   0  0  0  0  0  0  0  0  0  0  0  0
   -1.7651    1.8730   -4.1185 H   0  0  0  0  0  0  0  0  0  0  0  0
   -2.1059    1.2374   -1.0363 C   0  0  1  0  0  0  0  0  0  0  0  0
   -2.8027    2.1054   -0.9929 H   0  0  0  0  0  0  0  0  0  0  0  0
   -2.8423    0.0401   -1.1098 O   0  0  0  0  0  0  0  0  0  0  0  0
   -3.6496    0.1600   -0.5446 H   0  0  0  0  0  0  0  0  0  0  0  0
   -2.6637    3.2196    1.9008 C   0  0  0  0  0  0  0  0  0  0  0  0
   -3.0529    3.4271    0.8845 H   0  0  0  0  0  0  0  0  0  0  0  0
   -1.6418    3.6399    2.0050 H   0  0  0  0  0  0  0  0  0  0  0  0
   -3.3236    3.7344    2.6296 H   0  0  0  0  0  0  0  0  0  0  0  0
  1  2  1  0
  2  3  1  0
  3  4  2  0
  4  5  1  0
  5  6  1  1
  5  7  1  0
  7  8  1  6
  7  9  1  0
  9 10  1  0
 10 11  2  0
 11 12  1  0
 11 13  1  0
 13 14  1  0
 13 15  2  0
 15 16  1  0
 15 17  1  0
 17 18  1  0
 17 19  2  0
 19 20  1  0
  7 21  1  0
 21 22  1  0
 22 23  1  1
 22 24  1  0
 24 25  1  0
 24 26  1  0
 24 27  1  0
 27 28  1  0
 22 29  1  0
 29 30  1  6
 29 31  1  0
 31 32  1  0
 29 33  1  0
 33 34  1  1
 33 35  1  0
 35 36  1  0
  3 37  1  0
 37 38  1  0
 37 39  1  0
 37 40  1  0
 33  5  1  0
 19 10  1  0
M  END
>  <UniqueID>  (400) 
399

>  <SMILES>  (400) 
C/C(O)=N\[C@H]1[C@H](Oc2ccc(F)cc2)O[C@H](CO)[C@@H](O)[C@H]1O

>  <Energy>  (400) 
38.77546518827223

>  <Genealogy>  (400) 
CC(O)=N[C@H]1[C@H](Oc2ccc(F)cc2)O[C@H](CO)[C@@H](O)[C@H]1O (tautomer)
C/C(O)=N\[C@H]1[C@H](Oc2ccc(F)cc2)O[C@H](CO)[C@@H](O)[C@H]1O (cis-trans isomerization)
C/C(O)=N\[C@H]1[C@H](Oc2ccc(F)cc2)O[C@H](CO)[C@@H](O)[C@H]1O (3D coordinates assigned)
C/C(O)=N\[C@H]1[C@H](Oc2ccc(F)cc2)O[C@H](CO)[C@@H](O)[C@H]1O (nonaromatic ring conformer: 38.77546518827223 kcal/mol)

$$$$
ZINC000106382957
     RDKit          3D

 42 43  0  0  0  0  0  0  0  0999 V2000
   -0.6495    0.4950   -3.0599 C   0  0  0  0  0  0  0  0  0  0  0  0
    0.6539    0.5199   -2.3304 C   0  0  0  0  0  0  0  0  0  0  0  0
    1.6441    1.0980   -2.8543 O   0  0  0  0  0  0  0  0  0  0  0  0
    0.7527   -0.0563   -1.0191 N   0  0  0  0  0  0  0  0  0  0  0  0
    1.9679    0.0224   -0.2002 C   0  0  1  0  0  0  0  0  0  0  0  0
    1.7848    1.0065    0.9797 C   0  0  2  0  0  0  0  0  0  0  0  0
    1.5266    2.3209    0.4773 O   0  0  0  0  0  0  0  0  0  0  0  0
    0.2915    2.8298    0.0317 C   0  0  0  0  0  0  0  0  0  0  0  0
   -0.9378    2.2175    0.3563 C   0  0  0  0  0  0  0  0  0  0  0  0
   -2.1403    2.7507   -0.1110 C   0  0  0  0  0  0  0  0  0  0  0  0
   -2.1380    3.8992   -0.8999 C   0  0  0  0  0  0  0  0  0  0  0  0
   -0.9326    4.5232   -1.2224 C   0  0  0  0  0  0  0  0  0  0  0  0
    0.2887    3.9997   -0.7597 C   0  0  0  0  0  0  0  0  0  0  0  0
    1.5617    4.6628   -1.1161 C   0  0  0  0  0  0  0  0  0  0  0  0
    1.5759    5.7054   -1.8234 O   0  0  0  0  0  0  0  0  0  0  0  0
    2.9830    1.0683    1.7337 O   0  0  0  0  0  0  0  0  0  0  0  0
    3.2593   -0.1765    2.3570 C   0  0  2  0  0  0  0  0  0  0  0  0
    4.4673    0.0067    3.2878 C   0  0  0  0  0  0  0  0  0  0  0  0
    4.2207    1.0295    4.2150 O   0  0  0  0  0  0  0  0  0  0  0  0
    3.5448   -1.2578    1.2861 C   0  0  1  0  0  0  0  0  0  0  0  0
    3.7795   -2.5048    1.8922 O   0  0  0  0  0  0  0  0  0  0  0  0
    2.3434   -1.3735    0.3304 C   0  0  1  0  0  0  0  0  0  0  0  0
    1.2442   -1.9445    0.9992 O   0  0  0  0  0  0  0  0  0  0  0  0
   -1.1737   -0.4650   -2.8705 H   0  0  0  0  0  0  0  0  0  0  0  0
   -1.2846    1.3342   -2.7085 H   0  0  0  0  0  0  0  0  0  0  0  0
   -0.4820    0.5990   -4.1528 H   0  0  0  0  0  0  0  0  0  0  0  0
   -0.1090   -0.4725   -0.5985 H   0  0  0  0  0  0  0  0  0  0  0  0
    2.8196    0.3859   -0.8178 H   0  0  0  0  0  0  0  0  0  0  0  0
    0.9537    0.6865    1.6442 H   0  0  0  0  0  0  0  0  0  0  0  0
   -0.9876    1.3311    0.9687 H   0  0  0  0  0  0  0  0  0  0  0  0
   -3.0777    2.2709    0.1398 H   0  0  0  0  0  0  0  0  0  0  0  0
   -3.0726    4.3083   -1.2613 H   0  0  0  0  0  0  0  0  0  0  0  0
   -0.9564    5.4151   -1.8360 H   0  0  0  0  0  0  0  0  0  0  0  0
    2.5053    4.2592   -0.7733 H   0  0  0  0  0  0  0  0  0  0  0  0
    2.3994   -0.4961    2.9918 H   0  0  0  0  0  0  0  0  0  0  0  0
    5.3611    0.2839    2.6886 H   0  0  0  0  0  0  0  0  0  0  0  0
    4.6965   -0.9415    3.8249 H   0  0  0  0  0  0  0  0  0  0  0  0
    3.5943    0.6570    4.8893 H   0  0  0  0  0  0  0  0  0  0  0  0
    4.4317   -0.9462    0.6818 H   0  0  0  0  0  0  0  0  0  0  0  0
    4.7614   -2.5956    2.0073 H   0  0  0  0  0  0  0  0  0  0  0  0
    2.6318   -2.0097   -0.5401 H   0  0  0  0  0  0  0  0  0  0  0  0
    1.3545   -2.9299    0.9516 H   0  0  0  0  0  0  0  0  0  0  0  0
  1  2  1  0
  2  3  2  0
  2  4  1  0
  4  5  1  0
  5  6  1  0
  6  7  1  0
  7  8  1  0
  8  9  2  0
  9 10  1  0
 10 11  2  0
 11 12  1  0
 12 13  2  0
 13 14  1  0
 14 15  2  0
  6 16  1  0
 16 17  1  0
 17 18  1  0
 18 19  1  0
 17 20  1  0
 20 21  1  0
 20 22  1  0
 22 23  1  0
 22  5  1  0
 13  8  1  0
  1 24  1  0
  1 25  1  0
  1 26  1  0
  4 27  1  0
  5 28  1  6
  6 29  1  1
  9 30  1  0
 10 31  1  0
 11 32  1  0
 12 33  1  0
 14 34  1  0
 17 35  1  1
 18 36  1  0
 18 37  1  0
 19 38  1  0
 20 39  1  6
 21 40  1  0
 22 41  1  6
 23 42  1  0
M  END
>  <UniqueID>  (401) 
400

>  <SMILES>  (401) 
CC(=O)N[C@H]1[C@H](Oc2ccccc2C=O)O[C@H](CO)[C@@H](O)[C@H]1O

>  <Energy>  (401) 
40.66162602029855

>  <Genealogy>  (401) 
CC(=O)N[C@H]1[C@H](Oc2ccccc2C=O)O[C@H](CO)[C@@H](O)[C@H]1O (3D coordinates assigned)
CC(=O)N[C@H]1[C@H](Oc2ccccc2C=O)O[C@H](CO)[C@@H](O)[C@H]1O (nonaromatic ring conformer: 40.66162602029855 kcal/mol)

$$$$
ZINC000106382957
     RDKit          3D

 42 43  0  0  0  0  0  0  0  0999 V2000
    0.3673   -0.3580   -4.0161 C   0  0  0  0  0  0  0  0  0  0  0  0
    1.4083   -0.0540   -2.9889 C   0  0  0  0  0  0  0  0  0  0  0  0
    2.3563    0.7252   -3.2781 O   0  0  0  0  0  0  0  0  0  0  0  0
    1.3017   -0.6205   -1.6747 N   0  0  0  0  0  0  0  0  0  0  0  0
    2.1959   -0.2489   -0.5720 C   0  0  1  0  0  0  0  0  0  0  0  0
    1.4778    0.7104    0.3960 C   0  0  2  0  0  0  0  0  0  0  0  0
    1.1088    1.8870   -0.3216 O   0  0  0  0  0  0  0  0  0  0  0  0
    0.3345    2.9413    0.1927 C   0  0  0  0  0  0  0  0  0  0  0  0
   -0.1562    2.9261    1.5149 C   0  0  0  0  0  0  0  0  0  0  0  0
   -0.9205    3.9894    1.9984 C   0  0  0  0  0  0  0  0  0  0  0  0
   -1.2067    5.0772    1.1748 C   0  0  0  0  0  0  0  0  0  0  0  0
   -0.7309    5.1061   -0.1372 C   0  0  0  0  0  0  0  0  0  0  0  0
    0.0408    4.0426   -0.6404 C   0  0  0  0  0  0  0  0  0  0  0  0
    0.5378    4.0784   -2.0329 C   0  0  0  0  0  0  0  0  0  0  0  0
    0.2848    5.0544   -2.7884 O   0  0  0  0  0  0  0  0  0  0  0  0
    2.3474    1.0728    1.4547 O   0  0  0  0  0  0  0  0  0  0  0  0
    2.6323   -0.0493    2.2725 C   0  0  2  0  0  0  0  0  0  0  0  0
    3.4283    0.4317    3.4942 C   0  0  0  0  0  0  0  0  0  0  0  0
    2.7038    1.4042    4.1985 O   0  0  0  0  0  0  0  0  0  0  0  0
    3.4440   -1.1015    1.4696 C   0  0  1  0  0  0  0  0  0  0  0  0
    3.7530   -2.2342    2.2454 O   0  0  0  0  0  0  0  0  0  0  0  0
    2.7074   -1.5056    0.1704 C   0  0  1  0  0  0  0  0  0  0  0  0
    1.6755   -2.4327    0.4183 O   0  0  0  0  0  0  0  0  0  0  0  0
    0.1723   -1.4505   -4.0410 H   0  0  0  0  0  0  0  0  0  0  0  0
    0.7055   -0.0321   -5.0227 H   0  0  0  0  0  0  0  0  0  0  0  0
   -0.5712    0.1755   -3.7584 H   0  0  0  0  0  0  0  0  0  0  0  0
    0.4624   -1.2065   -1.4627 H   0  0  0  0  0  0  0  0  0  0  0  0
    3.0905    0.2814   -0.9694 H   0  0  0  0  0  0  0  0  0  0  0  0
    0.5462    0.2351    0.7811 H   0  0  0  0  0  0  0  0  0  0  0  0
    0.0465    2.0978    2.1792 H   0  0  0  0  0  0  0  0  0  0  0  0
   -1.2918    3.9697    3.0149 H   0  0  0  0  0  0  0  0  0  0  0  0
   -1.7998    5.8998    1.5532 H   0  0  0  0  0  0  0  0  0  0  0  0
   -0.9678    5.9611   -0.7582 H   0  0  0  0  0  0  0  0  0  0  0  0
    1.1287    3.2615   -2.4254 H   0  0  0  0  0  0  0  0  0  0  0  0
    1.6883   -0.5011    2.6563 H   0  0  0  0  0  0  0  0  0  0  0  0
    3.6682   -0.4235    4.1663 H   0  0  0  0  0  0  0  0  0  0  0  0
    4.3880    0.8818    3.1611 H   0  0  0  0  0  0  0  0  0  0  0  0
    1.9882    0.9241    4.6917 H   0  0  0  0  0  0  0  0  0  0  0  0
    4.4063   -0.6297    1.1694 H   0  0  0  0  0  0  0  0  0  0  0  0
    2.9078   -2.5735    2.6399 H   0  0  0  0  0  0  0  0  0  0  0  0
    3.4439   -2.0115   -0.4918 H   0  0  0  0  0  0  0  0  0  0  0  0
    1.0087   -2.0069    1.0142 H   0  0  0  0  0  0  0  0  0  0  0  0
  1  2  1  0
  2  3  2  0
  2  4  1  0
  4  5  1  0
  5  6  1  0
  6  7  1  0
  7  8  1  0
  8  9  2  0
  9 10  1  0
 10 11  2  0
 11 12  1  0
 12 13  2  0
 13 14  1  0
 14 15  2  0
  6 16  1  0
 16 17  1  0
 17 18  1  0
 18 19  1  0
 17 20  1  0
 20 21  1  0
 20 22  1  0
 22 23  1  0
 22  5  1  0
 13  8  1  0
  1 24  1  0
  1 25  1  0
  1 26  1  0
  4 27  1  0
  5 28  1  6
  6 29  1  1
  9 30  1  0
 10 31  1  0
 11 32  1  0
 12 33  1  0
 14 34  1  0
 17 35  1  1
 18 36  1  0
 18 37  1  0
 19 38  1  0
 20 39  1  6
 21 40  1  0
 22 41  1  6
 23 42  1  0
M  END
>  <UniqueID>  (402) 
401

>  <SMILES>  (402) 
CC(=O)N[C@H]1[C@H](Oc2ccccc2C=O)O[C@H](CO)[C@@H](O)[C@H]1O

>  <Energy>  (402) 
41.10958073246591

>  <Genealogy>  (402) 
CC(=O)N[C@H]1[C@H](Oc2ccccc2C=O)O[C@H](CO)[C@@H](O)[C@H]1O (3D coordinates assigned)
CC(=O)N[C@H]1[C@H](Oc2ccccc2C=O)O[C@H](CO)[C@@H](O)[C@H]1O (nonaromatic ring conformer: 41.10958073246591 kcal/mol)

$$$$
ZINC000106382957
     RDKit          3D

 42 43  0  0  0  0  0  0  0  0999 V2000
   -1.2061    1.2448   -3.2020 H   0  0  0  0  0  0  0  0  0  0  0  0
   -0.8562    1.1962   -2.2528 O   0  0  0  0  0  0  0  0  0  0  0  0
    0.4025    1.6978   -1.9224 C   0  0  0  0  0  0  0  0  0  0  0  0
    0.8566    1.6069   -0.7074 N   0  0  0  0  0  0  0  0  0  0  0  0
    0.1346    0.9929    0.4098 C   0  0  1  0  0  0  0  0  0  0  0  0
   -0.9639    1.0732    0.2418 H   0  0  0  0  0  0  0  0  0  0  0  0
    0.5062   -0.5020    0.5768 C   0  0  2  0  0  0  0  0  0  0  0  0
    1.5912   -0.6250    0.7846 H   0  0  0  0  0  0  0  0  0  0  0  0
    0.1567   -1.2342   -0.6011 O   0  0  0  0  0  0  0  0  0  0  0  0
    0.9571   -1.4433   -1.7421 C   0  0  0  0  0  0  0  0  0  0  0  0
    2.2964   -1.0024   -1.8202 C   0  0  0  0  0  0  0  0  0  0  0  0
    2.7700   -0.4710   -1.0096 H   0  0  0  0  0  0  0  0  0  0  0  0
    3.0487   -1.2218   -2.9753 C   0  0  0  0  0  0  0  0  0  0  0  0
    4.0721   -0.8731   -3.0277 H   0  0  0  0  0  0  0  0  0  0  0  0
    2.4847   -1.8834   -4.0639 C   0  0  0  0  0  0  0  0  0  0  0  0
    3.0715   -2.0501   -4.9581 H   0  0  0  0  0  0  0  0  0  0  0  0
    1.1640   -2.3286   -4.0036 C   0  0  0  0  0  0  0  0  0  0  0  0
    0.7473   -2.8384   -4.8633 H   0  0  0  0  0  0  0  0  0  0  0  0
    0.3902   -2.1147   -2.8483 C   0  0  0  0  0  0  0  0  0  0  0  0
   -1.0126   -2.5812   -2.7996 C   0  0  0  0  0  0  0  0  0  0  0  0
   -1.6163   -2.4135   -1.9175 H   0  0  0  0  0  0  0  0  0  0  0  0
   -1.5330   -3.1795   -3.7786 O   0  0  0  0  0  0  0  0  0  0  0  0
   -0.2328   -1.0517    1.6541 O   0  0  0  0  0  0  0  0  0  0  0  0
    0.1525   -0.4629    2.8867 C   0  0  2  0  0  0  0  0  0  0  0  0
    1.2503   -0.5821    3.0462 H   0  0  0  0  0  0  0  0  0  0  0  0
   -0.5370   -1.2231    4.0298 C   0  0  0  0  0  0  0  0  0  0  0  0
   -0.2422   -0.7997    5.0181 H   0  0  0  0  0  0  0  0  0  0  0  0
   -0.1900   -2.2782    4.0145 H   0  0  0  0  0  0  0  0  0  0  0  0
   -1.9315   -1.2168    3.8697 O   0  0  0  0  0  0  0  0  0  0  0  0
   -2.2780   -0.4412    4.3831 H   0  0  0  0  0  0  0  0  0  0  0  0
   -0.2060    1.0425    2.9037 C   0  0  1  0  0  0  0  0  0  0  0  0
   -1.3120    1.1494    2.8056 H   0  0  0  0  0  0  0  0  0  0  0  0
    0.2217    1.6238    4.1091 O   0  0  0  0  0  0  0  0  0  0  0  0
   -0.2464    2.4960    4.1875 H   0  0  0  0  0  0  0  0  0  0  0  0
    0.4585    1.7524    1.7100 C   0  0  1  0  0  0  0  0  0  0  0  0
    0.0374    2.7839    1.6417 H   0  0  0  0  0  0  0  0  0  0  0  0
    1.8499    1.8148    1.9129 O   0  0  0  0  0  0  0  0  0  0  0  0
    2.1848    2.5942    1.3972 H   0  0  0  0  0  0  0  0  0  0  0  0
    1.2505    2.3227   -2.9822 C   0  0  0  0  0  0  0  0  0  0  0  0
    0.6715    3.1131   -3.5034 H   0  0  0  0  0  0  0  0  0  0  0  0
    1.5514    1.5468   -3.7166 H   0  0  0  0  0  0  0  0  0  0  0  0
    2.1641    2.7774   -2.5428 H   0  0  0  0  0  0  0  0  0  0  0  0
  1  2  1  0
  2  3  1  0
  3  4  2  0
  4  5  1  0
  5  6  1  6
  5  7  1  0
  7  8  1  1
  7  9  1  0
  9 10  1  0
 10 11  2  0
 11 12  1  0
 11 13  1  0
 13 14  1  0
 13 15  2  0
 15 16  1  0
 15 17  1  0
 17 18  1  0
 17 19  2  0
 19 20  1  0
 20 21  1  0
 20 22  2  0
  7 23  1  0
 23 24  1  0
 24 25  1  1
 24 26  1  0
 26 27  1  0
 26 28  1  0
 26 29  1  0
 29 30  1  0
 24 31  1  0
 31 32  1  6
 31 33  1  0
 33 34  1  0
 31 35  1  0
 35 36  1  6
 35 37  1  0
 37 38  1  0
  3 39  1  0
 39 40  1  0
 39 41  1  0
 39 42  1  0
 35  5  1  0
 19 10  1  0
M  END
>  <UniqueID>  (403) 
402

>  <SMILES>  (403) 
C/C(O)=N\[C@H]1[C@H](Oc2ccccc2C=O)O[C@H](CO)[C@@H](O)[C@H]1O

>  <Energy>  (403) 
41.80469716855105

>  <Genealogy>  (403) 
CC(O)=N[C@H]1[C@H](Oc2ccccc2C=O)O[C@H](CO)[C@@H](O)[C@H]1O (tautomer)
C/C(O)=N\[C@H]1[C@H](Oc2ccccc2C=O)O[C@H](CO)[C@@H](O)[C@H]1O (cis-trans isomerization)
C/C(O)=N\[C@H]1[C@H](Oc2ccccc2C=O)O[C@H](CO)[C@@H](O)[C@H]1O (3D coordinates assigned)
C/C(O)=N\[C@H]1[C@H](Oc2ccccc2C=O)O[C@H](CO)[C@@H](O)[C@H]1O (nonaromatic ring conformer: 41.80469716855105 kcal/mol)

$$$$
ZINC000106382965
     RDKit          3D

 42 43  0  0  0  0  0  0  0  0999 V2000
   -1.0966    4.9215    0.1566 H   0  0  0  0  0  0  0  0  0  0  0  0
   -1.1671    3.9136    0.0845 O   0  0  0  0  0  0  0  0  0  0  0  0
   -0.1840    3.0817    0.6193 C   0  0  0  0  0  0  0  0  0  0  0  0
   -0.2726    1.7913    0.5019 N   0  0  0  0  0  0  0  0  0  0  0  0
   -1.3763    1.0899   -0.1545 C   0  0  1  0  0  0  0  0  0  0  0  0
   -1.6230    1.6066   -1.1103 H   0  0  0  0  0  0  0  0  0  0  0  0
   -0.9612   -0.3599   -0.4968 C   0  0  2  0  0  0  0  0  0  0  0  0
   -0.6822   -0.9261    0.4195 H   0  0  0  0  0  0  0  0  0  0  0  0
    0.1456   -0.3462   -1.4032 O   0  0  0  0  0  0  0  0  0  0  0  0
    1.5023   -0.1824   -1.0706 C   0  0  0  0  0  0  0  0  0  0  0  0
    2.4136    0.0007   -2.1170 C   0  0  0  0  0  0  0  0  0  0  0  0
    2.0622    0.0126   -3.1410 H   0  0  0  0  0  0  0  0  0  0  0  0
    3.7753    0.1773   -1.8557 C   0  0  0  0  0  0  0  0  0  0  0  0
    4.4545    0.3216   -2.6867 H   0  0  0  0  0  0  0  0  0  0  0  0
    4.2497    0.1689   -0.5341 C   0  0  0  0  0  0  0  0  0  0  0  0
    5.6813    0.3571   -0.2362 C   0  0  0  0  0  0  0  0  0  0  0  0
    6.0265    0.3466    0.7899 H   0  0  0  0  0  0  0  0  0  0  0  0
    6.5205    0.5321   -1.1593 O   0  0  0  0  0  0  0  0  0  0  0  0
    3.3422   -0.0238    0.5172 C   0  0  0  0  0  0  0  0  0  0  0  0
    3.6876   -0.0361    1.5439 H   0  0  0  0  0  0  0  0  0  0  0  0
    1.9806   -0.2029    0.2550 C   0  0  0  0  0  0  0  0  0  0  0  0
    1.3184   -0.3495    1.0948 H   0  0  0  0  0  0  0  0  0  0  0  0
   -2.0338   -1.0217   -1.1445 O   0  0  0  0  0  0  0  0  0  0  0  0
   -3.1397   -1.1755   -0.2694 C   0  0  2  0  0  0  0  0  0  0  0  0
   -2.8279   -1.7146    0.6562 H   0  0  0  0  0  0  0  0  0  0  0  0
   -4.1884   -2.0641   -0.9579 C   0  0  0  0  0  0  0  0  0  0  0  0
   -5.0318   -2.2608   -0.2629 H   0  0  0  0  0  0  0  0  0  0  0  0
   -3.7369   -3.0521   -1.2060 H   0  0  0  0  0  0  0  0  0  0  0  0
   -4.6908   -1.4543   -2.1175 O   0  0  0  0  0  0  0  0  0  0  0  0
   -4.0104   -1.5864   -2.8281 H   0  0  0  0  0  0  0  0  0  0  0  0
   -3.7218    0.2088    0.1121 C   0  0  1  0  0  0  0  0  0  0  0  0
   -4.0689    0.7304   -0.8128 H   0  0  0  0  0  0  0  0  0  0  0  0
   -4.7850    0.0647    1.0207 O   0  0  0  0  0  0  0  0  0  0  0  0
   -5.6211    0.0153    0.4878 H   0  0  0  0  0  0  0  0  0  0  0  0
   -2.6266    1.0770    0.7508 C   0  0  1  0  0  0  0  0  0  0  0  0
   -3.0260    2.1143    0.8448 H   0  0  0  0  0  0  0  0  0  0  0  0
   -2.3055    0.5708    2.0242 O   0  0  0  0  0  0  0  0  0  0  0  0
   -1.9474    1.3283    2.5567 H   0  0  0  0  0  0  0  0  0  0  0  0
    1.0068    3.6760    1.2990 C   0  0  0  0  0  0  0  0  0  0  0  0
    0.6911    4.5330    1.9298 H   0  0  0  0  0  0  0  0  0  0  0  0
    1.5057    2.9228    1.9460 H   0  0  0  0  0  0  0  0  0  0  0  0
    1.7279    4.0311    0.5339 H   0  0  0  0  0  0  0  0  0  0  0  0
  1  2  1  0
  2  3  1  0
  3  4  2  0
  4  5  1  0
  5  6  1  6
  5  7  1  0
  7  8  1  1
  7  9  1  0
  9 10  1  0
 10 11  2  0
 11 12  1  0
 11 13  1  0
 13 14  1  0
 13 15  2  0
 15 16  1  0
 16 17  1  0
 16 18  2  0
 15 19  1  0
 19 20  1  0
 19 21  2  0
 21 22  1  0
  7 23  1  0
 23 24  1  0
 24 25  1  1
 24 26  1  0
 26 27  1  0
 26 28  1  0
 26 29  1  0
 29 30  1  0
 24 31  1  0
 31 32  1  6
 31 33  1  0
 33 34  1  0
 31 35  1  0
 35 36  1  1
 35 37  1  0
 37 38  1  0
  3 39  1  0
 39 40  1  0
 39 41  1  0
 39 42  1  0
 35  5  1  0
 21 10  1  0
M  END
>  <UniqueID>  (404) 
403

>  <SMILES>  (404) 
C/C(O)=N\[C@H]1[C@H](Oc2ccc(C=O)cc2)O[C@H](CO)[C@@H](O)[C@H]1O

>  <Energy>  (404) 
40.3199007105945

>  <Genealogy>  (404) 
CC(O)=N[C@H]1[C@H](Oc2ccc(C=O)cc2)O[C@H](CO)[C@@H](O)[C@H]1O (tautomer)
C/C(O)=N\[C@H]1[C@H](Oc2ccc(C=O)cc2)O[C@H](CO)[C@@H](O)[C@H]1O (cis-trans isomerization)
C/C(O)=N\[C@H]1[C@H](Oc2ccc(C=O)cc2)O[C@H](CO)[C@@H](O)[C@H]1O (3D coordinates assigned)
C/C(O)=N\[C@H]1[C@H](Oc2ccc(C=O)cc2)O[C@H](CO)[C@@H](O)[C@H]1O (nonaromatic ring conformer: 40.3199007105945 kcal/mol)

$$$$
ZINC000106382965
     RDKit          3D

 42 43  0  0  0  0  0  0  0  0999 V2000
   -1.9148   -2.5724    3.3286 C   0  0  0  0  0  0  0  0  0  0  0  0
   -1.2708   -2.5152    1.9819 C   0  0  0  0  0  0  0  0  0  0  0  0
   -1.8774   -2.9890    0.9833 O   0  0  0  0  0  0  0  0  0  0  0  0
    0.0115   -1.8894    1.8296 N   0  0  0  0  0  0  0  0  0  0  0  0
    0.6536   -1.6959    0.5241 C   0  0  1  0  0  0  0  0  0  0  0  0
    0.4859   -0.2370    0.0576 C   0  0  2  0  0  0  0  0  0  0  0  0
   -0.9074    0.0438   -0.0685 O   0  0  0  0  0  0  0  0  0  0  0  0
   -1.4485    1.3034   -0.3689 C   0  0  0  0  0  0  0  0  0  0  0  0
   -0.6488    2.4459   -0.5639 C   0  0  0  0  0  0  0  0  0  0  0  0
   -1.2398    3.6774   -0.8621 C   0  0  0  0  0  0  0  0  0  0  0  0
   -2.6338    3.7894   -0.9690 C   0  0  0  0  0  0  0  0  0  0  0  0
   -3.2380    5.0970   -1.2842 C   0  0  0  0  0  0  0  0  0  0  0  0
   -4.4866    5.2291   -1.3866 O   0  0  0  0  0  0  0  0  0  0  0  0
   -3.4307    2.6493   -0.7725 C   0  0  0  0  0  0  0  0  0  0  0  0
   -2.8389    1.4183   -0.4748 C   0  0  0  0  0  0  0  0  0  0  0  0
    1.1046   -0.0557   -1.2045 O   0  0  0  0  0  0  0  0  0  0  0  0
    2.5108   -0.1964   -1.0966 C   0  0  2  0  0  0  0  0  0  0  0  0
    3.1401    0.1826   -2.4448 C   0  0  0  0  0  0  0  0  0  0  0  0
    2.7846    1.4917   -2.8003 O   0  0  0  0  0  0  0  0  0  0  0  0
    2.8715   -1.6574   -0.7151 C   0  0  1  0  0  0  0  0  0  0  0  0
    4.2615   -1.8458   -0.6025 O   0  0  0  0  0  0  0  0  0  0  0  0
    2.1480   -2.0923    0.5813 C   0  0  1  0  0  0  0  0  0  0  0  0
    2.7874   -1.5904    1.7323 O   0  0  0  0  0  0  0  0  0  0  0  0
   -2.7753   -3.2747    3.3201 H   0  0  0  0  0  0  0  0  0  0  0  0
   -2.2748   -1.5605    3.6085 H   0  0  0  0  0  0  0  0  0  0  0  0
   -1.1778   -2.9200    4.0825 H   0  0  0  0  0  0  0  0  0  0  0  0
    0.4300   -1.4261    2.6680 H   0  0  0  0  0  0  0  0  0  0  0  0
    0.1722   -2.3508   -0.2366 H   0  0  0  0  0  0  0  0  0  0  0  0
    0.9099    0.4567    0.8198 H   0  0  0  0  0  0  0  0  0  0  0  0
    0.4285    2.3958   -0.4876 H   0  0  0  0  0  0  0  0  0  0  0  0
   -0.6070    4.5443   -1.0093 H   0  0  0  0  0  0  0  0  0  0  0  0
   -2.6061    5.9636   -1.4318 H   0  0  0  0  0  0  0  0  0  0  0  0
   -4.5093    2.7079   -0.8487 H   0  0  0  0  0  0  0  0  0  0  0  0
   -3.4646    0.5473   -0.3256 H   0  0  0  0  0  0  0  0  0  0  0  0
    2.9160    0.5122   -0.3374 H   0  0  0  0  0  0  0  0  0  0  0  0
    2.7739   -0.5074   -3.2350 H   0  0  0  0  0  0  0  0  0  0  0  0
    4.2491    0.0898   -2.3987 H   0  0  0  0  0  0  0  0  0  0  0  0
    3.3258    2.0982   -2.2301 H   0  0  0  0  0  0  0  0  0  0  0  0
    2.5096   -2.3201   -1.5327 H   0  0  0  0  0  0  0  0  0  0  0  0
    4.6138   -1.1551    0.0171 H   0  0  0  0  0  0  0  0  0  0  0  0
    2.2000   -3.2017    0.6408 H   0  0  0  0  0  0  0  0  0  0  0  0
    2.7568   -0.6008    1.7008 H   0  0  0  0  0  0  0  0  0  0  0  0
  1  2  1  0
  2  3  2  0
  2  4  1  0
  4  5  1  0
  5  6  1  0
  6  7  1  0
  7  8  1  0
  8  9  2  0
  9 10  1  0
 10 11  2  0
 11 12  1  0
 12 13  2  0
 11 14  1  0
 14 15  2  0
  6 16  1  0
 16 17  1  0
 17 18  1  0
 18 19  1  0
 17 20  1  0
 20 21  1  0
 20 22  1  0
 22 23  1  0
 22  5  1  0
 15  8  1  0
  1 24  1  0
  1 25  1  0
  1 26  1  0
  4 27  1  0
  5 28  1  6
  6 29  1  1
  9 30  1  0
 10 31  1  0
 12 32  1  0
 14 33  1  0
 15 34  1  0
 17 35  1  1
 18 36  1  0
 18 37  1  0
 19 38  1  0
 20 39  1  6
 21 40  1  0
 22 41  1  1
 23 42  1  0
M  END
>  <UniqueID>  (405) 
404

>  <SMILES>  (405) 
CC(=O)N[C@H]1[C@H](Oc2ccc(C=O)cc2)O[C@H](CO)[C@@H](O)[C@H]1O

>  <Energy>  (405) 
40.62440671122837

>  <Genealogy>  (405) 
CC(=O)N[C@H]1[C@H](Oc2ccc(C=O)cc2)O[C@H](CO)[C@@H](O)[C@H]1O (3D coordinates assigned)
CC(=O)N[C@H]1[C@H](Oc2ccc(C=O)cc2)O[C@H](CO)[C@@H](O)[C@H]1O (nonaromatic ring conformer: 40.62440671122837 kcal/mol)

$$$$
ZINC000106382965
     RDKit          3D

 42 43  0  0  0  0  0  0  0  0999 V2000
    2.6658   -2.6491   -1.8944 H   0  0  0  0  0  0  0  0  0  0  0  0
    1.7672   -2.2031   -1.7542 O   0  0  0  0  0  0  0  0  0  0  0  0
    0.6239   -2.9507   -1.4820 C   0  0  0  0  0  0  0  0  0  0  0  0
   -0.5283   -2.3799   -1.2762 N   0  0  0  0  0  0  0  0  0  0  0  0
   -0.8583   -0.9472   -1.3117 C   0  0  1  0  0  0  0  0  0  0  0  0
   -1.8957   -0.8580   -0.9180 H   0  0  0  0  0  0  0  0  0  0  0  0
    0.0374   -0.0891   -0.3953 C   0  0  2  0  0  0  0  0  0  0  0  0
    1.0934   -0.1138   -0.7423 H   0  0  0  0  0  0  0  0  0  0  0  0
   -0.0163   -0.6193    0.9284 O   0  0  0  0  0  0  0  0  0  0  0  0
    0.7542   -0.1612    2.0083 C   0  0  0  0  0  0  0  0  0  0  0  0
    1.6893    0.8845    1.8840 C   0  0  0  0  0  0  0  0  0  0  0  0
    1.8514    1.3820    0.9380 H   0  0  0  0  0  0  0  0  0  0  0  0
    2.4320    1.3020    2.9927 C   0  0  0  0  0  0  0  0  0  0  0  0
    3.1447    2.1084    2.8725 H   0  0  0  0  0  0  0  0  0  0  0  0
    2.2541    0.6826    4.2411 C   0  0  0  0  0  0  0  0  0  0  0  0
    3.0281    1.1090    5.4214 C   0  0  0  0  0  0  0  0  0  0  0  0
    2.8760    0.6184    6.3744 H   0  0  0  0  0  0  0  0  0  0  0  0
    3.8715    2.0416    5.3441 O   0  0  0  0  0  0  0  0  0  0  0  0
    1.3230   -0.3593    4.3620 C   0  0  0  0  0  0  0  0  0  0  0  0
    1.1699   -0.8512    5.3149 H   0  0  0  0  0  0  0  0  0  0  0  0
    0.5808   -0.7758    3.2532 C   0  0  0  0  0  0  0  0  0  0  0  0
   -0.1342   -1.5816    3.3617 H   0  0  0  0  0  0  0  0  0  0  0  0
   -0.4445    1.2439   -0.3793 O   0  0  0  0  0  0  0  0  0  0  0  0
   -0.3085    1.8426   -1.6597 C   0  0  2  0  0  0  0  0  0  0  0  0
    0.7535    1.7894   -1.9976 H   0  0  0  0  0  0  0  0  0  0  0  0
   -0.6716    3.3305   -1.5226 C   0  0  0  0  0  0  0  0  0  0  0  0
   -1.7619    3.4391   -1.3389 H   0  0  0  0  0  0  0  0  0  0  0  0
   -0.1436    3.7656   -0.6430 H   0  0  0  0  0  0  0  0  0  0  0  0
   -0.3307    4.0466   -2.6794 O   0  0  0  0  0  0  0  0  0  0  0  0
    0.6556    4.1588   -2.6650 H   0  0  0  0  0  0  0  0  0  0  0  0
   -1.2246    1.1228   -2.6875 C   0  0  1  0  0  0  0  0  0  0  0  0
   -2.2855    1.2129   -2.3474 H   0  0  0  0  0  0  0  0  0  0  0  0
   -1.0705    1.6822   -3.9685 O   0  0  0  0  0  0  0  0  0  0  0  0
   -1.8167    2.3231   -4.1026 H   0  0  0  0  0  0  0  0  0  0  0  0
   -0.8788   -0.3793   -2.7441 C   0  0  1  0  0  0  0  0  0  0  0  0
   -1.6729   -0.9134   -3.3187 H   0  0  0  0  0  0  0  0  0  0  0  0
    0.3687   -0.5627   -3.3651 O   0  0  0  0  0  0  0  0  0  0  0  0
    0.2060   -0.5918   -4.3440 H   0  0  0  0  0  0  0  0  0  0  0  0
    0.7268   -4.4387   -1.3833 C   0  0  0  0  0  0  0  0  0  0  0  0
   -0.2713   -4.9111   -1.5063 H   0  0  0  0  0  0  0  0  0  0  0  0
    1.4000   -4.8230   -2.1778 H   0  0  0  0  0  0  0  0  0  0  0  0
    1.1397   -4.7140   -0.3908 H   0  0  0  0  0  0  0  0  0  0  0  0
  1  2  1  0
  2  3  1  0
  3  4  2  0
  4  5  1  0
  5  6  1  1
  5  7  1  0
  7  8  1  6
  7  9  1  0
  9 10  1  0
 10 11  2  0
 11 12  1  0
 11 13  1  0
 13 14  1  0
 13 15  2  0
 15 16  1  0
 16 17  1  0
 16 18  2  0
 15 19  1  0
 19 20  1  0
 19 21  2  0
 21 22  1  0
  7 23  1  0
 23 24  1  0
 24 25  1  6
 24 26  1  0
 26 27  1  0
 26 28  1  0
 26 29  1  0
 29 30  1  0
 24 31  1  0
 31 32  1  1
 31 33  1  0
 33 34  1  0
 31 35  1  0
 35 36  1  6
 35 37  1  0
 37 38  1  0
  3 39  1  0
 39 40  1  0
 39 41  1  0
 39 42  1  0
 35  5  1  0
 21 10  1  0
M  END
>  <UniqueID>  (406) 
405

>  <SMILES>  (406) 
C/C(O)=N/[C@H]1[C@H](Oc2ccc(C=O)cc2)O[C@H](CO)[C@@H](O)[C@H]1O

>  <Energy>  (406) 
42.937468356311726

>  <Genealogy>  (406) 
CC(O)=N[C@H]1[C@H](Oc2ccc(C=O)cc2)O[C@H](CO)[C@@H](O)[C@H]1O (tautomer)
C/C(O)=N/[C@H]1[C@H](Oc2ccc(C=O)cc2)O[C@H](CO)[C@@H](O)[C@H]1O (cis-trans isomerization)
C/C(O)=N/[C@H]1[C@H](Oc2ccc(C=O)cc2)O[C@H](CO)[C@@H](O)[C@H]1O (3D coordinates assigned)
C/C(O)=N/[C@H]1[C@H](Oc2ccc(C=O)cc2)O[C@H](CO)[C@@H](O)[C@H]1O (nonaromatic ring conformer: 42.937468356311726 kcal/mol)

$$$$
ZINC000106384102
     RDKit          3D

 43 44  0  0  0  0  0  0  0  0999 V2000
    4.5752    2.9115    2.3000 H   0  0  0  0  0  0  0  0  0  0  0  0
    4.2568    2.1342    1.7339 O   0  0  0  0  0  0  0  0  0  0  0  0
    3.0267    1.5218    1.9596 C   0  0  0  0  0  0  0  0  0  0  0  0
    2.6923    0.5130    1.2065 N   0  0  0  0  0  0  0  0  0  0  0  0
    1.4458   -0.2593    1.2657 C   0  0  1  0  0  0  0  0  0  0  0  0
    0.9546   -0.1461    2.2571 H   0  0  0  0  0  0  0  0  0  0  0  0
    0.4745    0.2104    0.1649 C   0  0  2  0  0  0  0  0  0  0  0  0
    0.9634    0.0965   -0.8316 H   0  0  0  0  0  0  0  0  0  0  0  0
    0.1759    1.5925    0.3561 O   0  0  0  0  0  0  0  0  0  0  0  0
   -0.5725    2.3857   -0.5316 C   0  0  0  0  0  0  0  0  0  0  0  0
   -1.1226    1.8611   -1.7195 C   0  0  0  0  0  0  0  0  0  0  0  0
   -0.9845    0.8243   -1.9922 H   0  0  0  0  0  0  0  0  0  0  0  0
   -1.8651    2.6774   -2.5757 C   0  0  0  0  0  0  0  0  0  0  0  0
   -2.2850    2.2664   -3.4848 H   0  0  0  0  0  0  0  0  0  0  0  0
   -2.0679    4.0211   -2.2617 C   0  0  0  0  0  0  0  0  0  0  0  0
   -2.6451    4.6503   -2.9270 H   0  0  0  0  0  0  0  0  0  0  0  0
   -1.5268    4.5552   -1.0910 C   0  0  0  0  0  0  0  0  0  0  0  0
   -1.6947    5.6007   -0.8638 H   0  0  0  0  0  0  0  0  0  0  0  0
   -0.7747    3.7465   -0.2223 C   0  0  0  0  0  0  0  0  0  0  0  0
   -0.1976    4.3305    1.0362 C   0  0  0  0  0  0  0  0  0  0  0  0
   -0.3869    5.4229    1.1055 H   0  0  0  0  0  0  0  0  0  0  0  0
    0.9008    4.1683    1.0557 H   0  0  0  0  0  0  0  0  0  0  0  0
   -0.6570    3.8388    1.9191 H   0  0  0  0  0  0  0  0  0  0  0  0
   -0.7294   -0.5345    0.2338 O   0  0  0  0  0  0  0  0  0  0  0  0
   -0.4925   -1.8958   -0.0858 C   0  0  2  0  0  0  0  0  0  0  0  0
   -0.0218   -1.9799   -1.0939 H   0  0  0  0  0  0  0  0  0  0  0  0
   -1.8433   -2.6178   -0.1715 C   0  0  0  0  0  0  0  0  0  0  0  0
   -2.4491   -2.1507   -0.9802 H   0  0  0  0  0  0  0  0  0  0  0  0
   -1.6874   -3.6888   -0.4314 H   0  0  0  0  0  0  0  0  0  0  0  0
   -2.5313   -2.5157    1.0453 O   0  0  0  0  0  0  0  0  0  0  0  0
   -3.3877   -3.0007    0.9187 H   0  0  0  0  0  0  0  0  0  0  0  0
    0.4334   -2.5480    0.9709 C   0  0  1  0  0  0  0  0  0  0  0  0
   -0.0784   -2.5164    1.9620 H   0  0  0  0  0  0  0  0  0  0  0  0
    0.6989   -3.8817    0.6182 O   0  0  0  0  0  0  0  0  0  0  0  0
    1.0669   -4.3235    1.4277 H   0  0  0  0  0  0  0  0  0  0  0  0
    1.7519   -1.7574    1.0753 C   0  0  1  0  0  0  0  0  0  0  0  0
    2.3095   -2.1287    1.9682 H   0  0  0  0  0  0  0  0  0  0  0  0
    2.5172   -1.9628   -0.0881 O   0  0  0  0  0  0  0  0  0  0  0  0
    3.4688   -1.8316    0.1622 H   0  0  0  0  0  0  0  0  0  0  0  0
    2.1531    2.0162    3.0808 C   0  0  0  0  0  0  0  0  0  0  0  0
    2.1479    1.2719    3.9042 H   0  0  0  0  0  0  0  0  0  0  0  0
    2.5370    2.9786    3.4780 H   0  0  0  0  0  0  0  0  0  0  0  0
    1.1164    2.1842    2.7283 H   0  0  0  0  0  0  0  0  0  0  0  0
  1  2  1  0
  2  3  1  0
  3  4  2  0
  4  5  1  0
  5  6  1  1
  5  7  1  0
  7  8  1  6
  7  9  1  0
  9 10  1  0
 10 11  2  0
 11 12  1  0
 11 13  1  0
 13 14  1  0
 13 15  2  0
 15 16  1  0
 15 17  1  0
 17 18  1  0
 17 19  2  0
 19 20  1  0
 20 21  1  0
 20 22  1  0
 20 23  1  0
  7 24  1  0
 24 25  1  0
 25 26  1  6
 25 27  1  0
 27 28  1  0
 27 29  1  0
 27 30  1  0
 30 31  1  0
 25 32  1  0
 32 33  1  1
 32 34  1  0
 34 35  1  0
 32 36  1  0
 36 37  1  1
 36 38  1  0
 38 39  1  0
  3 40  1  0
 40 41  1  0
 40 42  1  0
 40 43  1  0
 36  5  1  0
 19 10  1  0
M  END
>  <UniqueID>  (407) 
406

>  <SMILES>  (407) 
C/C(O)=N\[C@H]1[C@H](Oc2ccccc2C)O[C@H](CO)[C@@H](O)[C@H]1O

>  <Energy>  (407) 
40.73486867543587

>  <Genealogy>  (407) 
CC(O)=N[C@H]1[C@H](Oc2ccccc2C)O[C@H](CO)[C@@H](O)[C@H]1O (tautomer)
C/C(O)=N\[C@H]1[C@H](Oc2ccccc2C)O[C@H](CO)[C@@H](O)[C@H]1O (cis-trans isomerization)
C/C(O)=N\[C@H]1[C@H](Oc2ccccc2C)O[C@H](CO)[C@@H](O)[C@H]1O (3D coordinates assigned)
C/C(O)=N\[C@H]1[C@H](Oc2ccccc2C)O[C@H](CO)[C@@H](O)[C@H]1O (nonaromatic ring conformer: 40.73486867543587 kcal/mol)

$$$$
ZINC000106384102
     RDKit          3D

 43 44  0  0  0  0  0  0  0  0999 V2000
   -2.5506    0.8492    1.6685 H   0  0  0  0  0  0  0  0  0  0  0  0
   -2.0270    1.6275    2.0455 O   0  0  0  0  0  0  0  0  0  0  0  0
   -0.6310    1.6949    2.0398 C   0  0  0  0  0  0  0  0  0  0  0  0
    0.1120    0.7395    1.5607 N   0  0  0  0  0  0  0  0  0  0  0  0
   -0.3479   -0.5242    0.9830 C   0  0  1  0  0  0  0  0  0  0  0  0
   -1.2156   -0.3378    0.3116 H   0  0  0  0  0  0  0  0  0  0  0  0
    0.7717   -1.1493    0.1183 C   0  0  2  0  0  0  0  0  0  0  0  0
    1.6881   -1.3404    0.7193 H   0  0  0  0  0  0  0  0  0  0  0  0
    1.0884   -0.2750   -0.9689 O   0  0  0  0  0  0  0  0  0  0  0  0
    1.9146    0.8647   -0.9242 C   0  0  0  0  0  0  0  0  0  0  0  0
    2.7554    1.1519    0.1721 C   0  0  0  0  0  0  0  0  0  0  0  0
    2.8071    0.5032    1.0330 H   0  0  0  0  0  0  0  0  0  0  0  0
    3.5473    2.3023    0.1740 C   0  0  0  0  0  0  0  0  0  0  0  0
    4.1841    2.5182    1.0222 H   0  0  0  0  0  0  0  0  0  0  0  0
    3.5200    3.1744   -0.9136 C   0  0  0  0  0  0  0  0  0  0  0  0
    4.1341    4.0656   -0.9073 H   0  0  0  0  0  0  0  0  0  0  0  0
    2.7026    2.8982   -2.0104 C   0  0  0  0  0  0  0  0  0  0  0  0
    2.6939    3.5868   -2.8463 H   0  0  0  0  0  0  0  0  0  0  0  0
    1.9022    1.7437   -2.0268 C   0  0  0  0  0  0  0  0  0  0  0  0
    1.0133    1.4627   -3.2059 C   0  0  0  0  0  0  0  0  0  0  0  0
    1.1608    2.2069   -4.0172 H   0  0  0  0  0  0  0  0  0  0  0  0
   -0.0496    1.4962   -2.8865 H   0  0  0  0  0  0  0  0  0  0  0  0
    1.2388    0.4551   -3.6147 H   0  0  0  0  0  0  0  0  0  0  0  0
    0.3162   -2.3705   -0.4373 O   0  0  0  0  0  0  0  0  0  0  0  0
    0.0912   -3.3394    0.5741 C   0  0  2  0  0  0  0  0  0  0  0  0
    1.0167   -3.4867    1.1794 H   0  0  0  0  0  0  0  0  0  0  0  0
   -0.2231   -4.6769   -0.1171 C   0  0  0  0  0  0  0  0  0  0  0  0
    0.5303   -4.8732   -0.9143 H   0  0  0  0  0  0  0  0  0  0  0  0
   -1.2175   -4.6245   -0.6099 H   0  0  0  0  0  0  0  0  0  0  0  0
   -0.2252   -5.7368    0.8015 O   0  0  0  0  0  0  0  0  0  0  0  0
    0.7246   -5.9289    1.0173 H   0  0  0  0  0  0  0  0  0  0  0  0
   -1.0723   -2.8850    1.4910 C   0  0  1  0  0  0  0  0  0  0  0  0
   -1.9971   -2.7742    0.8730 H   0  0  0  0  0  0  0  0  0  0  0  0
   -1.2803   -3.8119    2.5279 O   0  0  0  0  0  0  0  0  0  0  0  0
   -2.0385   -4.3926    2.2569 H   0  0  0  0  0  0  0  0  0  0  0  0
   -0.7513   -1.5077    2.0991 C   0  0  1  0  0  0  0  0  0  0  0  0
   -1.6668   -1.1211    2.6040 H   0  0  0  0  0  0  0  0  0  0  0  0
    0.2967   -1.6169    3.0325 O   0  0  0  0  0  0  0  0  0  0  0  0
   -0.1089   -1.8921    3.8958 H   0  0  0  0  0  0  0  0  0  0  0  0
    0.0336    2.9106    2.5918 C   0  0  0  0  0  0  0  0  0  0  0  0
    0.6378    3.3989    1.7982 H   0  0  0  0  0  0  0  0  0  0  0  0
    0.6980    2.6244    3.4339 H   0  0  0  0  0  0  0  0  0  0  0  0
   -0.7263    3.6309    2.9610 H   0  0  0  0  0  0  0  0  0  0  0  0
  1  2  1  0
  2  3  1  0
  3  4  2  0
  4  5  1  0
  5  6  1  6
  5  7  1  0
  7  8  1  1
  7  9  1  0
  9 10  1  0
 10 11  2  0
 11 12  1  0
 11 13  1  0
 13 14  1  0
 13 15  2  0
 15 16  1  0
 15 17  1  0
 17 18  1  0
 17 19  2  0
 19 20  1  0
 20 21  1  0
 20 22  1  0
 20 23  1  0
  7 24  1  0
 24 25  1  0
 25 26  1  1
 25 27  1  0
 27 28  1  0
 27 29  1  0
 27 30  1  0
 30 31  1  0
 25 32  1  0
 32 33  1  6
 32 34  1  0
 34 35  1  0
 32 36  1  0
 36 37  1  1
 36 38  1  0
 38 39  1  0
  3 40  1  0
 40 41  1  0
 40 42  1  0
 40 43  1  0
 36  5  1  0
 19 10  1  0
M  END
>  <UniqueID>  (408) 
407

>  <SMILES>  (408) 
C/C(O)=N/[C@H]1[C@H](Oc2ccccc2C)O[C@H](CO)[C@@H](O)[C@H]1O

>  <Energy>  (408) 
43.10089602702706

>  <Genealogy>  (408) 
CC(O)=N[C@H]1[C@H](Oc2ccccc2C)O[C@H](CO)[C@@H](O)[C@H]1O (tautomer)
C/C(O)=N/[C@H]1[C@H](Oc2ccccc2C)O[C@H](CO)[C@@H](O)[C@H]1O (cis-trans isomerization)
C/C(O)=N/[C@H]1[C@H](Oc2ccccc2C)O[C@H](CO)[C@@H](O)[C@H]1O (3D coordinates assigned)
C/C(O)=N/[C@H]1[C@H](Oc2ccccc2C)O[C@H](CO)[C@@H](O)[C@H]1O (nonaromatic ring conformer: 43.10089602702706 kcal/mol)

$$$$
ZINC000106384102
     RDKit          3D

 43 44  0  0  0  0  0  0  0  0999 V2000
   -2.0571   -2.5199    1.2652 C   0  0  0  0  0  0  0  0  0  0  0  0
   -2.2871   -1.1100    0.8294 C   0  0  0  0  0  0  0  0  0  0  0  0
   -3.4299   -0.5950    0.9642 O   0  0  0  0  0  0  0  0  0  0  0  0
   -1.2187   -0.3653    0.2301 N   0  0  0  0  0  0  0  0  0  0  0  0
   -1.3821    1.0158   -0.2351 C   0  0  1  0  0  0  0  0  0  0  0  0
   -0.0643    1.8104   -0.0754 C   0  0  2  0  0  0  0  0  0  0  0  0
    0.2879    1.8991    1.3079 O   0  0  0  0  0  0  0  0  0  0  0  0
    0.8755    0.8526    2.0286 C   0  0  0  0  0  0  0  0  0  0  0  0
    0.1288    0.2426    3.0449 C   0  0  0  0  0  0  0  0  0  0  0  0
    0.6551   -0.8337    3.7616 C   0  0  0  0  0  0  0  0  0  0  0  0
    1.9393   -1.3000    3.4777 C   0  0  0  0  0  0  0  0  0  0  0  0
    2.7078   -0.6782    2.4905 C   0  0  0  0  0  0  0  0  0  0  0  0
    2.1967    0.4169    1.7735 C   0  0  0  0  0  0  0  0  0  0  0  0
    3.0698    1.0889    0.7509 C   0  0  0  0  0  0  0  0  0  0  0  0
   -0.2327    3.1314   -0.5576 O   0  0  0  0  0  0  0  0  0  0  0  0
   -0.4783    3.1404   -1.9539 C   0  0  2  0  0  0  0  0  0  0  0  0
   -0.4634    4.6033   -2.4222 C   0  0  0  0  0  0  0  0  0  0  0  0
   -0.4403    4.6784   -3.8239 O   0  0  0  0  0  0  0  0  0  0  0  0
   -1.8368    2.4615   -2.2547 C   0  0  1  0  0  0  0  0  0  0  0  0
   -2.0758    2.4417   -3.6389 O   0  0  0  0  0  0  0  0  0  0  0  0
   -1.8352    1.0229   -1.7083 C   0  0  1  0  0  0  0  0  0  0  0  0
   -0.9771    0.2267   -2.4902 O   0  0  0  0  0  0  0  0  0  0  0  0
   -2.8699   -2.8549    1.9439 H   0  0  0  0  0  0  0  0  0  0  0  0
   -2.0299   -3.1815    0.3747 H   0  0  0  0  0  0  0  0  0  0  0  0
   -1.0896   -2.5932    1.8048 H   0  0  0  0  0  0  0  0  0  0  0  0
   -0.3221   -0.8638    0.0267 H   0  0  0  0  0  0  0  0  0  0  0  0
   -2.1570    1.5279    0.3791 H   0  0  0  0  0  0  0  0  0  0  0  0
    0.7529    1.3022   -0.6337 H   0  0  0  0  0  0  0  0  0  0  0  0
   -0.8750    0.5873    3.2587 H   0  0  0  0  0  0  0  0  0  0  0  0
    0.0636   -1.3118    4.5315 H   0  0  0  0  0  0  0  0  0  0  0  0
    2.3436   -2.1389    4.0293 H   0  0  0  0  0  0  0  0  0  0  0  0
    3.7084   -1.0433    2.2934 H   0  0  0  0  0  0  0  0  0  0  0  0
    4.1305    1.0790    1.0810 H   0  0  0  0  0  0  0  0  0  0  0  0
    2.9946    0.5491   -0.2159 H   0  0  0  0  0  0  0  0  0  0  0  0
    2.7769    2.1502    0.6083 H   0  0  0  0  0  0  0  0  0  0  0  0
    0.3417    2.6106   -2.4943 H   0  0  0  0  0  0  0  0  0  0  0  0
    0.4586    5.0913   -2.0398 H   0  0  0  0  0  0  0  0  0  0  0  0
   -1.3309    5.1579   -1.9916 H   0  0  0  0  0  0  0  0  0  0  0  0
   -1.3402    4.9784   -4.1165 H   0  0  0  0  0  0  0  0  0  0  0  0
   -2.6417    3.0401   -1.7416 H   0  0  0  0  0  0  0  0  0  0  0  0
   -3.0433    2.2541   -3.7595 H   0  0  0  0  0  0  0  0  0  0  0  0
   -2.8784    0.6301   -1.7665 H   0  0  0  0  0  0  0  0  0  0  0  0
   -1.3195   -0.7041   -2.4437 H   0  0  0  0  0  0  0  0  0  0  0  0
  1  2  1  0
  2  3  2  0
  2  4  1  0
  4  5  1  0
  5  6  1  0
  6  7  1  0
  7  8  1  0
  8  9  2  0
  9 10  1  0
 10 11  2  0
 11 12  1  0
 12 13  2  0
 13 14  1  0
  6 15  1  0
 15 16  1  0
 16 17  1  0
 17 18  1  0
 16 19  1  0
 19 20  1  0
 19 21  1  0
 21 22  1  0
 21  5  1  0
 13  8  1  0
  1 23  1  0
  1 24  1  0
  1 25  1  0
  4 26  1  0
  5 27  1  1
  6 28  1  6
  9 29  1  0
 10 30  1  0
 11 31  1  0
 12 32  1  0
 14 33  1  0
 14 34  1  0
 14 35  1  0
 16 36  1  6
 17 37  1  0
 17 38  1  0
 18 39  1  0
 19 40  1  1
 20 41  1  0
 21 42  1  1
 22 43  1  0
M  END
>  <UniqueID>  (409) 
408

>  <SMILES>  (409) 
CC(=O)N[C@H]1[C@H](Oc2ccccc2C)O[C@H](CO)[C@@H](O)[C@H]1O

>  <Energy>  (409) 
45.275621978796096

>  <Genealogy>  (409) 
CC(=O)N[C@H]1[C@H](Oc2ccccc2C)O[C@H](CO)[C@@H](O)[C@H]1O (3D coordinates assigned)
CC(=O)N[C@H]1[C@H](Oc2ccccc2C)O[C@H](CO)[C@@H](O)[C@H]1O (nonaromatic ring conformer: 45.275621978796096 kcal/mol)

$$$$
ZINC000164373873
     RDKit          3D

 28 28  0  0  0  0  0  0  0  0999 V2000
    1.7243    2.1411   -0.0555 C   0  0  0  0  0  0  0  0  0  0  0  0
    1.8584    0.7395   -0.1513 O   0  0  0  0  0  0  0  0  0  0  0  0
    0.6346    0.1094    0.1781 C   0  0  2  0  0  0  0  0  0  0  0  0
    0.4690    0.1410    1.5874 O   0  0  0  0  0  0  0  0  0  0  0  0
   -0.7931   -0.3843    1.9628 C   0  0  2  0  0  0  0  0  0  0  0  0
   -0.9717   -0.1497    3.4693 C   0  0  0  0  0  0  0  0  0  0  0  0
   -2.2863   -0.4386    3.8583 O   0  0  0  0  0  0  0  0  0  0  0  0
   -0.8636   -1.8910    1.6124 C   0  0  1  0  0  0  0  0  0  0  0  0
   -2.1242   -2.4107    1.9506 O   0  0  0  0  0  0  0  0  0  0  0  0
   -0.6022   -2.0932    0.1086 C   0  0  1  0  0  0  0  0  0  0  0  0
   -1.7017   -1.6129   -0.6275 O   0  0  0  0  0  0  0  0  0  0  0  0
    0.6893   -1.3561   -0.3071 C   0  0  1  0  0  0  0  0  0  0  0  0
    0.8632   -1.4118   -1.7613 N   0  0  0  0  0  0  0  0  0  0  0  0
    1.3978    2.4533    0.9613 H   0  0  0  0  0  0  0  0  0  0  0  0
    2.7140    2.6042   -0.2460 H   0  0  0  0  0  0  0  0  0  0  0  0
    1.0198    2.5267   -0.8251 H   0  0  0  0  0  0  0  0  0  0  0  0
   -0.2184    0.6178   -0.3391 H   0  0  0  0  0  0  0  0  0  0  0  0
   -1.6118    0.1675    1.4429 H   0  0  0  0  0  0  0  0  0  0  0  0
   -0.2555   -0.7823    4.0410 H   0  0  0  0  0  0  0  0  0  0  0  0
   -0.7526    0.9181    3.6959 H   0  0  0  0  0  0  0  0  0  0  0  0
   -2.3251   -0.2798    4.8372 H   0  0  0  0  0  0  0  0  0  0  0  0
   -0.0701   -2.4245    2.1884 H   0  0  0  0  0  0  0  0  0  0  0  0
   -2.0328   -3.3993    1.9605 H   0  0  0  0  0  0  0  0  0  0  0  0
   -0.4707   -3.1866   -0.0733 H   0  0  0  0  0  0  0  0  0  0  0  0
   -1.7259   -2.1205   -1.4802 H   0  0  0  0  0  0  0  0  0  0  0  0
    1.5556   -1.8596    0.1820 H   0  0  0  0  0  0  0  0  0  0  0  0
    0.9008   -2.4170   -2.0490 H   0  0  0  0  0  0  0  0  0  0  0  0
    1.8006   -1.0150   -2.0009 H   0  0  0  0  0  0  0  0  0  0  0  0
  1  2  1  0
  2  3  1  0
  3  4  1  0
  4  5  1  0
  5  6  1  0
  6  7  1  0
  5  8  1  0
  8  9  1  0
  8 10  1  0
 10 11  1  0
 10 12  1  0
 12 13  1  0
 12  3  1  0
  1 14  1  0
  1 15  1  0
  1 16  1  0
  3 17  1  6
  5 18  1  6
  6 19  1  0
  6 20  1  0
  7 21  1  0
  8 22  1  1
  9 23  1  0
 10 24  1  1
 11 25  1  0
 12 26  1  1
 13 27  1  0
 13 28  1  0
M  END
>  <UniqueID>  (410) 
409

>  <SMILES>  (410) 
CO[C@@H]1O[C@H](CO)[C@@H](O)[C@@H](O)[C@H]1N

>  <Energy>  (410) 
26.211664871997293

>  <Genealogy>  (410) 
CO[C@@H]1O[C@H](CO)[C@@H](O)[C@@H](O)[C@H]1N (3D coordinates assigned)
CO[C@@H]1O[C@H](CO)[C@@H](O)[C@@H](O)[C@H]1N (nonaromatic ring conformer: 26.211664871997293 kcal/mol)

$$$$
ZINC000164373873
     RDKit          3D

 29 29  0  0  0  0  0  0  0  0999 V2000
    2.2451    2.5379    0.0355 C   0  0  0  0  0  0  0  0  0  0  0  0
    1.9231    1.4136    0.8251 O   0  0  0  0  0  0  0  0  0  0  0  0
    1.0250    0.5701    0.1287 C   0  0  2  0  0  0  0  0  0  0  0  0
   -0.2715    1.1470    0.1707 O   0  0  0  0  0  0  0  0  0  0  0  0
   -1.1913    0.3827   -0.5911 C   0  0  2  0  0  0  0  0  0  0  0  0
   -2.5131    1.1574   -0.6728 C   0  0  0  0  0  0  0  0  0  0  0  0
   -3.0429    1.3593    0.6090 O   0  0  0  0  0  0  0  0  0  0  0  0
   -1.3838   -1.0161    0.0468 C   0  0  1  0  0  0  0  0  0  0  0  0
   -2.2692   -1.7930   -0.7210 O   0  0  0  0  0  0  0  0  0  0  0  0
   -0.0257   -1.7349    0.1434 C   0  0  1  0  0  0  0  0  0  0  0  0
    0.4278   -2.0943   -1.1396 O   0  0  0  0  0  0  0  0  0  0  0  0
    1.0067   -0.8110    0.8264 C   0  0  1  0  0  0  0  0  0  0  0  0
    2.3425   -1.4246    0.8287 N   0  0  0  0  0  4  0  0  0  0  0  0
    1.3353    3.1081   -0.2566 H   0  0  0  0  0  0  0  0  0  0  0  0
    2.8878    3.2164    0.6329 H   0  0  0  0  0  0  0  0  0  0  0  0
    2.8218    2.2378   -0.8671 H   0  0  0  0  0  0  0  0  0  0  0  0
    1.3636    0.4260   -0.9285 H   0  0  0  0  0  0  0  0  0  0  0  0
   -0.8256    0.2668   -1.6387 H   0  0  0  0  0  0  0  0  0  0  0  0
   -3.2428    0.6034   -1.3044 H   0  0  0  0  0  0  0  0  0  0  0  0
   -2.3225    2.1427   -1.1544 H   0  0  0  0  0  0  0  0  0  0  0  0
   -3.8914    1.8577    0.4806 H   0  0  0  0  0  0  0  0  0  0  0  0
   -1.7751   -0.8955    1.0861 H   0  0  0  0  0  0  0  0  0  0  0  0
   -3.1780   -1.6608   -0.3441 H   0  0  0  0  0  0  0  0  0  0  0  0
   -0.1473   -2.6483    0.7733 H   0  0  0  0  0  0  0  0  0  0  0  0
    0.0014   -2.9616   -1.3667 H   0  0  0  0  0  0  0  0  0  0  0  0
    0.6869   -0.6604    1.8836 H   0  0  0  0  0  0  0  0  0  0  0  0
    2.7252   -1.4898   -0.1426 H   0  0  0  0  0  0  0  0  0  0  0  0
    2.9951   -0.8534    1.4129 H   0  0  0  0  0  0  0  0  0  0  0  0
    2.2929   -2.3833    1.2440 H   0  0  0  0  0  0  0  0  0  0  0  0
  1  2  1  0
  2  3  1  0
  3  4  1  0
  4  5  1  0
  5  6  1  0
  6  7  1  0
  5  8  1  0
  8  9  1  0
  8 10  1  0
 10 11  1  0
 10 12  1  0
 12 13  1  0
 12  3  1  0
  1 14  1  0
  1 15  1  0
  1 16  1  0
  3 17  1  6
  5 18  1  6
  6 19  1  0
  6 20  1  0
  7 21  1  0
  8 22  1  1
  9 23  1  0
 10 24  1  1
 11 25  1  0
 12 26  1  1
 13 27  1  0
 13 28  1  0
 13 29  1  0
M  CHG  1  13   1
M  END
>  <UniqueID>  (411) 
410

>  <SMILES>  (411) 
CO[C@@H]1O[C@H](CO)[C@@H](O)[C@@H](O)[C@H]1[NH3+]

>  <Energy>  (411) 
27.797626291259096

>  <Genealogy>  (411) 
CO[C@@H]1O[C@H](CO)[C@@H](O)[C@@H](O)[C@H]1[NH3+] (protonated)
CO[C@@H]1O[C@H](CO)[C@@H](O)[C@@H](O)[C@H]1[NH3+] (3D coordinates assigned)
CO[C@@H]1O[C@H](CO)[C@@H](O)[C@@H](O)[C@H]1[NH3+] (nonaromatic ring conformer: 27.797626291259096 kcal/mol)

$$$$
ZINC000164373873
     RDKit          3D

 28 28  0  0  0  0  0  0  0  0999 V2000
    1.7475    2.1769    0.0868 C   0  0  0  0  0  0  0  0  0  0  0  0
    1.8029    0.7869   -0.1504 O   0  0  0  0  0  0  0  0  0  0  0  0
    0.5885    0.1765    0.2442 C   0  0  2  0  0  0  0  0  0  0  0  0
    0.5401    0.0955    1.6580 O   0  0  0  0  0  0  0  0  0  0  0  0
   -0.7726   -0.2326    2.0941 C   0  0  2  0  0  0  0  0  0  0  0  0
   -0.7220   -0.4671    3.6082 C   0  0  0  0  0  0  0  0  0  0  0  0
   -2.0199   -0.6003    4.1196 O   0  0  0  0  0  0  0  0  0  0  0  0
   -1.3620   -1.4786    1.3492 C   0  0  1  0  0  0  0  0  0  0  0  0
   -2.3714   -1.0741    0.4594 O   0  0  0  0  0  0  0  0  0  0  0  0
   -0.2583   -2.2177    0.5725 C   0  0  1  0  0  0  0  0  0  0  0  0
   -0.8156   -3.2828   -0.1552 O   0  0  0  0  0  0  0  0  0  0  0  0
    0.5403   -1.2552   -0.3490 C   0  0  1  0  0  0  0  0  0  0  0  0
   -0.0017   -1.2446   -1.7124 N   0  0  0  0  0  0  0  0  0  0  0  0
    0.9873    2.6620   -0.5645 H   0  0  0  0  0  0  0  0  0  0  0  0
    2.7338    2.6176   -0.1652 H   0  0  0  0  0  0  0  0  0  0  0  0
    1.5430    2.4025    1.1569 H   0  0  0  0  0  0  0  0  0  0  0  0
   -0.2826    0.7611   -0.1495 H   0  0  0  0  0  0  0  0  0  0  0  0
   -1.4319    0.6518    1.9316 H   0  0  0  0  0  0  0  0  0  0  0  0
   -0.2233    0.4012    4.0949 H   0  0  0  0  0  0  0  0  0  0  0  0
   -0.1286   -1.3837    3.8268 H   0  0  0  0  0  0  0  0  0  0  0  0
   -1.9164   -0.7643    5.0928 H   0  0  0  0  0  0  0  0  0  0  0  0
   -1.7983   -2.2074    2.0732 H   0  0  0  0  0  0  0  0  0  0  0  0
   -3.1669   -0.8535    1.0112 H   0  0  0  0  0  0  0  0  0  0  0  0
    0.4449   -2.6326    1.3342 H   0  0  0  0  0  0  0  0  0  0  0  0
   -0.0601   -3.8659   -0.4294 H   0  0  0  0  0  0  0  0  0  0  0  0
    1.5790   -1.6543   -0.4017 H   0  0  0  0  0  0  0  0  0  0  0  0
    0.6047   -0.6349   -2.3081 H   0  0  0  0  0  0  0  0  0  0  0  0
   -0.9592   -0.8250   -1.7106 H   0  0  0  0  0  0  0  0  0  0  0  0
  1  2  1  0
  2  3  1  0
  3  4  1  0
  4  5  1  0
  5  6  1  0
  6  7  1  0
  5  8  1  0
  8  9  1  0
  8 10  1  0
 10 11  1  0
 10 12  1  0
 12 13  1  0
 12  3  1  0
  1 14  1  0
  1 15  1  0
  1 16  1  0
  3 17  1  6
  5 18  1  1
  6 19  1  0
  6 20  1  0
  7 21  1  0
  8 22  1  1
  9 23  1  0
 10 24  1  1
 11 25  1  0
 12 26  1  6
 13 27  1  0
 13 28  1  0
M  END
>  <UniqueID>  (412) 
411

>  <SMILES>  (412) 
CO[C@@H]1O[C@H](CO)[C@@H](O)[C@@H](O)[C@H]1N

>  <Energy>  (412) 
34.53698946819398

>  <Genealogy>  (412) 
CO[C@@H]1O[C@H](CO)[C@@H](O)[C@@H](O)[C@H]1N (3D coordinates assigned)
CO[C@@H]1O[C@H](CO)[C@@H](O)[C@@H](O)[C@H]1N (nonaromatic ring conformer: 34.53698946819398 kcal/mol)

$$$$
ZINC000196304985
     RDKit          3D

 33 33  0  0  0  0  0  0  0  0999 V2000
    3.5972   -0.3318   -3.4944 H   0  0  0  0  0  0  0  0  0  0  0  0
    3.1765   -0.5870   -2.6090 O   0  0  0  0  0  0  0  0  0  0  0  0
    1.9152   -0.1271   -2.2387 C   0  0  0  0  0  0  0  0  0  0  0  0
    1.4329   -0.5067   -1.0900 N   0  0  0  0  0  0  0  0  0  0  0  0
    0.1422   -0.1240   -0.5064 C   0  0  1  0  0  0  0  0  0  0  0  0
   -0.6178    0.0032   -1.3092 H   0  0  0  0  0  0  0  0  0  0  0  0
   -0.3616   -1.2556    0.4134 C   0  0  1  0  0  0  0  0  0  0  0  0
   -0.5595   -2.1248   -0.2577 H   0  0  0  0  0  0  0  0  0  0  0  0
    0.6248   -1.5948    1.3767 O   0  0  0  0  0  0  0  0  0  0  0  0
    0.3145   -2.8354    1.9728 C   0  0  0  0  0  0  0  0  0  0  0  0
    0.3600   -3.6594    1.2271 H   0  0  0  0  0  0  0  0  0  0  0  0
    1.0712   -3.0497    2.7549 H   0  0  0  0  0  0  0  0  0  0  0  0
   -0.6814   -2.8128    2.4680 H   0  0  0  0  0  0  0  0  0  0  0  0
   -1.5920   -0.8962    1.0278 O   0  0  0  0  0  0  0  0  0  0  0  0
   -1.4507    0.2424    1.8646 C   0  0  2  0  0  0  0  0  0  0  0  0
   -0.6874    0.0586    2.6557 H   0  0  0  0  0  0  0  0  0  0  0  0
   -2.7876    0.4852    2.5809 C   0  0  0  0  0  0  0  0  0  0  0  0
   -2.7081    1.3800    3.2339 H   0  0  0  0  0  0  0  0  0  0  0  0
   -3.5970    0.6779    1.8391 H   0  0  0  0  0  0  0  0  0  0  0  0
   -3.1143   -0.6131    3.3898 O   0  0  0  0  0  0  0  0  0  0  0  0
   -3.5212   -1.2964    2.7957 H   0  0  0  0  0  0  0  0  0  0  0  0
   -1.0448    1.4793    1.0316 C   0  0  1  0  0  0  0  0  0  0  0  0
   -1.8506    1.6810    0.2860 H   0  0  0  0  0  0  0  0  0  0  0  0
   -0.8894    2.5956    1.8707 O   0  0  0  0  0  0  0  0  0  0  0  0
   -0.8863    3.3960    1.2833 H   0  0  0  0  0  0  0  0  0  0  0  0
    0.2683    1.1975    0.2757 C   0  0  1  0  0  0  0  0  0  0  0  0
    0.4426    2.0246   -0.4494 H   0  0  0  0  0  0  0  0  0  0  0  0
    1.3478    1.1213    1.1753 O   0  0  0  0  0  0  0  0  0  0  0  0
    1.6409    2.0521    1.3582 H   0  0  0  0  0  0  0  0  0  0  0  0
    1.1485    0.7629   -3.1796 C   0  0  0  0  0  0  0  0  0  0  0  0
    0.2220    0.2516   -3.5140 H   0  0  0  0  0  0  0  0  0  0  0  0
    0.8915    1.7216   -2.6876 H   0  0  0  0  0  0  0  0  0  0  0  0
    1.7568    0.9945   -4.0784 H   0  0  0  0  0  0  0  0  0  0  0  0
  1  2  1  0
  2  3  1  0
  3  4  2  0
  4  5  1  0
  5  6  1  6
  5  7  1  0
  7  8  1  6
  7  9  1  0
  9 10  1  0
 10 11  1  0
 10 12  1  0
 10 13  1  0
  7 14  1  0
 14 15  1  0
 15 16  1  1
 15 17  1  0
 17 18  1  0
 17 19  1  0
 17 20  1  0
 20 21  1  0
 15 22  1  0
 22 23  1  6
 22 24  1  0
 24 25  1  0
 22 26  1  0
 26 27  1  6
 26 28  1  0
 28 29  1  0
  3 30  1  0
 30 31  1  0
 30 32  1  0
 30 33  1  0
 26  5  1  0
M  END
>  <UniqueID>  (413) 
412

>  <SMILES>  (413) 
CO[C@H]1O[C@H](CO)[C@@H](O)[C@@H](O)[C@H]1/N=C(\C)O

>  <Energy>  (413) 
32.49023103626765

>  <Genealogy>  (413) 
CO[C@H]1O[C@H](CO)[C@@H](O)[C@@H](O)[C@H]1N=C(C)O (tautomer)
CO[C@H]1O[C@H](CO)[C@@H](O)[C@@H](O)[C@H]1/N=C(\C)O (cis-trans isomerization)
CO[C@H]1O[C@H](CO)[C@@H](O)[C@@H](O)[C@H]1/N=C(\C)O (3D coordinates assigned)
CO[C@H]1O[C@H](CO)[C@@H](O)[C@@H](O)[C@H]1/N=C(\C)O (nonaromatic ring conformer: 32.49023103626765 kcal/mol)

$$$$
ZINC000196304985
     RDKit          3D

 33 33  0  0  0  0  0  0  0  0999 V2000
    2.3669   -1.6083    2.0058 H   0  0  0  0  0  0  0  0  0  0  0  0
    3.2063   -1.3522    1.5043 O   0  0  0  0  0  0  0  0  0  0  0  0
    3.2397   -0.3913    0.4898 C   0  0  0  0  0  0  0  0  0  0  0  0
    2.1717    0.2357    0.0860 N   0  0  0  0  0  0  0  0  0  0  0  0
    0.8026    0.0282    0.5651 C   0  0  1  0  0  0  0  0  0  0  0  0
    0.8016   -0.0352    1.6763 H   0  0  0  0  0  0  0  0  0  0  0  0
   -0.0634    1.2496    0.1877 C   0  0  1  0  0  0  0  0  0  0  0  0
    0.3600    2.1080    0.7613 H   0  0  0  0  0  0  0  0  0  0  0  0
    0.0144    1.5058   -1.2067 O   0  0  0  0  0  0  0  0  0  0  0  0
   -0.4650    2.8022   -1.4897 C   0  0  0  0  0  0  0  0  0  0  0  0
   -1.5178    2.9306   -1.1542 H   0  0  0  0  0  0  0  0  0  0  0  0
   -0.4439    2.9537   -2.5883 H   0  0  0  0  0  0  0  0  0  0  0  0
    0.1872    3.5779   -1.0314 H   0  0  0  0  0  0  0  0  0  0  0  0
   -1.4089    1.0702    0.6127 O   0  0  0  0  0  0  0  0  0  0  0  0
   -2.0185   -0.0436   -0.0230 C   0  0  2  0  0  0  0  0  0  0  0  0
   -2.0034    0.0875   -1.1295 H   0  0  0  0  0  0  0  0  0  0  0  0
   -3.4954   -0.0887    0.3892 C   0  0  0  0  0  0  0  0  0  0  0  0
   -3.9908    0.8499    0.0532 H   0  0  0  0  0  0  0  0  0  0  0  0
   -4.0045   -0.9443   -0.1084 H   0  0  0  0  0  0  0  0  0  0  0  0
   -3.6122   -0.2058    1.7809 O   0  0  0  0  0  0  0  0  0  0  0  0
   -4.5852   -0.2303    1.9743 H   0  0  0  0  0  0  0  0  0  0  0  0
   -1.2852   -1.3576    0.3548 C   0  0  1  0  0  0  0  0  0  0  0  0
   -1.3439   -1.4868    1.4583 H   0  0  0  0  0  0  0  0  0  0  0  0
   -1.8846   -2.4860   -0.2356 O   0  0  0  0  0  0  0  0  0  0  0  0
   -1.9772   -2.3103   -1.2081 H   0  0  0  0  0  0  0  0  0  0  0  0
    0.2058   -1.2674   -0.0221 C   0  0  1  0  0  0  0  0  0  0  0  0
    0.7354   -2.1404    0.4252 H   0  0  0  0  0  0  0  0  0  0  0  0
    0.3669   -1.2753   -1.4203 O   0  0  0  0  0  0  0  0  0  0  0  0
    0.4362   -2.2248   -1.7017 H   0  0  0  0  0  0  0  0  0  0  0  0
    4.5519   -0.0524   -0.1333 C   0  0  0  0  0  0  0  0  0  0  0  0
    4.4600   -0.0634   -1.2400 H   0  0  0  0  0  0  0  0  0  0  0  0
    5.3222   -0.7928    0.1684 H   0  0  0  0  0  0  0  0  0  0  0  0
    4.8713    0.9575    0.1987 H   0  0  0  0  0  0  0  0  0  0  0  0
  1  2  1  0
  2  3  1  0
  3  4  2  0
  4  5  1  0
  5  6  1  1
  5  7  1  0
  7  8  1  1
  7  9  1  0
  9 10  1  0
 10 11  1  0
 10 12  1  0
 10 13  1  0
  7 14  1  0
 14 15  1  0
 15 16  1  6
 15 17  1  0
 17 18  1  0
 17 19  1  0
 17 20  1  0
 20 21  1  0
 15 22  1  0
 22 23  1  1
 22 24  1  0
 24 25  1  0
 22 26  1  0
 26 27  1  1
 26 28  1  0
 28 29  1  0
  3 30  1  0
 30 31  1  0
 30 32  1  0
 30 33  1  0
 26  5  1  0
M  END
>  <UniqueID>  (414) 
413

>  <SMILES>  (414) 
CO[C@H]1O[C@H](CO)[C@@H](O)[C@@H](O)[C@H]1/N=C(/C)O

>  <Energy>  (414) 
32.93349871963623

>  <Genealogy>  (414) 
CO[C@H]1O[C@H](CO)[C@@H](O)[C@@H](O)[C@H]1N=C(C)O (tautomer)
CO[C@H]1O[C@H](CO)[C@@H](O)[C@@H](O)[C@H]1/N=C(/C)O (cis-trans isomerization)
CO[C@H]1O[C@H](CO)[C@@H](O)[C@@H](O)[C@H]1/N=C(/C)O (3D coordinates assigned)
CO[C@H]1O[C@H](CO)[C@@H](O)[C@@H](O)[C@H]1/N=C(/C)O (nonaromatic ring conformer: 32.93349871963623 kcal/mol)

$$$$
ZINC000196304985
     RDKit          3D

 33 33  0  0  0  0  0  0  0  0999 V2000
   -2.5743    0.8057    2.4783 C   0  0  0  0  0  0  0  0  0  0  0  0
   -2.4871    0.2080    1.2026 O   0  0  0  0  0  0  0  0  0  0  0  0
   -1.1984    0.4139    0.6536 C   0  0  1  0  0  0  0  0  0  0  0  0
   -0.2649   -0.4289    1.3184 O   0  0  0  0  0  0  0  0  0  0  0  0
    1.0748   -0.2140    0.8889 C   0  0  2  0  0  0  0  0  0  0  0  0
    1.6293    1.1504    1.3589 C   0  0  0  0  0  0  0  0  0  0  0  0
    3.0312    1.1185    1.4170 O   0  0  0  0  0  0  0  0  0  0  0  0
    1.2499   -0.4689   -0.6351 C   0  0  1  0  0  0  0  0  0  0  0  0
    1.2852   -1.8486   -0.9160 O   0  0  0  0  0  0  0  0  0  0  0  0
    0.1579    0.2550   -1.4600 C   0  0  1  0  0  0  0  0  0  0  0  0
    0.1985   -0.0961   -2.8221 O   0  0  0  0  0  0  0  0  0  0  0  0
   -1.2536    0.0889   -0.8526 C   0  0  1  0  0  0  0  0  0  0  0  0
   -1.8000   -1.2578   -1.0755 N   0  0  0  0  0  0  0  0  0  0  0  0
   -2.5248   -1.6128   -2.2619 C   0  0  0  0  0  0  0  0  0  0  0  0
   -3.0752   -2.9932   -2.4122 C   0  0  0  0  0  0  0  0  0  0  0  0
   -2.7253   -0.7606   -3.1694 O   0  0  0  0  0  0  0  0  0  0  0  0
   -2.4884    1.9124    2.4072 H   0  0  0  0  0  0  0  0  0  0  0  0
   -3.5702    0.5747    2.9087 H   0  0  0  0  0  0  0  0  0  0  0  0
   -1.8065    0.4008    3.1742 H   0  0  0  0  0  0  0  0  0  0  0  0
   -0.9190    1.4895    0.7539 H   0  0  0  0  0  0  0  0  0  0  0  0
    1.6890   -0.9809    1.4112 H   0  0  0  0  0  0  0  0  0  0  0  0
    1.2867    1.9829    0.7042 H   0  0  0  0  0  0  0  0  0  0  0  0
    1.2501    1.3570    2.3823 H   0  0  0  0  0  0  0  0  0  0  0  0
    3.3657    1.4078    0.5286 H   0  0  0  0  0  0  0  0  0  0  0  0
    2.2328   -0.0610   -0.9543 H   0  0  0  0  0  0  0  0  0  0  0  0
    0.5381   -2.2858   -0.4345 H   0  0  0  0  0  0  0  0  0  0  0  0
    0.3926    1.3413   -1.4154 H   0  0  0  0  0  0  0  0  0  0  0  0
    0.0925   -1.0787   -2.8955 H   0  0  0  0  0  0  0  0  0  0  0  0
   -1.9302    0.8364   -1.3249 H   0  0  0  0  0  0  0  0  0  0  0  0
   -1.7538   -1.9643   -0.3062 H   0  0  0  0  0  0  0  0  0  0  0  0
   -2.2868   -3.7377   -2.1749 H   0  0  0  0  0  0  0  0  0  0  0  0
   -3.9280   -3.1287   -1.7151 H   0  0  0  0  0  0  0  0  0  0  0  0
   -3.4256   -3.1627   -3.4525 H   0  0  0  0  0  0  0  0  0  0  0  0
  1  2  1  0
  2  3  1  0
  3  4  1  0
  4  5  1  0
  5  6  1  0
  6  7  1  0
  5  8  1  0
  8  9  1  0
  8 10  1  0
 10 11  1  0
 10 12  1  0
 12 13  1  0
 13 14  1  0
 14 15  1  0
 14 16  2  0
 12  3  1  0
  1 17  1  0
  1 18  1  0
  1 19  1  0
  3 20  1  6
  5 21  1  1
  6 22  1  0
  6 23  1  0
  7 24  1  0
  8 25  1  6
  9 26  1  0
 10 27  1  6
 11 28  1  0
 12 29  1  6
 13 30  1  0
 15 31  1  0
 15 32  1  0
 15 33  1  0
M  END
>  <UniqueID>  (415) 
414

>  <SMILES>  (415) 
CO[C@H]1O[C@H](CO)[C@@H](O)[C@@H](O)[C@H]1NC(C)=O

>  <Energy>  (415) 
37.91688604549601

>  <Genealogy>  (415) 
CO[C@H]1O[C@H](CO)[C@@H](O)[C@@H](O)[C@H]1NC(C)=O (3D coordinates assigned)
CO[C@H]1O[C@H](CO)[C@@H](O)[C@@H](O)[C@H]1NC(C)=O (nonaromatic ring conformer: 37.91688604549601 kcal/mol)

$$$$
ZINC000252694384
     RDKit          3D

 54 54  0  0  0  0  0  0  0  0999 V2000
   -4.5896   -3.6295   -0.3913 C   0  0  0  0  0  0  0  0  0  0  0  0
   -4.6190   -2.1462   -0.7484 C   0  0  0  0  0  0  0  0  0  0  0  0
   -3.8905   -1.3084    0.3081 C   0  0  0  0  0  0  0  0  0  0  0  0
   -3.8912    0.1791   -0.0739 C   0  0  0  0  0  0  0  0  0  0  0  0
   -3.2039    1.0605    0.9815 C   0  0  0  0  0  0  0  0  0  0  0  0
   -1.6776    0.8943    0.9789 C   0  0  0  0  0  0  0  0  0  0  0  0
   -1.0093    1.8788    1.9486 C   0  0  0  0  0  0  0  0  0  0  0  0
    0.5088    1.6978    1.9610 C   0  0  0  0  0  0  0  0  0  0  0  0
    1.0334    2.0506    0.6965 O   0  0  0  0  0  0  0  0  0  0  0  0
    2.3711    1.6072    0.5417 C   0  0  2  0  0  0  0  0  0  0  0  0
    3.1560    2.7271    0.1702 O   0  0  0  0  0  0  0  0  0  0  0  0
    4.5265    2.3773    0.0537 C   0  0  2  0  0  0  0  0  0  0  0  0
    5.3230    3.6712   -0.1848 C   0  0  0  0  0  0  0  0  0  0  0  0
    6.7047    3.4384   -0.1221 O   0  0  0  0  0  0  0  0  0  0  0  0
    4.7248    1.3699   -1.1072 C   0  0  1  0  0  0  0  0  0  0  0  0
    6.0746    0.9907   -1.1964 O   0  0  0  0  0  0  0  0  0  0  0  0
    3.8475    0.1247   -0.8811 C   0  0  1  0  0  0  0  0  0  0  0  0
    4.3662   -0.6268    0.1900 O   0  0  0  0  0  0  0  0  0  0  0  0
    2.3987    0.5570   -0.5880 C   0  0  1  0  0  0  0  0  0  0  0  0
    1.5780   -0.6049   -0.2285 N   0  0  0  0  0  0  0  0  0  0  0  0
    0.6385   -1.2072   -1.1304 C   0  0  0  0  0  0  0  0  0  0  0  0
   -0.1162   -2.4285   -0.7174 C   0  0  0  0  0  0  0  0  0  0  0  0
    0.4723   -0.7408   -2.2898 O   0  0  0  0  0  0  0  0  0  0  0  0
   -3.5408   -3.9932   -0.3412 H   0  0  0  0  0  0  0  0  0  0  0  0
   -5.1296   -4.2098   -1.1689 H   0  0  0  0  0  0  0  0  0  0  0  0
   -5.0849   -3.8007    0.5882 H   0  0  0  0  0  0  0  0  0  0  0  0
   -5.6773   -1.8147   -0.8259 H   0  0  0  0  0  0  0  0  0  0  0  0
   -4.1321   -2.0069   -1.7384 H   0  0  0  0  0  0  0  0  0  0  0  0
   -4.3935   -1.4375    1.2917 H   0  0  0  0  0  0  0  0  0  0  0  0
   -2.8473   -1.6749    0.3955 H   0  0  0  0  0  0  0  0  0  0  0  0
   -3.3960    0.3188   -1.0602 H   0  0  0  0  0  0  0  0  0  0  0  0
   -4.9449    0.5199   -0.1756 H   0  0  0  0  0  0  0  0  0  0  0  0
   -3.4483    2.1214    0.7543 H   0  0  0  0  0  0  0  0  0  0  0  0
   -3.6100    0.8293    1.9907 H   0  0  0  0  0  0  0  0  0  0  0  0
   -1.4136   -0.1399    1.2846 H   0  0  0  0  0  0  0  0  0  0  0  0
   -1.2910    1.0687   -0.0491 H   0  0  0  0  0  0  0  0  0  0  0  0
   -1.2508    2.9239    1.6548 H   0  0  0  0  0  0  0  0  0  0  0  0
   -1.3985    1.7066    2.9759 H   0  0  0  0  0  0  0  0  0  0  0  0
    0.7301    0.6378    2.2267 H   0  0  0  0  0  0  0  0  0  0  0  0
    0.9434    2.3620    2.7403 H   0  0  0  0  0  0  0  0  0  0  0  0
    2.7922    1.1554    1.4772 H   0  0  0  0  0  0  0  0  0  0  0  0
    4.8928    1.9326    1.0088 H   0  0  0  0  0  0  0  0  0  0  0  0
    5.0351    4.4339    0.5748 H   0  0  0  0  0  0  0  0  0  0  0  0
    5.0736    4.0903   -1.1831 H   0  0  0  0  0  0  0  0  0  0  0  0
    6.9315    3.3282    0.8381 H   0  0  0  0  0  0  0  0  0  0  0  0
    4.4093    1.8619   -2.0582 H   0  0  0  0  0  0  0  0  0  0  0  0
    6.1958    0.5727   -2.0888 H   0  0  0  0  0  0  0  0  0  0  0  0
    3.8596   -0.4831   -1.8174 H   0  0  0  0  0  0  0  0  0  0  0  0
    4.1312   -1.5765    0.0210 H   0  0  0  0  0  0  0  0  0  0  0  0
    1.9908    1.0417   -1.5036 H   0  0  0  0  0  0  0  0  0  0  0  0
    1.7403   -1.0647    0.6963 H   0  0  0  0  0  0  0  0  0  0  0  0
    0.5053   -3.3279   -0.9078 H   0  0  0  0  0  0  0  0  0  0  0  0
   -0.3624   -2.3776    0.3638 H   0  0  0  0  0  0  0  0  0  0  0  0
   -1.0622   -2.5101   -1.2940 H   0  0  0  0  0  0  0  0  0  0  0  0
  1  2  1  0
  2  3  1  0
  3  4  1  0
  4  5  1  0
  5  6  1  0
  6  7  1  0
  7  8  1  0
  8  9  1  0
  9 10  1  0
 10 11  1  0
 11 12  1  0
 12 13  1  0
 13 14  1  0
 12 15  1  0
 15 16  1  0
 15 17  1  0
 17 18  1  0
 17 19  1  0
 19 20  1  0
 20 21  1  0
 21 22  1  0
 21 23  2  0
 19 10  1  0
  1 24  1  0
  1 25  1  0
  1 26  1  0
  2 27  1  0
  2 28  1  0
  3 29  1  0
  3 30  1  0
  4 31  1  0
  4 32  1  0
  5 33  1  0
  5 34  1  0
  6 35  1  0
  6 36  1  0
  7 37  1  0
  7 38  1  0
  8 39  1  0
  8 40  1  0
 10 41  1  1
 12 42  1  1
 13 43  1  0
 13 44  1  0
 14 45  1  0
 15 46  1  6
 16 47  1  0
 17 48  1  6
 18 49  1  0
 19 50  1  6
 20 51  1  0
 22 52  1  0
 22 53  1  0
 22 54  1  0
M  END
>  <UniqueID>  (416) 
415

>  <SMILES>  (416) 
CCCCCCCCO[C@@H]1O[C@H](CO)[C@@H](O)[C@@H](O)[C@H]1NC(C)=O

>  <Energy>  (416) 
33.896784504193676

>  <Genealogy>  (416) 
CCCCCCCCO[C@@H]1O[C@H](CO)[C@@H](O)[C@@H](O)[C@H]1NC(C)=O (3D coordinates assigned)
CCCCCCCCO[C@@H]1O[C@H](CO)[C@@H](O)[C@@H](O)[C@H]1NC(C)=O (nonaromatic ring conformer: 33.896784504193676 kcal/mol)

$$$$
ZINC000252694384
     RDKit          3D

 54 54  0  0  0  0  0  0  0  0999 V2000
   -1.9062   -3.2689    3.2067 C   0  0  0  0  0  0  0  0  0  0  0  0
   -2.5230   -2.7497    1.9111 C   0  0  0  0  0  0  0  0  0  0  0  0
   -2.6668   -1.2238    1.9381 C   0  0  0  0  0  0  0  0  0  0  0  0
   -3.2593   -0.7046    0.6198 C   0  0  0  0  0  0  0  0  0  0  0  0
   -3.5789    0.8014    0.6558 C   0  0  0  0  0  0  0  0  0  0  0  0
   -2.3731    1.7174    0.9335 C   0  0  0  0  0  0  0  0  0  0  0  0
   -1.2501    1.5535   -0.0992 C   0  0  0  0  0  0  0  0  0  0  0  0
   -0.1593    2.6128    0.0895 C   0  0  0  0  0  0  0  0  0  0  0  0
    0.8812    2.4016   -0.8453 O   0  0  0  0  0  0  0  0  0  0  0  0
    1.9050    1.5787   -0.3109 C   0  0  2  0  0  0  0  0  0  0  0  0
    2.9286    2.4200    0.1911 O   0  0  0  0  0  0  0  0  0  0  0  0
    3.9484    1.6631    0.8209 C   0  0  2  0  0  0  0  0  0  0  0  0
    4.9129    2.6510    1.4988 C   0  0  0  0  0  0  0  0  0  0  0  0
    5.8525    1.9813    2.2962 O   0  0  0  0  0  0  0  0  0  0  0  0
    4.6839    0.7848   -0.2234 C   0  0  1  0  0  0  0  0  0  0  0  0
    5.6554   -0.0096    0.4082 O   0  0  0  0  0  0  0  0  0  0  0  0
    3.6848   -0.1130   -0.9894 C   0  0  1  0  0  0  0  0  0  0  0  0
    3.3248   -1.2469   -0.2338 O   0  0  0  0  0  0  0  0  0  0  0  0
    2.4532    0.7003   -1.4516 C   0  0  1  0  0  0  0  0  0  0  0  0
    1.3982   -0.1899   -1.9521 N   0  0  0  0  0  0  0  0  0  0  0  0
    0.5835    0.1335   -3.0878 C   0  0  0  0  0  0  0  0  0  0  0  0
   -0.6050   -0.7103   -3.4151 C   0  0  0  0  0  0  0  0  0  0  0  0
    0.8357    1.1494   -3.7904 O   0  0  0  0  0  0  0  0  0  0  0  0
   -1.8192   -4.3749    3.1597 H   0  0  0  0  0  0  0  0  0  0  0  0
   -2.5466   -2.9996    4.0736 H   0  0  0  0  0  0  0  0  0  0  0  0
   -0.8926   -2.8375    3.3514 H   0  0  0  0  0  0  0  0  0  0  0  0
   -1.8748   -3.0498    1.0592 H   0  0  0  0  0  0  0  0  0  0  0  0
   -3.5220   -3.2192    1.7758 H   0  0  0  0  0  0  0  0  0  0  0  0
   -1.6631   -0.7750    2.0979 H   0  0  0  0  0  0  0  0  0  0  0  0
   -3.3286   -0.9311    2.7827 H   0  0  0  0  0  0  0  0  0  0  0  0
   -2.5705   -0.9309   -0.2219 H   0  0  0  0  0  0  0  0  0  0  0  0
   -4.2095   -1.2449    0.4147 H   0  0  0  0  0  0  0  0  0  0  0  0
   -4.0292    1.0885   -0.3194 H   0  0  0  0  0  0  0  0  0  0  0  0
   -4.3496    0.9867    1.4355 H   0  0  0  0  0  0  0  0  0  0  0  0
   -2.7347    2.7688    0.9105 H   0  0  0  0  0  0  0  0  0  0  0  0
   -1.9782    1.5314    1.9551 H   0  0  0  0  0  0  0  0  0  0  0  0
   -1.6671    1.6452   -1.1258 H   0  0  0  0  0  0  0  0  0  0  0  0
   -0.7951    0.5467    0.0060 H   0  0  0  0  0  0  0  0  0  0  0  0
   -0.5995    3.6123   -0.1128 H   0  0  0  0  0  0  0  0  0  0  0  0
    0.2026    2.6371    1.1451 H   0  0  0  0  0  0  0  0  0  0  0  0
    1.5197    0.9028    0.4933 H   0  0  0  0  0  0  0  0  0  0  0  0
    3.5148    1.0272    1.6270 H   0  0  0  0  0  0  0  0  0  0  0  0
    4.3345    3.3700    2.1232 H   0  0  0  0  0  0  0  0  0  0  0  0
    5.4516    3.2434    0.7287 H   0  0  0  0  0  0  0  0  0  0  0  0
    5.3722    1.6824    3.1122 H   0  0  0  0  0  0  0  0  0  0  0  0
    5.1775    1.4638   -0.9588 H   0  0  0  0  0  0  0  0  0  0  0  0
    6.2522   -0.3535   -0.3069 H   0  0  0  0  0  0  0  0  0  0  0  0
    4.1994   -0.4854   -1.9022 H   0  0  0  0  0  0  0  0  0  0  0  0
    2.8871   -0.9415    0.6005 H   0  0  0  0  0  0  0  0  0  0  0  0
    2.7971    1.3746   -2.2681 H   0  0  0  0  0  0  0  0  0  0  0  0
    1.0901   -0.9880   -1.3512 H   0  0  0  0  0  0  0  0  0  0  0  0
   -1.4245   -0.4860   -2.7011 H   0  0  0  0  0  0  0  0  0  0  0  0
   -0.3377   -1.7849   -3.3370 H   0  0  0  0  0  0  0  0  0  0  0  0
   -0.9561   -0.5043   -4.4486 H   0  0  0  0  0  0  0  0  0  0  0  0
  1  2  1  0
  2  3  1  0
  3  4  1  0
  4  5  1  0
  5  6  1  0
  6  7  1  0
  7  8  1  0
  8  9  1  0
  9 10  1  0
 10 11  1  0
 11 12  1  0
 12 13  1  0
 13 14  1  0
 12 15  1  0
 15 16  1  0
 15 17  1  0
 17 18  1  0
 17 19  1  0
 19 20  1  0
 20 21  1  0
 21 22  1  0
 21 23  2  0
 19 10  1  0
  1 24  1  0
  1 25  1  0
  1 26  1  0
  2 27  1  0
  2 28  1  0
  3 29  1  0
  3 30  1  0
  4 31  1  0
  4 32  1  0
  5 33  1  0
  5 34  1  0
  6 35  1  0
  6 36  1  0
  7 37  1  0
  7 38  1  0
  8 39  1  0
  8 40  1  0
 10 41  1  1
 12 42  1  1
 13 43  1  0
 13 44  1  0
 14 45  1  0
 15 46  1  6
 16 47  1  0
 17 48  1  6
 18 49  1  0
 19 50  1  6
 20 51  1  0
 22 52  1  0
 22 53  1  0
 22 54  1  0
M  END
>  <UniqueID>  (417) 
416

>  <SMILES>  (417) 
CCCCCCCCO[C@@H]1O[C@H](CO)[C@@H](O)[C@@H](O)[C@H]1NC(C)=O

>  <Energy>  (417) 
38.17902865617847

>  <Genealogy>  (417) 
CCCCCCCCO[C@@H]1O[C@H](CO)[C@@H](O)[C@@H](O)[C@H]1NC(C)=O (3D coordinates assigned)
CCCCCCCCO[C@@H]1O[C@H](CO)[C@@H](O)[C@@H](O)[C@H]1NC(C)=O (nonaromatic ring conformer: 38.17902865617847 kcal/mol)

$$$$
ZINC000252694384
     RDKit          3D

 54 54  0  0  0  0  0  0  0  0999 V2000
    5.6660   -0.9885   -1.1653 H   0  0  0  0  0  0  0  0  0  0  0  0
    4.9430   -1.0700   -0.4608 O   0  0  0  0  0  0  0  0  0  0  0  0
    4.4122   -2.3122   -0.1141 C   0  0  0  0  0  0  0  0  0  0  0  0
    3.4796   -2.4096    0.7857 N   0  0  0  0  0  0  0  0  0  0  0  0
    2.8838   -1.2757    1.4983 C   0  0  2  0  0  0  0  0  0  0  0  0
    3.6568   -0.4932    1.6770 H   0  0  0  0  0  0  0  0  0  0  0  0
    2.3652   -1.7462    2.8730 C   0  0  2  0  0  0  0  0  0  0  0  0
    3.2367   -2.0028    3.5216 H   0  0  0  0  0  0  0  0  0  0  0  0
    1.5306   -2.8699    2.7231 O   0  0  0  0  0  0  0  0  0  0  0  0
    2.1176   -3.6702    2.7143 H   0  0  0  0  0  0  0  0  0  0  0  0
    1.5847   -0.6034    3.5520 C   0  0  2  0  0  0  0  0  0  0  0  0
    2.3099    0.2054    3.7951 H   0  0  0  0  0  0  0  0  0  0  0  0
    1.0114   -1.0378    4.7617 O   0  0  0  0  0  0  0  0  0  0  0  0
    0.2701   -1.6611    4.5428 H   0  0  0  0  0  0  0  0  0  0  0  0
    0.5237   -0.0270    2.5800 C   0  0  1  0  0  0  0  0  0  0  0  0
   -0.2409   -0.8054    2.3465 H   0  0  0  0  0  0  0  0  0  0  0  0
   -0.2154    1.1598    3.2141 C   0  0  0  0  0  0  0  0  0  0  0  0
    0.5140    1.9548    3.4808 H   0  0  0  0  0  0  0  0  0  0  0  0
   -0.7329    0.8433    4.1480 H   0  0  0  0  0  0  0  0  0  0  0  0
   -1.1459    1.6963    2.3115 O   0  0  0  0  0  0  0  0  0  0  0  0
   -1.9037    1.0558    2.2699 H   0  0  0  0  0  0  0  0  0  0  0  0
    1.1546    0.4206    1.3928 O   0  0  0  0  0  0  0  0  0  0  0  0
    1.7216   -0.6669    0.6794 C   0  0  1  0  0  0  0  0  0  0  0  0
    0.9607   -1.4721    0.5172 H   0  0  0  0  0  0  0  0  0  0  0  0
    2.2368   -0.1716   -0.5457 O   0  0  0  0  0  0  0  0  0  0  0  0
    1.3036   -0.2958   -1.6041 C   0  0  0  0  0  0  0  0  0  0  0  0
    0.8689   -1.3192   -1.6632 H   0  0  0  0  0  0  0  0  0  0  0  0
    1.8606   -0.1453   -2.5530 H   0  0  0  0  0  0  0  0  0  0  0  0
    0.2018    0.7694   -1.5168 C   0  0  0  0  0  0  0  0  0  0  0  0
    0.6707    1.7755   -1.4590 H   0  0  0  0  0  0  0  0  0  0  0  0
   -0.3931    0.5959   -0.5975 H   0  0  0  0  0  0  0  0  0  0  0  0
   -0.7335    0.7013   -2.7314 C   0  0  0  0  0  0  0  0  0  0  0  0
   -0.1254    0.7706   -3.6599 H   0  0  0  0  0  0  0  0  0  0  0  0
   -1.2528   -0.2805   -2.7561 H   0  0  0  0  0  0  0  0  0  0  0  0
   -1.7628    1.8464   -2.7610 C   0  0  0  0  0  0  0  0  0  0  0  0
   -2.3896    1.7324   -3.6721 H   0  0  0  0  0  0  0  0  0  0  0  0
   -1.2196    2.8119   -2.8599 H   0  0  0  0  0  0  0  0  0  0  0  0
   -2.6874    1.9316   -1.5315 C   0  0  0  0  0  0  0  0  0  0  0  0
   -3.3730    2.7892   -1.6953 H   0  0  0  0  0  0  0  0  0  0  0  0
   -2.0933    2.1638   -0.6220 H   0  0  0  0  0  0  0  0  0  0  0  0
   -3.5127    0.6524   -1.3089 C   0  0  0  0  0  0  0  0  0  0  0  0
   -2.8238   -0.1780   -1.0457 H   0  0  0  0  0  0  0  0  0  0  0  0
   -4.0436    0.3698   -2.2442 H   0  0  0  0  0  0  0  0  0  0  0  0
   -4.5189    0.7980   -0.1559 C   0  0  0  0  0  0  0  0  0  0  0  0
   -4.8518   -0.2168    0.1521 H   0  0  0  0  0  0  0  0  0  0  0  0
   -4.0309    1.2712    0.7236 H   0  0  0  0  0  0  0  0  0  0  0  0
   -5.7571    1.6030   -0.5511 C   0  0  0  0  0  0  0  0  0  0  0  0
   -6.4710    1.6215    0.2989 H   0  0  0  0  0  0  0  0  0  0  0  0
   -5.4884    2.6501   -0.7983 H   0  0  0  0  0  0  0  0  0  0  0  0
   -6.2611    1.1347   -1.4232 H   0  0  0  0  0  0  0  0  0  0  0  0
    4.9160   -3.5466   -0.7894 C   0  0  0  0  0  0  0  0  0  0  0  0
    4.6119   -3.5321   -1.8562 H   0  0  0  0  0  0  0  0  0  0  0  0
    4.5036   -4.4594   -0.3084 H   0  0  0  0  0  0  0  0  0  0  0  0
    6.0234   -3.5785   -0.7260 H   0  0  0  0  0  0  0  0  0  0  0  0
  1  2  1  0
  2  3  1  0
  3  4  2  0
  4  5  1  0
  5  6  1  1
  5  7  1  0
  7  8  1  1
  7  9  1  0
  9 10  1  0
  7 11  1  0
 11 12  1  1
 11 13  1  0
 13 14  1  0
 11 15  1  0
 15 16  1  6
 15 17  1  0
 17 18  1  0
 17 19  1  0
 17 20  1  0
 20 21  1  0
 15 22  1  0
 22 23  1  0
 23 24  1  6
 23 25  1  0
 25 26  1  0
 26 27  1  0
 26 28  1  0
 26 29  1  0
 29 30  1  0
 29 31  1  0
 29 32  1  0
 32 33  1  0
 32 34  1  0
 32 35  1  0
 35 36  1  0
 35 37  1  0
 35 38  1  0
 38 39  1  0
 38 40  1  0
 38 41  1  0
 41 42  1  0
 41 43  1  0
 41 44  1  0
 44 45  1  0
 44 46  1  0
 44 47  1  0
 47 48  1  0
 47 49  1  0
 47 50  1  0
  3 51  1  0
 51 52  1  0
 51 53  1  0
 51 54  1  0
 23  5  1  0
M  END
>  <UniqueID>  (418) 
417

>  <SMILES>  (418) 
CCCCCCCCO[C@@H]1O[C@H](CO)[C@@H](O)[C@@H](O)[C@H]1/N=C(\C)O

>  <Energy>  (418) 
39.58278237199297

>  <Genealogy>  (418) 
CCCCCCCCO[C@@H]1O[C@H](CO)[C@@H](O)[C@@H](O)[C@H]1N=C(C)O (tautomer)
CCCCCCCCO[C@@H]1O[C@H](CO)[C@@H](O)[C@@H](O)[C@H]1/N=C(\C)O (cis-trans isomerization)
CCCCCCCCO[C@@H]1O[C@H](CO)[C@@H](O)[C@@H](O)[C@H]1/N=C(\C)O (3D coordinates assigned)
CCCCCCCCO[C@@H]1O[C@H](CO)[C@@H](O)[C@@H](O)[C@H]1/N=C(\C)O (nonaromatic ring conformer: 39.58278237199297 kcal/mol)

$$$$
ZINC000257346145
     RDKit          3D

 41 43  0  0  0  0  0  0  0  0999 V2000
    3.3427    3.7276    0.5441 H   0  0  0  0  0  0  0  0  0  0  0  0
    3.6223    2.8345    0.9326 O   0  0  0  0  0  0  0  0  0  0  0  0
    2.6774    1.9334    1.4108 C   0  0  0  0  0  0  0  0  0  0  0  0
    3.0103    0.9870    1.8196 H   0  0  0  0  0  0  0  0  0  0  0  0
    1.4151    2.2282    1.3661 N   0  0  0  0  0  0  0  0  0  0  0  0
    0.3693    1.3250    1.8484 C   0  0  2  0  0  0  0  0  0  0  0  0
    0.6466    0.9561    2.8630 H   0  0  0  0  0  0  0  0  0  0  0  0
    0.2087    0.1105    0.9034 C   0  0  2  0  0  0  0  0  0  0  0  0
    1.1110   -0.5412    0.9818 H   0  0  0  0  0  0  0  0  0  0  0  0
    0.0369    0.5361   -0.4267 O   0  0  0  0  0  0  0  0  0  0  0  0
    0.9432    0.6798   -0.8052 H   0  0  0  0  0  0  0  0  0  0  0  0
   -1.0090   -0.7132    1.3417 C   0  0  2  0  0  0  0  0  0  0  0  0
   -0.7754   -1.1575    2.3379 H   0  0  0  0  0  0  0  0  0  0  0  0
   -1.2497   -1.7616    0.4200 O   0  0  0  0  0  0  0  0  0  0  0  0
   -2.5325   -2.3632    0.5968 C   0  0  1  0  0  0  0  0  0  0  0  0
   -3.1884   -2.0260   -0.2400 H   0  0  0  0  0  0  0  0  0  0  0  0
   -2.3744   -3.8580    0.5182 C   0  0  0  0  0  0  0  0  0  0  0  0
   -3.0773   -4.6074   -0.4420 C   0  0  0  0  0  0  0  0  0  0  0  0
   -3.7406   -4.1199   -1.1455 H   0  0  0  0  0  0  0  0  0  0  0  0
   -2.9272   -5.9967   -0.4996 C   0  0  0  0  0  0  0  0  0  0  0  0
   -3.4695   -6.5685   -1.2416 H   0  0  0  0  0  0  0  0  0  0  0  0
   -2.0790   -6.6483    0.3997 C   0  0  0  0  0  0  0  0  0  0  0  0
   -1.9646   -7.7236    0.3534 H   0  0  0  0  0  0  0  0  0  0  0  0
   -1.3800   -5.9121    1.3598 C   0  0  0  0  0  0  0  0  0  0  0  0
   -0.7248   -6.4180    2.0571 H   0  0  0  0  0  0  0  0  0  0  0  0
   -1.5268   -4.5230    1.4215 C   0  0  0  0  0  0  0  0  0  0  0  0
   -0.9809   -3.9647    2.1722 H   0  0  0  0  0  0  0  0  0  0  0  0
   -3.1410   -2.0410    1.8412 O   0  0  0  0  0  0  0  0  0  0  0  0
   -3.4373   -0.6569    1.8952 C   0  0  0  0  0  0  0  0  0  0  0  0
   -4.3228   -0.4337    1.2589 H   0  0  0  0  0  0  0  0  0  0  0  0
   -3.7242   -0.4126    2.9404 H   0  0  0  0  0  0  0  0  0  0  0  0
   -2.2364    0.2069    1.4689 C   0  0  1  0  0  0  0  0  0  0  0  0
   -2.4806    0.6512    0.4745 H   0  0  0  0  0  0  0  0  0  0  0  0
   -1.9932    1.2239    2.4251 O   0  0  0  0  0  0  0  0  0  0  0  0
   -0.9649    2.0935    1.9692 C   0  0  1  0  0  0  0  0  0  0  0  0
   -1.2156    2.5149    0.9626 H   0  0  0  0  0  0  0  0  0  0  0  0
   -0.7916    3.1361    2.9105 O   0  0  0  0  0  0  0  0  0  0  0  0
   -1.8417    4.0721    2.7971 C   0  0  0  0  0  0  0  0  0  0  0  0
   -1.8033    4.5966    1.8169 H   0  0  0  0  0  0  0  0  0  0  0  0
   -1.7195    4.8374    3.5908 H   0  0  0  0  0  0  0  0  0  0  0  0
   -2.8353    3.5933    2.9429 H   0  0  0  0  0  0  0  0  0  0  0  0
  1  2  1  0
  2  3  1  0
  3  4  1  0
  3  5  2  0
  5  6  1  0
  6  7  1  1
  6  8  1  0
  8  9  1  6
  8 10  1  0
 10 11  1  0
  8 12  1  0
 12 13  1  1
 12 14  1  0
 14 15  1  0
 15 16  1  6
 15 17  1  0
 17 18  2  0
 18 19  1  0
 18 20  1  0
 20 21  1  0
 20 22  2  0
 22 23  1  0
 22 24  1  0
 24 25  1  0
 24 26  2  0
 26 27  1  0
 15 28  1  0
 28 29  1  0
 29 30  1  0
 29 31  1  0
 29 32  1  0
 32 33  1  6
 32 34  1  0
 34 35  1  0
 35 36  1  6
 35 37  1  0
 37 38  1  0
 38 39  1  0
 38 40  1  0
 38 41  1  0
 35  6  1  0
 32 12  1  0
 26 17  1  0
M  END
>  <UniqueID>  (419) 
418

>  <SMILES>  (419) 
CO[C@@H]1O[C@@H]2CO[C@H](c3ccccc3)O[C@H]2[C@@H](O)[C@H]1/N=C/O

>  <Energy>  (419) 
56.109875679147095

>  <Genealogy>  (419) 
CO[C@@H]1O[C@@H]2CO[C@H](c3ccccc3)O[C@H]2[C@@H](O)[C@H]1N=CO (tautomer)
CO[C@@H]1O[C@@H]2CO[C@H](c3ccccc3)O[C@H]2[C@@H](O)[C@H]1/N=C/O (cis-trans isomerization)
CO[C@@H]1O[C@@H]2CO[C@H](c3ccccc3)O[C@H]2[C@@H](O)[C@H]1/N=C/O (3D coordinates assigned)
CO[C@@H]1O[C@@H]2CO[C@H](c3ccccc3)O[C@H]2[C@@H](O)[C@H]1/N=C/O (nonaromatic ring conformer: 56.109875679147095 kcal/mol)

$$$$
ZINC000257346145
     RDKit          3D

 41 43  0  0  0  0  0  0  0  0999 V2000
    4.6334    1.5805    2.3253 C   0  0  0  0  0  0  0  0  0  0  0  0
    3.2407    1.7862    2.4216 O   0  0  0  0  0  0  0  0  0  0  0  0
    2.5465    0.6356    1.9774 C   0  0  2  0  0  0  0  0  0  0  0  0
    2.5875    0.5904    0.5571 O   0  0  0  0  0  0  0  0  0  0  0  0
    1.9571   -0.5873    0.0848 C   0  0  2  0  0  0  0  0  0  0  0  0
    2.1195   -0.7087   -1.4414 C   0  0  0  0  0  0  0  0  0  0  0  0
    0.8840   -0.9568   -2.0879 O   0  0  0  0  0  0  0  0  0  0  0  0
    0.1959   -2.0174   -1.4368 C   0  0  2  0  0  0  0  0  0  0  0  0
   -1.0327   -2.3503   -2.2400 C   0  0  0  0  0  0  0  0  0  0  0  0
   -2.0590   -1.3997   -2.3802 C   0  0  0  0  0  0  0  0  0  0  0  0
   -3.2004   -1.6986   -3.1304 C   0  0  0  0  0  0  0  0  0  0  0  0
   -3.3256   -2.9455   -3.7485 C   0  0  0  0  0  0  0  0  0  0  0  0
   -2.3089   -3.8953   -3.6184 C   0  0  0  0  0  0  0  0  0  0  0  0
   -1.1653   -3.6011   -2.8690 C   0  0  0  0  0  0  0  0  0  0  0  0
   -0.2059   -1.6991   -0.1043 O   0  0  0  0  0  0  0  0  0  0  0  0
    0.4522   -0.5523    0.4038 C   0  0  1  0  0  0  0  0  0  0  0  0
    0.2501   -0.4465    1.9236 C   0  0  1  0  0  0  0  0  0  0  0  0
    0.6454   -1.6390    2.5568 O   0  0  0  0  0  0  0  0  0  0  0  0
    1.0813    0.7349    2.4684 C   0  0  1  0  0  0  0  0  0  0  0  0
    1.0265    0.7657    3.9349 N   0  0  0  0  0  0  0  0  0  0  0  0
   -0.1294    1.2111    4.6524 C   0  0  0  0  0  0  0  0  0  0  0  0
   -1.1532    1.6193    4.0426 O   0  0  0  0  0  0  0  0  0  0  0  0
    4.9681    0.7889    3.0315 H   0  0  0  0  0  0  0  0  0  0  0  0
    4.9399    1.3288    1.2858 H   0  0  0  0  0  0  0  0  0  0  0  0
    5.1495    2.5208    2.6079 H   0  0  0  0  0  0  0  0  0  0  0  0
    3.0004   -0.2888    2.4171 H   0  0  0  0  0  0  0  0  0  0  0  0
    2.4195   -1.4938    0.5435 H   0  0  0  0  0  0  0  0  0  0  0  0
    2.5329    0.2371   -1.8524 H   0  0  0  0  0  0  0  0  0  0  0  0
    2.8473   -1.5125   -1.6929 H   0  0  0  0  0  0  0  0  0  0  0  0
    0.8518   -2.9186   -1.3918 H   0  0  0  0  0  0  0  0  0  0  0  0
   -1.9736   -0.4285   -1.9082 H   0  0  0  0  0  0  0  0  0  0  0  0
   -3.9876   -0.9629   -3.2333 H   0  0  0  0  0  0  0  0  0  0  0  0
   -4.2096   -3.1752   -4.3292 H   0  0  0  0  0  0  0  0  0  0  0  0
   -2.4064   -4.8600   -4.0994 H   0  0  0  0  0  0  0  0  0  0  0  0
   -0.3867   -4.3485   -2.7810 H   0  0  0  0  0  0  0  0  0  0  0  0
   -0.0017    0.3553   -0.0595 H   0  0  0  0  0  0  0  0  0  0  0  0
   -0.8280   -0.2483    2.1285 H   0  0  0  0  0  0  0  0  0  0  0  0
   -0.1111   -2.2762    2.4727 H   0  0  0  0  0  0  0  0  0  0  0  0
    0.6568    1.6854    2.0718 H   0  0  0  0  0  0  0  0  0  0  0  0
    1.8636    0.4835    4.4936 H   0  0  0  0  0  0  0  0  0  0  0  0
   -0.1235    1.2035    5.7342 H   0  0  0  0  0  0  0  0  0  0  0  0
  1  2  1  0
  2  3  1  0
  3  4  1  0
  4  5  1  0
  5  6  1  0
  6  7  1  0
  7  8  1  0
  8  9  1  0
  9 10  2  0
 10 11  1  0
 11 12  2  0
 12 13  1  0
 13 14  2  0
  8 15  1  0
 15 16  1  0
 16 17  1  0
 17 18  1  0
 17 19  1  0
 19 20  1  0
 20 21  1  0
 21 22  2  0
 19  3  1  0
 16  5  1  0
 14  9  1  0
  1 23  1  0
  1 24  1  0
  1 25  1  0
  3 26  1  1
  5 27  1  1
  6 28  1  0
  6 29  1  0
  8 30  1  1
 10 31  1  0
 11 32  1  0
 12 33  1  0
 13 34  1  0
 14 35  1  0
 16 36  1  6
 17 37  1  6
 18 38  1  0
 19 39  1  6
 20 40  1  0
 21 41  1  0
M  END
>  <UniqueID>  (420) 
419

>  <SMILES>  (420) 
CO[C@@H]1O[C@@H]2CO[C@H](c3ccccc3)O[C@H]2[C@@H](O)[C@H]1NC=O

>  <Energy>  (420) 
56.558103872021164

>  <Genealogy>  (420) 
CO[C@@H]1O[C@@H]2CO[C@H](c3ccccc3)O[C@H]2[C@@H](O)[C@H]1NC=O (3D coordinates assigned)
CO[C@@H]1O[C@@H]2CO[C@H](c3ccccc3)O[C@H]2[C@@H](O)[C@H]1NC=O (nonaromatic ring conformer: 56.558103872021164 kcal/mol)

$$$$
ZINC000257346145
     RDKit          3D

 41 43  0  0  0  0  0  0  0  0999 V2000
   -3.5117    1.9147    0.1217 H   0  0  0  0  0  0  0  0  0  0  0  0
   -3.6284    2.8749   -0.1711 O   0  0  0  0  0  0  0  0  0  0  0  0
   -2.5980    3.6570   -0.6974 C   0  0  0  0  0  0  0  0  0  0  0  0
   -2.8154    4.6844   -0.9544 H   0  0  0  0  0  0  0  0  0  0  0  0
   -1.3893    3.2107   -0.8835 N   0  0  0  0  0  0  0  0  0  0  0  0
   -0.8964    1.8548   -0.6221 C   0  0  2  0  0  0  0  0  0  0  0  0
   -1.3764    1.4404    0.2912 H   0  0  0  0  0  0  0  0  0  0  0  0
    0.6230    1.9090   -0.3432 C   0  0  2  0  0  0  0  0  0  0  0  0
    0.7972    2.4173    0.6353 H   0  0  0  0  0  0  0  0  0  0  0  0
    1.2948    2.5994   -1.3694 O   0  0  0  0  0  0  0  0  0  0  0  0
    1.2539    3.5656   -1.1454 H   0  0  0  0  0  0  0  0  0  0  0  0
    1.1686    0.4790   -0.2403 C   0  0  2  0  0  0  0  0  0  0  0  0
    0.7043    0.0141    0.6611 H   0  0  0  0  0  0  0  0  0  0  0  0
    2.5770    0.4949   -0.1106 O   0  0  0  0  0  0  0  0  0  0  0  0
    3.1039   -0.8279   -0.0277 C   0  0  1  0  0  0  0  0  0  0  0  0
    4.2073   -0.7162   -0.0721 H   0  0  0  0  0  0  0  0  0  0  0  0
    2.8362   -1.5067    1.3095 C   0  0  0  0  0  0  0  0  0  0  0  0
    2.8537   -2.9106    1.4154 C   0  0  0  0  0  0  0  0  0  0  0  0
    3.0125   -3.5286    0.5409 H   0  0  0  0  0  0  0  0  0  0  0  0
    2.6647   -3.5305    2.6542 C   0  0  0  0  0  0  0  0  0  0  0  0
    2.6660   -4.6107    2.7238 H   0  0  0  0  0  0  0  0  0  0  0  0
    2.4845   -2.7587    3.8039 C   0  0  0  0  0  0  0  0  0  0  0  0
    2.3409   -3.2405    4.7624 H   0  0  0  0  0  0  0  0  0  0  0  0
    2.5053   -1.3650    3.7188 C   0  0  0  0  0  0  0  0  0  0  0  0
    2.3827   -0.7675    4.6129 H   0  0  0  0  0  0  0  0  0  0  0  0
    2.6941   -0.7405    2.4824 C   0  0  0  0  0  0  0  0  0  0  0  0
    2.7268    0.3409    2.4427 H   0  0  0  0  0  0  0  0  0  0  0  0
    2.7500   -1.6290   -1.1537 O   0  0  0  0  0  0  0  0  0  0  0  0
    1.3479   -1.7006   -1.3321 C   0  0  0  0  0  0  0  0  0  0  0  0
    0.8659   -2.2429   -0.4881 H   0  0  0  0  0  0  0  0  0  0  0  0
    1.1402   -2.2820   -2.2552 H   0  0  0  0  0  0  0  0  0  0  0  0
    0.7624   -0.3063   -1.4879 C   0  0  1  0  0  0  0  0  0  0  0  0
    1.2086    0.1462   -2.4054 H   0  0  0  0  0  0  0  0  0  0  0  0
   -0.6477   -0.3728   -1.5894 O   0  0  0  0  0  0  0  0  0  0  0  0
   -1.1820    0.9234   -1.8299 C   0  0  1  0  0  0  0  0  0  0  0  0
   -0.7130    1.3847   -2.7360 H   0  0  0  0  0  0  0  0  0  0  0  0
   -2.5814    0.8156   -2.0044 O   0  0  0  0  0  0  0  0  0  0  0  0
   -2.8748    0.2996   -3.2846 C   0  0  0  0  0  0  0  0  0  0  0  0
   -2.3927   -0.6896   -3.4486 H   0  0  0  0  0  0  0  0  0  0  0  0
   -3.9717    0.1546   -3.3635 H   0  0  0  0  0  0  0  0  0  0  0  0
   -2.5731    1.0157   -4.0804 H   0  0  0  0  0  0  0  0  0  0  0  0
  1  2  1  0
  2  3  1  0
  3  4  1  0
  3  5  2  0
  5  6  1  0
  6  7  1  1
  6  8  1  0
  8  9  1  1
  8 10  1  0
 10 11  1  0
  8 12  1  0
 12 13  1  1
 12 14  1  0
 14 15  1  0
 15 16  1  6
 15 17  1  0
 17 18  2  0
 18 19  1  0
 18 20  1  0
 20 21  1  0
 20 22  2  0
 22 23  1  0
 22 24  1  0
 24 25  1  0
 24 26  2  0
 26 27  1  0
 15 28  1  0
 28 29  1  0
 29 30  1  0
 29 31  1  0
 29 32  1  0
 32 33  1  6
 32 34  1  0
 34 35  1  0
 35 36  1  6
 35 37  1  0
 37 38  1  0
 38 39  1  0
 38 40  1  0
 38 41  1  0
 35  6  1  0
 32 12  1  0
 26 17  1  0
M  END
>  <UniqueID>  (421) 
420

>  <SMILES>  (421) 
CO[C@@H]1O[C@@H]2CO[C@H](c3ccccc3)O[C@H]2[C@@H](O)[C@H]1/N=C\O

>  <Energy>  (421) 
57.63582039431629

>  <Genealogy>  (421) 
CO[C@@H]1O[C@@H]2CO[C@H](c3ccccc3)O[C@H]2[C@@H](O)[C@H]1N=CO (tautomer)
CO[C@@H]1O[C@@H]2CO[C@H](c3ccccc3)O[C@H]2[C@@H](O)[C@H]1/N=C\O (cis-trans isomerization)
CO[C@@H]1O[C@@H]2CO[C@H](c3ccccc3)O[C@H]2[C@@H](O)[C@H]1/N=C\O (3D coordinates assigned)
CO[C@@H]1O[C@@H]2CO[C@H](c3ccccc3)O[C@H]2[C@@H](O)[C@H]1/N=C\O (nonaromatic ring conformer: 57.63582039431629 kcal/mol)

$$$$
ZINC000257346492
     RDKit          3D

 42 44  0  0  0  0  0  0  0  0999 V2000
    2.0012    2.1003    0.2444 H   0  0  0  0  0  0  0  0  0  0  0  0
    1.2493    1.9897   -0.3943 O   0  0  0  0  0  0  0  0  0  0  0  0
    0.1837    1.4167    0.3238 C   0  0  2  0  0  0  0  0  0  0  0  0
    0.1278    1.8677    1.3430 H   0  0  0  0  0  0  0  0  0  0  0  0
    0.3774   -0.0995    0.4569 C   0  0  2  0  0  0  0  0  0  0  0  0
   -0.4286   -0.4779    1.1310 H   0  0  0  0  0  0  0  0  0  0  0  0
    1.6384   -0.4087    1.0117 O   0  0  0  0  0  0  0  0  0  0  0  0
    1.8458   -1.8212    1.1032 C   0  0  1  0  0  0  0  0  0  0  0  0
    2.7849   -2.0673    0.5575 H   0  0  0  0  0  0  0  0  0  0  0  0
    2.0718   -2.2031    2.5706 C   0  0  0  0  0  0  0  0  0  0  0  0
    2.9676   -1.6677    2.9550 H   0  0  0  0  0  0  0  0  0  0  0  0
    2.2940   -3.2908    2.6378 H   0  0  0  0  0  0  0  0  0  0  0  0
    0.8726   -1.8705    3.4226 C   0  0  0  0  0  0  0  0  0  0  0  0
    0.7557   -0.6027    4.0180 C   0  0  0  0  0  0  0  0  0  0  0  0
    1.5395    0.1346    3.8963 H   0  0  0  0  0  0  0  0  0  0  0  0
   -0.3812   -0.2766    4.7635 C   0  0  0  0  0  0  0  0  0  0  0  0
   -0.4667    0.7016    5.2186 H   0  0  0  0  0  0  0  0  0  0  0  0
   -1.4098   -1.2100    4.9167 C   0  0  0  0  0  0  0  0  0  0  0  0
   -2.2900   -0.9554    5.4927 H   0  0  0  0  0  0  0  0  0  0  0  0
   -1.3043   -2.4705    4.3225 C   0  0  0  0  0  0  0  0  0  0  0  0
   -2.1042   -3.1906    4.4372 H   0  0  0  0  0  0  0  0  0  0  0  0
   -0.1697   -2.8003    3.5747 C   0  0  0  0  0  0  0  0  0  0  0  0
   -0.1061   -3.7762    3.1096 H   0  0  0  0  0  0  0  0  0  0  0  0
    0.7812   -2.6084    0.5729 O   0  0  0  0  0  0  0  0  0  0  0  0
    0.5355   -2.2554   -0.7754 C   0  0  0  0  0  0  0  0  0  0  0  0
    1.4018   -2.5521   -1.4092 H   0  0  0  0  0  0  0  0  0  0  0  0
   -0.3354   -2.8445   -1.1338 H   0  0  0  0  0  0  0  0  0  0  0  0
    0.2480   -0.7506   -0.9241 C   0  0  1  0  0  0  0  0  0  0  0  0
    1.0182   -0.3359   -1.6177 H   0  0  0  0  0  0  0  0  0  0  0  0
   -1.0538   -0.5296   -1.4352 O   0  0  0  0  0  0  0  0  0  0  0  0
   -1.2472    0.8541   -1.7092 C   0  0  1  0  0  0  0  0  0  0  0  0
   -0.4649    1.2308   -2.4160 H   0  0  0  0  0  0  0  0  0  0  0  0
   -2.5387    1.0305   -2.2603 O   0  0  0  0  0  0  0  0  0  0  0  0
   -2.5513    0.6231   -3.6112 C   0  0  0  0  0  0  0  0  0  0  0  0
   -3.5901    0.6982   -3.9928 H   0  0  0  0  0  0  0  0  0  0  0  0
   -2.2280   -0.4357   -3.7235 H   0  0  0  0  0  0  0  0  0  0  0  0
   -1.9163    1.2914   -4.2335 H   0  0  0  0  0  0  0  0  0  0  0  0
   -1.1495    1.6900   -0.4031 C   0  0  2  0  0  0  0  0  0  0  0  0
   -1.9807    1.3915    0.2762 H   0  0  0  0  0  0  0  0  0  0  0  0
   -1.2609    3.1202   -0.6844 N   0  0  0  0  0  0  0  0  0  0  0  0
   -2.3140    3.6160   -1.0869 N   0  0  0  0  0  4  0  0  0  0  0  0
   -3.3654    4.1119   -1.4888 N   0  0  0  0  0  2  0  0  0  0  0  0
  1  2  1  0
  2  3  1  0
  3  4  1  1
  3  5  1  0
  5  6  1  1
  5  7  1  0
  7  8  1  0
  8  9  1  6
  8 10  1  0
 10 11  1  0
 10 12  1  0
 10 13  1  0
 13 14  2  0
 14 15  1  0
 14 16  1  0
 16 17  1  0
 16 18  2  0
 18 19  1  0
 18 20  1  0
 20 21  1  0
 20 22  2  0
 22 23  1  0
  8 24  1  0
 24 25  1  0
 25 26  1  0
 25 27  1  0
 25 28  1  0
 28 29  1  6
 28 30  1  0
 30 31  1  0
 31 32  1  6
 31 33  1  0
 33 34  1  0
 34 35  1  0
 34 36  1  0
 34 37  1  0
 31 38  1  0
 38 39  1  1
 38 40  1  0
 40 41  2  0
 41 42  2  0
 38  3  1  0
 28  5  1  0
 22 13  1  0
M  CHG  2  41   1  42  -1
M  END
>  <UniqueID>  (422) 
421

>  <SMILES>  (422) 
CO[C@@H]1O[C@@H]2CO[C@H](Cc3ccccc3)O[C@H]2[C@@H](O)[C@H]1N=[N+]=[N-]

>  <Energy>  (422) 
54.88321727584181

>  <Genealogy>  (422) 
CO[C@@H]1O[C@@H]2CO[C@H](Cc3ccccc3)O[C@H]2[C@@H](O)[C@H]1N=[N+]=[N-] (cis-trans isomerization)
CO[C@@H]1O[C@@H]2CO[C@H](Cc3ccccc3)O[C@H]2[C@@H](O)[C@H]1N=[N+]=[N-] (3D coordinates assigned)
CO[C@@H]1O[C@@H]2CO[C@H](Cc3ccccc3)O[C@H]2[C@@H](O)[C@H]1N=[N+]=[N-] (nonaromatic ring conformer: 54.88321727584181 kcal/mol)

$$$$
ZINC000257346492
     RDKit          3D

 42 44  0  0  0  0  0  0  0  0999 V2000
   -3.2275    2.0433    1.3618 H   0  0  0  0  0  0  0  0  0  0  0  0
   -2.6150    2.4368    0.6863 O   0  0  0  0  0  0  0  0  0  0  0  0
   -2.2859    1.4061   -0.2116 C   0  0  2  0  0  0  0  0  0  0  0  0
   -3.2207    0.8563   -0.4796 H   0  0  0  0  0  0  0  0  0  0  0  0
   -1.2967    0.3908    0.4265 C   0  0  2  0  0  0  0  0  0  0  0  0
   -1.8673   -0.5614    0.5192 H   0  0  0  0  0  0  0  0  0  0  0  0
   -0.8480    0.8032    1.7024 O   0  0  0  0  0  0  0  0  0  0  0  0
    0.0145   -0.1688    2.2973 C   0  0  1  0  0  0  0  0  0  0  0  0
    0.4582    0.3445    3.1774 H   0  0  0  0  0  0  0  0  0  0  0  0
   -0.7500   -1.3845    2.8692 C   0  0  0  0  0  0  0  0  0  0  0  0
   -1.6062   -1.0174    3.4764 H   0  0  0  0  0  0  0  0  0  0  0  0
   -1.1824   -2.0133    2.0648 H   0  0  0  0  0  0  0  0  0  0  0  0
    0.1489   -2.2319    3.7321 C   0  0  0  0  0  0  0  0  0  0  0  0
    0.8571   -3.3108    3.1760 C   0  0  0  0  0  0  0  0  0  0  0  0
    0.7458   -3.5586    2.1278 H   0  0  0  0  0  0  0  0  0  0  0  0
    1.7150   -4.0756    3.9724 C   0  0  0  0  0  0  0  0  0  0  0  0
    2.2557   -4.9075    3.5400 H   0  0  0  0  0  0  0  0  0  0  0  0
    1.8781   -3.7650    5.3252 C   0  0  0  0  0  0  0  0  0  0  0  0
    2.5434   -4.3574    5.9400 H   0  0  0  0  0  0  0  0  0  0  0  0
    1.1858   -2.6868    5.8833 C   0  0  0  0  0  0  0  0  0  0  0  0
    1.3172   -2.4437    6.9298 H   0  0  0  0  0  0  0  0  0  0  0  0
    0.3270   -1.9192    5.0904 C   0  0  0  0  0  0  0  0  0  0  0  0
   -0.1970   -1.0810    5.5330 H   0  0  0  0  0  0  0  0  0  0  0  0
    1.1213   -0.5420    1.4743 O   0  0  0  0  0  0  0  0  0  0  0  0
    0.7272   -0.9372    0.1733 C   0  0  0  0  0  0  0  0  0  0  0  0
    1.6417   -1.1071   -0.4333 H   0  0  0  0  0  0  0  0  0  0  0  0
    0.1713   -1.8998    0.1980 H   0  0  0  0  0  0  0  0  0  0  0  0
   -0.0915    0.1644   -0.4756 C   0  0  1  0  0  0  0  0  0  0  0  0
    0.5641    1.0649   -0.5203 H   0  0  0  0  0  0  0  0  0  0  0  0
   -0.5364   -0.2027   -1.7608 O   0  0  0  0  0  0  0  0  0  0  0  0
   -1.1217    0.9045   -2.4528 C   0  0  1  0  0  0  0  0  0  0  0  0
   -0.3216    1.3922   -3.0596 H   0  0  0  0  0  0  0  0  0  0  0  0
   -2.1460    0.4142   -3.2994 O   0  0  0  0  0  0  0  0  0  0  0  0
   -1.5896   -0.2200   -4.4311 C   0  0  0  0  0  0  0  0  0  0  0  0
   -0.9085   -1.0509   -4.1426 H   0  0  0  0  0  0  0  0  0  0  0  0
   -1.0570    0.5132   -5.0759 H   0  0  0  0  0  0  0  0  0  0  0  0
   -2.4137   -0.6566   -5.0317 H   0  0  0  0  0  0  0  0  0  0  0  0
   -1.7540    2.0088   -1.5311 C   0  0  2  0  0  0  0  0  0  0  0  0
   -2.6146    2.4792   -2.0601 H   0  0  0  0  0  0  0  0  0  0  0  0
   -0.7863    3.0673   -1.2375 N   0  0  0  0  0  0  0  0  0  0  0  0
   -0.3754    3.8206   -2.1211 N   0  0  0  0  0  4  0  0  0  0  0  0
    0.0351    4.5727   -3.0034 N   0  0  0  0  0  2  0  0  0  0  0  0
  1  2  1  0
  2  3  1  0
  3  4  1  6
  3  5  1  0
  5  6  1  1
  5  7  1  0
  7  8  1  0
  8  9  1  1
  8 10  1  0
 10 11  1  0
 10 12  1  0
 10 13  1  0
 13 14  2  0
 14 15  1  0
 14 16  1  0
 16 17  1  0
 16 18  2  0
 18 19  1  0
 18 20  1  0
 20 21  1  0
 20 22  2  0
 22 23  1  0
  8 24  1  0
 24 25  1  0
 25 26  1  0
 25 27  1  0
 25 28  1  0
 28 29  1  6
 28 30  1  0
 30 31  1  0
 31 32  1  6
 31 33  1  0
 33 34  1  0
 34 35  1  0
 34 36  1  0
 34 37  1  0
 31 38  1  0
 38 39  1  6
 38 40  1  0
 40 41  2  0
 41 42  2  0
 38  3  1  0
 28  5  1  0
 22 13  1  0
M  CHG  2  41   1  42  -1
M  END
>  <UniqueID>  (423) 
422

>  <SMILES>  (423) 
CO[C@@H]1O[C@@H]2CO[C@H](Cc3ccccc3)O[C@H]2[C@@H](O)[C@H]1N=[N+]=[N-]

>  <Energy>  (423) 
67.09226658052313

>  <Genealogy>  (423) 
CO[C@@H]1O[C@@H]2CO[C@H](Cc3ccccc3)O[C@H]2[C@@H](O)[C@H]1N=[N+]=[N-] (cis-trans isomerization)
CO[C@@H]1O[C@@H]2CO[C@H](Cc3ccccc3)O[C@H]2[C@@H](O)[C@H]1N=[N+]=[N-] (3D coordinates assigned)
CO[C@@H]1O[C@@H]2CO[C@H](Cc3ccccc3)O[C@H]2[C@@H](O)[C@H]1N=[N+]=[N-] (nonaromatic ring conformer: 67.09226658052313 kcal/mol)

$$$$
ZINC000257346492
     RDKit          3D

 42 44  0  0  0  0  0  0  0  0999 V2000
   -4.0296    0.0405    0.1828 H   0  0  0  0  0  0  0  0  0  0  0  0
   -3.4953    0.8374   -0.0734 O   0  0  0  0  0  0  0  0  0  0  0  0
   -2.4779    0.3836   -0.9307 C   0  0  2  0  0  0  0  0  0  0  0  0
   -2.9285   -0.3029   -1.6877 H   0  0  0  0  0  0  0  0  0  0  0  0
   -1.3927   -0.4077   -0.1521 C   0  0  2  0  0  0  0  0  0  0  0  0
   -1.5422   -1.4817   -0.4181 H   0  0  0  0  0  0  0  0  0  0  0  0
   -1.5270   -0.2849    1.2542 O   0  0  0  0  0  0  0  0  0  0  0  0
   -0.3739   -0.7731    1.9488 C   0  0  1  0  0  0  0  0  0  0  0  0
    0.2368    0.1015    2.2751 H   0  0  0  0  0  0  0  0  0  0  0  0
   -0.8422   -1.5077    3.2072 C   0  0  0  0  0  0  0  0  0  0  0  0
   -1.5057   -0.8386    3.7982 H   0  0  0  0  0  0  0  0  0  0  0  0
   -1.4495   -2.3923    2.9143 H   0  0  0  0  0  0  0  0  0  0  0  0
    0.3252   -1.9350    4.0589 C   0  0  0  0  0  0  0  0  0  0  0  0
    0.8784   -3.2187    3.9148 C   0  0  0  0  0  0  0  0  0  0  0  0
    0.4575   -3.9211    3.2060 H   0  0  0  0  0  0  0  0  0  0  0  0
    1.9819   -3.6003    4.6842 C   0  0  0  0  0  0  0  0  0  0  0  0
    2.4028   -4.5911    4.5716 H   0  0  0  0  0  0  0  0  0  0  0  0
    2.5448   -2.7026    5.5956 C   0  0  0  0  0  0  0  0  0  0  0  0
    3.3996   -2.9992    6.1895 H   0  0  0  0  0  0  0  0  0  0  0  0
    2.0071   -1.4203    5.7367 C   0  0  0  0  0  0  0  0  0  0  0  0
    2.4473   -0.7240    6.4388 H   0  0  0  0  0  0  0  0  0  0  0  0
    0.9037   -1.0345    4.9691 C   0  0  0  0  0  0  0  0  0  0  0  0
    0.5016   -0.0353    5.0816 H   0  0  0  0  0  0  0  0  0  0  0  0
    0.4229   -1.6577    1.1613 O   0  0  0  0  0  0  0  0  0  0  0  0
    0.9972   -0.9759    0.0535 C   0  0  0  0  0  0  0  0  0  0  0  0
    1.2911   -1.7375   -0.6999 H   0  0  0  0  0  0  0  0  0  0  0  0
    1.9243   -0.4522    0.3746 H   0  0  0  0  0  0  0  0  0  0  0  0
    0.0131    0.0187   -0.5819 C   0  0  1  0  0  0  0  0  0  0  0  0
    0.2610    1.0245   -0.1659 H   0  0  0  0  0  0  0  0  0  0  0  0
    0.0856    0.0225   -1.9901 O   0  0  0  0  0  0  0  0  0  0  0  0
   -0.6065    1.1455   -2.5334 C   0  0  1  0  0  0  0  0  0  0  0  0
    0.1259    1.9906   -2.5261 H   0  0  0  0  0  0  0  0  0  0  0  0
   -0.9891    0.8033   -3.8552 O   0  0  0  0  0  0  0  0  0  0  0  0
   -0.8651    1.9132   -4.7191 C   0  0  0  0  0  0  0  0  0  0  0  0
   -1.2878    1.6417   -5.7080 H   0  0  0  0  0  0  0  0  0  0  0  0
   -1.4293    2.7944   -4.3402 H   0  0  0  0  0  0  0  0  0  0  0  0
    0.2052    2.1754   -4.8682 H   0  0  0  0  0  0  0  0  0  0  0  0
   -1.8921    1.5694   -1.7273 C   0  0  2  0  0  0  0  0  0  0  0  0
   -2.6797    1.9164   -2.4339 H   0  0  0  0  0  0  0  0  0  0  0  0
   -1.5951    2.6757   -0.8170 N   0  0  0  0  0  0  0  0  0  0  0  0
   -1.2948    3.7906   -1.2458 N   0  0  0  0  0  4  0  0  0  0  0  0
   -0.9947    4.9037   -1.6743 N   0  0  0  0  0  2  0  0  0  0  0  0
  1  2  1  0
  2  3  1  0
  3  4  1  6
  3  5  1  0
  5  6  1  1
  5  7  1  0
  7  8  1  0
  8  9  1  1
  8 10  1  0
 10 11  1  0
 10 12  1  0
 10 13  1  0
 13 14  2  0
 14 15  1  0
 14 16  1  0
 16 17  1  0
 16 18  2  0
 18 19  1  0
 18 20  1  0
 20 21  1  0
 20 22  2  0
 22 23  1  0
  8 24  1  0
 24 25  1  0
 25 26  1  0
 25 27  1  0
 25 28  1  0
 28 29  1  1
 28 30  1  0
 30 31  1  0
 31 32  1  6
 31 33  1  0
 33 34  1  0
 34 35  1  0
 34 36  1  0
 34 37  1  0
 31 38  1  0
 38 39  1  6
 38 40  1  0
 40 41  2  0
 41 42  2  0
 38  3  1  0
 28  5  1  0
 22 13  1  0
M  CHG  2  41   1  42  -1
M  END
>  <UniqueID>  (424) 
423

>  <SMILES>  (424) 
CO[C@@H]1O[C@@H]2CO[C@H](Cc3ccccc3)O[C@H]2[C@@H](O)[C@H]1N=[N+]=[N-]

>  <Energy>  (424) 
69.60195002445136

>  <Genealogy>  (424) 
CO[C@@H]1O[C@@H]2CO[C@H](Cc3ccccc3)O[C@H]2[C@@H](O)[C@H]1N=[N+]=[N-] (cis-trans isomerization)
CO[C@@H]1O[C@@H]2CO[C@H](Cc3ccccc3)O[C@H]2[C@@H](O)[C@H]1N=[N+]=[N-] (3D coordinates assigned)
CO[C@@H]1O[C@@H]2CO[C@H](Cc3ccccc3)O[C@H]2[C@@H](O)[C@H]1N=[N+]=[N-] (nonaromatic ring conformer: 69.60195002445136 kcal/mol)

$$$$
ZINC000257346903
     RDKit          3D

 49 50  0  0  0  0  0  0  0  0999 V2000
   -4.3805    1.2214   -1.8392 C   0  0  0  0  0  0  0  0  0  0  0  0
   -2.8994    1.2566   -2.1806 C   0  0  0  0  0  0  0  0  0  0  0  0
   -2.2279    0.2719   -1.4218 O   0  0  0  0  0  0  0  0  0  0  0  0
   -0.8548    0.2400   -1.7629 C   0  0  2  0  0  0  0  0  0  0  0  0
   -0.7032   -0.3951   -3.0227 O   0  0  0  0  0  0  0  0  0  0  0  0
    0.6502   -0.3589   -3.4449 C   0  0  2  0  0  0  0  0  0  0  0  0
    0.7183   -0.9080   -4.8769 C   0  0  0  0  0  0  0  0  0  0  0  0
    1.9738   -0.6387   -5.4427 O   0  0  0  0  0  0  0  0  0  0  0  0
    1.5313   -1.1947   -2.4823 C   0  0  1  0  0  0  0  0  0  0  0  0
    2.8764   -1.1312   -2.8825 O   0  0  0  0  0  0  0  0  0  0  0  0
    1.3872   -0.6781   -1.0364 C   0  0  1  0  0  0  0  0  0  0  0  0
    1.9873    0.6024   -0.9241 O   0  0  0  0  0  0  0  0  0  0  0  0
    3.3453    0.5456    0.0935 S   0  0  0  0  0  6  0  0  0  0  0  0
    3.9990    2.1906    0.2552 C   0  0  0  0  0  0  0  0  0  0  0  0
    2.9634    0.0422    1.4567 O   0  0  0  0  0  0  0  0  0  0  0  0
    4.4029   -0.3452   -0.4948 O   0  0  0  0  0  0  0  0  0  0  0  0
   -0.1095   -0.5702   -0.6810 C   0  0  1  0  0  0  0  0  0  0  0  0
   -0.2764    0.0487    0.6393 N   0  0  0  0  0  0  0  0  0  0  0  0
   -0.0372   -0.6755    1.8572 C   0  0  0  0  0  0  0  0  0  0  0  0
    0.0613   -1.9336    1.8253 O   0  0  0  0  0  0  0  0  0  0  0  0
    0.0756    0.0310    3.1558 C   0  0  0  0  0  0  0  0  0  0  0  0
   -0.1453   -0.6657    4.3587 C   0  0  0  0  0  0  0  0  0  0  0  0
   -0.0433   -0.0080    5.5882 C   0  0  0  0  0  0  0  0  0  0  0  0
    0.2886    1.3475    5.6326 C   0  0  0  0  0  0  0  0  0  0  0  0
    0.5277    2.0458    4.4475 C   0  0  0  0  0  0  0  0  0  0  0  0
    0.4263    1.3938    3.2139 C   0  0  0  0  0  0  0  0  0  0  0  0
   -4.7936    0.2124   -2.0487 H   0  0  0  0  0  0  0  0  0  0  0  0
   -4.5277    1.4552   -0.7619 H   0  0  0  0  0  0  0  0  0  0  0  0
   -4.9249    1.9714   -2.4494 H   0  0  0  0  0  0  0  0  0  0  0  0
   -2.7903    1.0643   -3.2712 H   0  0  0  0  0  0  0  0  0  0  0  0
   -2.5108    2.2728   -1.9394 H   0  0  0  0  0  0  0  0  0  0  0  0
   -0.4341    1.2769   -1.7829 H   0  0  0  0  0  0  0  0  0  0  0  0
    1.0159    0.6960   -3.4768 H   0  0  0  0  0  0  0  0  0  0  0  0
   -0.0592   -0.4104   -5.4986 H   0  0  0  0  0  0  0  0  0  0  0  0
    0.5002   -2.0025   -4.8709 H   0  0  0  0  0  0  0  0  0  0  0  0
    2.1739   -1.3884   -6.0677 H   0  0  0  0  0  0  0  0  0  0  0  0
    1.1777   -2.2555   -2.5139 H   0  0  0  0  0  0  0  0  0  0  0  0
    3.3342   -1.9145   -2.4761 H   0  0  0  0  0  0  0  0  0  0  0  0
    1.8375   -1.4428   -0.3593 H   0  0  0  0  0  0  0  0  0  0  0  0
    4.8599    2.1774    0.9549 H   0  0  0  0  0  0  0  0  0  0  0  0
    4.3374    2.5515   -0.7373 H   0  0  0  0  0  0  0  0  0  0  0  0
    3.2119    2.8668    0.6492 H   0  0  0  0  0  0  0  0  0  0  0  0
   -0.5531   -1.5920   -0.6629 H   0  0  0  0  0  0  0  0  0  0  0  0
   -0.6413    1.0257    0.6969 H   0  0  0  0  0  0  0  0  0  0  0  0
   -0.4071   -1.7160    4.3491 H   0  0  0  0  0  0  0  0  0  0  0  0
   -0.2244   -0.5503    6.5087 H   0  0  0  0  0  0  0  0  0  0  0  0
    0.3646    1.8547    6.5863 H   0  0  0  0  0  0  0  0  0  0  0  0
    0.7931    3.0932    4.4848 H   0  0  0  0  0  0  0  0  0  0  0  0
    0.6432    1.9543    2.3138 H   0  0  0  0  0  0  0  0  0  0  0  0
  1  2  1  0
  2  3  1  0
  3  4  1  0
  4  5  1  0
  5  6  1  0
  6  7  1  0
  7  8  1  0
  6  9  1  0
  9 10  1  0
  9 11  1  0
 11 12  1  0
 12 13  1  0
 13 14  1  0
 13 15  2  0
 13 16  2  0
 11 17  1  0
 17 18  1  0
 18 19  1  0
 19 20  2  0
 19 21  1  0
 21 22  2  0
 22 23  1  0
 23 24  2  0
 24 25  1  0
 25 26  2  0
 17  4  1  0
 26 21  1  0
  1 27  1  0
  1 28  1  0
  1 29  1  0
  2 30  1  0
  2 31  1  0
  4 32  1  6
  6 33  1  6
  7 34  1  0
  7 35  1  0
  8 36  1  0
  9 37  1  1
 10 38  1  0
 11 39  1  1
 14 40  1  0
 14 41  1  0
 14 42  1  0
 17 43  1  1
 18 44  1  0
 22 45  1  0
 23 46  1  0
 24 47  1  0
 25 48  1  0
 26 49  1  0
M  END
>  <UniqueID>  (425) 
424

>  <SMILES>  (425) 
CCO[C@@H]1O[C@H](CO)[C@@H](O)[C@@H](OS(C)(=O)=O)[C@H]1NC(=O)c1ccccc1

>  <Energy>  (425) 
46.06442988995601

>  <Genealogy>  (425) 
CCO[C@@H]1O[C@H](CO)[C@@H](O)[C@@H](OS(C)(=O)=O)[C@H]1NC(=O)c1ccccc1 (3D coordinates assigned)
CCO[C@@H]1O[C@H](CO)[C@@H](O)[C@@H](OS(C)(=O)=O)[C@H]1NC(=O)c1ccccc1 (nonaromatic ring conformer: 46.06442988995601 kcal/mol)

$$$$
ZINC000257346903
     RDKit          3D

 49 50  0  0  0  0  0  0  0  0999 V2000
   -2.7799    2.3243   -0.9945 C   0  0  0  0  0  0  0  0  0  0  0  0
   -2.7279    1.0925   -1.8919 C   0  0  0  0  0  0  0  0  0  0  0  0
   -1.9770    0.0674   -1.2691 O   0  0  0  0  0  0  0  0  0  0  0  0
   -0.6324    0.0774   -1.7122 C   0  0  2  0  0  0  0  0  0  0  0  0
   -0.5564   -0.6002   -2.9552 O   0  0  0  0  0  0  0  0  0  0  0  0
    0.7608   -0.5449   -3.4784 C   0  0  2  0  0  0  0  0  0  0  0  0
    0.7499   -1.1529   -4.8886 C   0  0  0  0  0  0  0  0  0  0  0  0
   -0.0870   -0.4100   -5.7341 O   0  0  0  0  0  0  0  0  0  0  0  0
    1.7352   -1.3173   -2.5564 C   0  0  1  0  0  0  0  0  0  0  0  0
    3.0414   -1.2388   -3.0671 O   0  0  0  0  0  0  0  0  0  0  0  0
    1.6922   -0.7344   -1.1291 C   0  0  1  0  0  0  0  0  0  0  0  0
    2.2609    0.5652   -1.1385 O   0  0  0  0  0  0  0  0  0  0  0  0
    3.5345    0.6821   -0.0202 S   0  0  0  0  0  6  0  0  0  0  0  0
    4.9322   -0.2866   -0.5482 C   0  0  0  0  0  0  0  0  0  0  0  0
    3.0899    0.2271    1.3419 O   0  0  0  0  0  0  0  0  0  0  0  0
    3.9590    2.1203    0.0682 O   0  0  0  0  0  0  0  0  0  0  0  0
    0.2245   -0.6563   -0.6627 C   0  0  1  0  0  0  0  0  0  0  0  0
    0.1297    0.0275    0.6302 N   0  0  0  0  0  0  0  0  0  0  0  0
    0.1317   -0.6824    1.8791 C   0  0  0  0  0  0  0  0  0  0  0  0
    0.3828   -1.9186    1.8948 O   0  0  0  0  0  0  0  0  0  0  0  0
   -0.1323    0.0235    3.1550 C   0  0  0  0  0  0  0  0  0  0  0  0
    0.3376   -0.5126    4.3684 C   0  0  0  0  0  0  0  0  0  0  0  0
    0.0897    0.1455    5.5769 C   0  0  0  0  0  0  0  0  0  0  0  0
   -0.6352    1.3390    5.5890 C   0  0  0  0  0  0  0  0  0  0  0  0
   -1.1166    1.8753    4.3928 C   0  0  0  0  0  0  0  0  0  0  0  0
   -0.8706    1.2224    3.1810 C   0  0  0  0  0  0  0  0  0  0  0  0
   -3.1964    2.0526   -0.0013 H   0  0  0  0  0  0  0  0  0  0  0  0
   -1.7626    2.7462   -0.8562 H   0  0  0  0  0  0  0  0  0  0  0  0
   -3.4277    3.0979   -1.4576 H   0  0  0  0  0  0  0  0  0  0  0  0
   -3.7651    0.7217   -2.0314 H   0  0  0  0  0  0  0  0  0  0  0  0
   -2.3515    1.3689   -2.9055 H   0  0  0  0  0  0  0  0  0  0  0  0
   -0.2525    1.1260   -1.8069 H   0  0  0  0  0  0  0  0  0  0  0  0
    1.0979    0.5139   -3.5793 H   0  0  0  0  0  0  0  0  0  0  0  0
    1.7750   -1.1315   -5.3153 H   0  0  0  0  0  0  0  0  0  0  0  0
    0.4207   -2.2172   -4.8509 H   0  0  0  0  0  0  0  0  0  0  0  0
   -1.0151   -0.7171   -5.5613 H   0  0  0  0  0  0  0  0  0  0  0  0
    1.4069   -2.3841   -2.5178 H   0  0  0  0  0  0  0  0  0  0  0  0
    3.5445   -2.0043   -2.6849 H   0  0  0  0  0  0  0  0  0  0  0  0
    2.2238   -1.4512   -0.4607 H   0  0  0  0  0  0  0  0  0  0  0  0
    4.6836   -1.3664   -0.5013 H   0  0  0  0  0  0  0  0  0  0  0  0
    5.7951   -0.0849    0.1192 H   0  0  0  0  0  0  0  0  0  0  0  0
    5.2017   -0.0123   -1.5888 H   0  0  0  0  0  0  0  0  0  0  0  0
   -0.1749   -1.6920   -0.5678 H   0  0  0  0  0  0  0  0  0  0  0  0
    0.2101    1.0693    0.6417 H   0  0  0  0  0  0  0  0  0  0  0  0
    0.9061   -1.4343    4.3815 H   0  0  0  0  0  0  0  0  0  0  0  0
    0.4599   -0.2709    6.5048 H   0  0  0  0  0  0  0  0  0  0  0  0
   -0.8278    1.8459    6.5257 H   0  0  0  0  0  0  0  0  0  0  0  0
   -1.6870    2.7950    4.4048 H   0  0  0  0  0  0  0  0  0  0  0  0
   -1.2795    1.6462    2.2732 H   0  0  0  0  0  0  0  0  0  0  0  0
  1  2  1  0
  2  3  1  0
  3  4  1  0
  4  5  1  0
  5  6  1  0
  6  7  1  0
  7  8  1  0
  6  9  1  0
  9 10  1  0
  9 11  1  0
 11 12  1  0
 12 13  1  0
 13 14  1  0
 13 15  2  0
 13 16  2  0
 11 17  1  0
 17 18  1  0
 18 19  1  0
 19 20  2  0
 19 21  1  0
 21 22  2  0
 22 23  1  0
 23 24  2  0
 24 25  1  0
 25 26  2  0
 17  4  1  0
 26 21  1  0
  1 27  1  0
  1 28  1  0
  1 29  1  0
  2 30  1  0
  2 31  1  0
  4 32  1  6
  6 33  1  6
  7 34  1  0
  7 35  1  0
  8 36  1  0
  9 37  1  1
 10 38  1  0
 11 39  1  1
 14 40  1  0
 14 41  1  0
 14 42  1  0
 17 43  1  1
 18 44  1  0
 22 45  1  0
 23 46  1  0
 24 47  1  0
 25 48  1  0
 26 49  1  0
M  END
>  <UniqueID>  (426) 
425

>  <SMILES>  (426) 
CCO[C@@H]1O[C@H](CO)[C@@H](O)[C@@H](OS(C)(=O)=O)[C@H]1NC(=O)c1ccccc1

>  <Energy>  (426) 
46.717881511477685

>  <Genealogy>  (426) 
CCO[C@@H]1O[C@H](CO)[C@@H](O)[C@@H](OS(C)(=O)=O)[C@H]1NC(=O)c1ccccc1 (3D coordinates assigned)
CCO[C@@H]1O[C@H](CO)[C@@H](O)[C@@H](OS(C)(=O)=O)[C@H]1NC(=O)c1ccccc1 (nonaromatic ring conformer: 46.717881511477685 kcal/mol)

$$$$
ZINC000257346903
     RDKit          3D

 49 50  0  0  0  0  0  0  0  0999 V2000
   -2.2041    1.5479    2.3958 H   0  0  0  0  0  0  0  0  0  0  0  0
   -1.4649    1.3644    1.7302 O   0  0  0  0  0  0  0  0  0  0  0  0
   -0.8065    0.1334    1.6508 C   0  0  0  0  0  0  0  0  0  0  0  0
    0.0341   -0.0867    0.6813 N   0  0  0  0  0  0  0  0  0  0  0  0
    0.4090    0.8988   -0.3380 C   0  0  2  0  0  0  0  0  0  0  0  0
   -0.4670    1.5418   -0.5850 H   0  0  0  0  0  0  0  0  0  0  0  0
    0.8365    0.1737   -1.6305 C   0  0  2  0  0  0  0  0  0  0  0  0
   -0.0822   -0.2607   -2.0902 H   0  0  0  0  0  0  0  0  0  0  0  0
    1.8320   -0.7909   -1.3276 O   0  0  0  0  0  0  0  0  0  0  0  0
    1.3163   -2.3516   -1.7591 S   0  0  0  0  0  6  0  0  0  0  0  0
   -0.0558   -2.6299   -1.2110 O   0  0  0  0  0  0  0  0  0  0  0  0
    2.2781   -3.3495   -1.1795 O   0  0  0  0  0  0  0  0  0  0  0  0
    1.2989   -2.5421   -3.5290 C   0  0  0  0  0  0  0  0  0  0  0  0
    2.2979   -2.2880   -3.9392 H   0  0  0  0  0  0  0  0  0  0  0  0
    1.0539   -3.5934   -3.7856 H   0  0  0  0  0  0  0  0  0  0  0  0
    0.5342   -1.8719   -3.9722 H   0  0  0  0  0  0  0  0  0  0  0  0
    1.4008    1.1989   -2.6326 C   0  0  2  0  0  0  0  0  0  0  0  0
    0.5546    1.8514   -2.9593 H   0  0  0  0  0  0  0  0  0  0  0  0
    1.9487    0.5211   -3.7350 O   0  0  0  0  0  0  0  0  0  0  0  0
    1.7779    1.0790   -4.5381 H   0  0  0  0  0  0  0  0  0  0  0  0
    2.4795    2.0734   -1.9474 C   0  0  1  0  0  0  0  0  0  0  0  0
    3.3410    1.4325   -1.6447 H   0  0  0  0  0  0  0  0  0  0  0  0
    3.0432    3.1374   -2.9031 C   0  0  0  0  0  0  0  0  0  0  0  0
    3.8217    3.7370   -2.3778 H   0  0  0  0  0  0  0  0  0  0  0  0
    3.5423    2.6451   -3.7643 H   0  0  0  0  0  0  0  0  0  0  0  0
    2.0282    3.9763   -3.3876 O   0  0  0  0  0  0  0  0  0  0  0  0
    1.8286    4.6296   -2.6673 H   0  0  0  0  0  0  0  0  0  0  0  0
    1.9325    2.7285   -0.8164 O   0  0  0  0  0  0  0  0  0  0  0  0
    1.5616    1.7892    0.1797 C   0  0  1  0  0  0  0  0  0  0  0  0
    2.4228    1.1241    0.4436 H   0  0  0  0  0  0  0  0  0  0  0  0
    1.1109    2.4922    1.3215 O   0  0  0  0  0  0  0  0  0  0  0  0
    2.2084    2.9969    2.0532 C   0  0  0  0  0  0  0  0  0  0  0  0
    2.8486    3.6507    1.4181 H   0  0  0  0  0  0  0  0  0  0  0  0
    2.8206    2.1629    2.4650 H   0  0  0  0  0  0  0  0  0  0  0  0
    1.6891    3.8237    3.2189 C   0  0  0  0  0  0  0  0  0  0  0  0
    1.0850    4.6756    2.8408 H   0  0  0  0  0  0  0  0  0  0  0  0
    2.5426    4.2202    3.8084 H   0  0  0  0  0  0  0  0  0  0  0  0
    1.0565    3.1930    3.8793 H   0  0  0  0  0  0  0  0  0  0  0  0
   -1.0577   -0.9301    2.6571 C   0  0  0  0  0  0  0  0  0  0  0  0
   -0.8043   -2.2804    2.3470 C   0  0  0  0  0  0  0  0  0  0  0  0
   -0.4366   -2.5640    1.3709 H   0  0  0  0  0  0  0  0  0  0  0  0
   -1.0323   -3.2827    3.2946 C   0  0  0  0  0  0  0  0  0  0  0  0
   -0.8400   -4.3178    3.0434 H   0  0  0  0  0  0  0  0  0  0  0  0
   -1.5061   -2.9508    4.5649 C   0  0  0  0  0  0  0  0  0  0  0  0
   -1.6801   -3.7278    5.2981 H   0  0  0  0  0  0  0  0  0  0  0  0
   -1.7467   -1.6152    4.8920 C   0  0  0  0  0  0  0  0  0  0  0  0
   -2.1012   -1.3578    5.8819 H   0  0  0  0  0  0  0  0  0  0  0  0
   -1.5214   -0.6084    3.9478 C   0  0  0  0  0  0  0  0  0  0  0  0
   -1.6856    0.4182    4.2446 H   0  0  0  0  0  0  0  0  0  0  0  0
  1  2  1  0
  2  3  1  0
  3  4  2  0
  4  5  1  0
  5  6  1  6
  5  7  1  0
  7  8  1  6
  7  9  1  0
  9 10  1  0
 10 11  2  0
 10 12  2  0
 10 13  1  0
 13 14  1  0
 13 15  1  0
 13 16  1  0
  7 17  1  0
 17 18  1  6
 17 19  1  0
 19 20  1  0
 17 21  1  0
 21 22  1  1
 21 23  1  0
 23 24  1  0
 23 25  1  0
 23 26  1  0
 26 27  1  0
 21 28  1  0
 28 29  1  0
 29 30  1  1
 29 31  1  0
 31 32  1  0
 32 33  1  0
 32 34  1  0
 32 35  1  0
 35 36  1  0
 35 37  1  0
 35 38  1  0
  3 39  1  0
 39 40  2  0
 40 41  1  0
 40 42  1  0
 42 43  1  0
 42 44  2  0
 44 45  1  0
 44 46  1  0
 46 47  1  0
 46 48  2  0
 48 49  1  0
 29  5  1  0
 48 39  1  0
M  END
>  <UniqueID>  (427) 
426

>  <SMILES>  (427) 
CCO[C@@H]1O[C@H](CO)[C@@H](O)[C@@H](OS(C)(=O)=O)[C@H]1/N=C(/O)c1ccccc1

>  <Energy>  (427) 
47.90275143055602

>  <Genealogy>  (427) 
CCO[C@@H]1O[C@H](CO)[C@@H](O)[C@@H](OS(C)(=O)=O)[C@H]1N=C(O)c1ccccc1 (tautomer)
CCO[C@@H]1O[C@H](CO)[C@@H](O)[C@@H](OS(C)(=O)=O)[C@H]1/N=C(/O)c1ccccc1 (cis-trans isomerization)
CCO[C@@H]1O[C@H](CO)[C@@H](O)[C@@H](OS(C)(=O)=O)[C@H]1/N=C(/O)c1ccccc1 (3D coordinates assigned)
CCO[C@@H]1O[C@H](CO)[C@@H](O)[C@@H](OS(C)(=O)=O)[C@H]1/N=C(/O)c1ccccc1 (nonaromatic ring conformer: 47.90275143055602 kcal/mol)

$$$$
ZINC000257347638
     RDKit          3D

 57 60  0  0  0  0  0  0  0  0999 V2000
    1.6714    2.3669   -2.1277 H   0  0  0  0  0  0  0  0  0  0  0  0
    2.2343    1.7095   -2.6488 O   0  0  0  0  0  0  0  0  0  0  0  0
    2.2412    0.3291   -2.4190 C   0  0  0  0  0  0  0  0  0  0  0  0
    1.4871   -0.2209   -1.5084 N   0  0  0  0  0  0  0  0  0  0  0  0
    0.5181    0.4347   -0.6263 C   0  0  2  0  0  0  0  0  0  0  0  0
    0.8893    1.4357   -0.3158 H   0  0  0  0  0  0  0  0  0  0  0  0
    0.3658   -0.4091    0.6582 C   0  0  2  0  0  0  0  0  0  0  0  0
    1.3012   -0.2853    1.2547 H   0  0  0  0  0  0  0  0  0  0  0  0
    0.0832   -1.7552    0.3123 O   0  0  0  0  0  0  0  0  0  0  0  0
    1.2727   -2.7914    0.9365 S   0  0  0  0  0  6  0  0  0  0  0  0
    2.6359   -2.3815    0.4515 O   0  0  0  0  0  0  0  0  0  0  0  0
    1.2400   -2.7684    2.4391 O   0  0  0  0  0  0  0  0  0  0  0  0
    0.9349   -4.4423    0.3723 C   0  0  0  0  0  0  0  0  0  0  0  0
   -0.0569   -4.7664    0.7503 H   0  0  0  0  0  0  0  0  0  0  0  0
    0.9300   -4.4602   -0.7373 H   0  0  0  0  0  0  0  0  0  0  0  0
    1.7178   -5.1324    0.7494 H   0  0  0  0  0  0  0  0  0  0  0  0
   -0.7871    0.1572    1.4987 C   0  0  2  0  0  0  0  0  0  0  0  0
   -0.4793    1.1751    1.8359 H   0  0  0  0  0  0  0  0  0  0  0  0
   -1.0364   -0.6728    2.6163 O   0  0  0  0  0  0  0  0  0  0  0  0
   -2.1116   -0.1692    3.4061 C   0  0  1  0  0  0  0  0  0  0  0  0
   -2.3204   -0.9518    4.1649 H   0  0  0  0  0  0  0  0  0  0  0  0
   -1.7446    1.0679    4.2152 C   0  0  0  0  0  0  0  0  0  0  0  0
   -2.7458    1.9463    4.6719 C   0  0  0  0  0  0  0  0  0  0  0  0
   -3.7845    1.7801    4.4165 H   0  0  0  0  0  0  0  0  0  0  0  0
   -2.4138    3.0490    5.4647 C   0  0  0  0  0  0  0  0  0  0  0  0
   -3.1889    3.7250    5.8014 H   0  0  0  0  0  0  0  0  0  0  0  0
   -1.0855    3.2729    5.8329 C   0  0  0  0  0  0  0  0  0  0  0  0
   -0.8309    4.1255    6.4490 H   0  0  0  0  0  0  0  0  0  0  0  0
   -0.0881    2.3869    5.4198 C   0  0  0  0  0  0  0  0  0  0  0  0
    0.9387    2.5511    5.7202 H   0  0  0  0  0  0  0  0  0  0  0  0
   -0.4154    1.2821    4.6279 C   0  0  0  0  0  0  0  0  0  0  0  0
    0.3707    0.5970    4.3364 H   0  0  0  0  0  0  0  0  0  0  0  0
   -3.3174   -0.0233    2.6583 O   0  0  0  0  0  0  0  0  0  0  0  0
   -3.1417    0.8119    1.5294 C   0  0  0  0  0  0  0  0  0  0  0  0
   -2.9205    1.8581    1.8386 H   0  0  0  0  0  0  0  0  0  0  0  0
   -4.0931    0.8346    0.9571 H   0  0  0  0  0  0  0  0  0  0  0  0
   -2.0421    0.2656    0.6326 C   0  0  1  0  0  0  0  0  0  0  0  0
   -2.3673   -0.7405    0.2752 H   0  0  0  0  0  0  0  0  0  0  0  0
   -1.8132    1.1417   -0.4548 O   0  0  0  0  0  0  0  0  0  0  0  0
   -0.8522    0.5795   -1.3393 C   0  0  1  0  0  0  0  0  0  0  0  0
   -1.1713   -0.4401   -1.6756 H   0  0  0  0  0  0  0  0  0  0  0  0
   -0.6997    1.4384   -2.4527 O   0  0  0  0  0  0  0  0  0  0  0  0
   -1.7841    1.2813   -3.3418 C   0  0  0  0  0  0  0  0  0  0  0  0
   -2.7591    1.4620   -2.8369 H   0  0  0  0  0  0  0  0  0  0  0  0
   -1.6845    2.0284   -4.1557 H   0  0  0  0  0  0  0  0  0  0  0  0
   -1.7702    0.2718   -3.8087 H   0  0  0  0  0  0  0  0  0  0  0  0
    3.1402   -0.5271   -3.2302 C   0  0  0  0  0  0  0  0  0  0  0  0
    3.1250   -1.9304   -3.0933 C   0  0  0  0  0  0  0  0  0  0  0  0
    2.4528   -2.4149   -2.3966 H   0  0  0  0  0  0  0  0  0  0  0  0
    3.9777   -2.7267   -3.8635 C   0  0  0  0  0  0  0  0  0  0  0  0
    3.9586   -3.8032   -3.7522 H   0  0  0  0  0  0  0  0  0  0  0  0
    4.8529   -2.1366   -4.7773 C   0  0  0  0  0  0  0  0  0  0  0  0
    5.5124   -2.7552   -5.3723 H   0  0  0  0  0  0  0  0  0  0  0  0
    4.8764   -0.7483   -4.9243 C   0  0  0  0  0  0  0  0  0  0  0  0
    5.5546   -0.2923   -5.6339 H   0  0  0  0  0  0  0  0  0  0  0  0
    4.0257    0.0540   -4.1573 C   0  0  0  0  0  0  0  0  0  0  0  0
    4.0645    1.1277   -4.2900 H   0  0  0  0  0  0  0  0  0  0  0  0
  1  2  1  0
  2  3  1  0
  3  4  2  0
  4  5  1  0
  5  6  1  1
  5  7  1  0
  7  8  1  1
  7  9  1  0
  9 10  1  0
 10 11  2  0
 10 12  2  0
 10 13  1  0
 13 14  1  0
 13 15  1  0
 13 16  1  0
  7 17  1  0
 17 18  1  1
 17 19  1  0
 19 20  1  0
 20 21  1  1
 20 22  1  0
 22 23  2  0
 23 24  1  0
 23 25  1  0
 25 26  1  0
 25 27  2  0
 27 28  1  0
 27 29  1  0
 29 30  1  0
 29 31  2  0
 31 32  1  0
 20 33  1  0
 33 34  1  0
 34 35  1  0
 34 36  1  0
 34 37  1  0
 37 38  1  6
 37 39  1  0
 39 40  1  0
 40 41  1  6
 40 42  1  0
 42 43  1  0
 43 44  1  0
 43 45  1  0
 43 46  1  0
  3 47  1  0
 47 48  2  0
 48 49  1  0
 48 50  1  0
 50 51  1  0
 50 52  2  0
 52 53  1  0
 52 54  1  0
 54 55  1  0
 54 56  2  0
 56 57  1  0
 40  5  1  0
 56 47  1  0
 37 17  1  0
 31 22  1  0
M  END
>  <UniqueID>  (428) 
427

>  <SMILES>  (428) 
CO[C@@H]1O[C@@H]2CO[C@H](c3ccccc3)O[C@H]2[C@@H](OS(C)(=O)=O)[C@H]1/N=C(/O)c1ccccc1

>  <Energy>  (428) 
74.05971498203175

>  <Genealogy>  (428) 
CO[C@@H]1O[C@@H]2CO[C@H](c3ccccc3)O[C@H]2[C@@H](OS(C)(=O)=O)[C@H]1N=C(O)c1ccccc1 (tautomer)
CO[C@@H]1O[C@@H]2CO[C@H](c3ccccc3)O[C@H]2[C@@H](OS(C)(=O)=O)[C@H]1/N=C(/O)c1ccccc1 (cis-trans isomerization)
CO[C@@H]1O[C@@H]2CO[C@H](c3ccccc3)O[C@H]2[C@@H](OS(C)(=O)=O)[C@H]1/N=C(/O)c1ccccc1 (3D coordinates assigned)
CO[C@@H]1O[C@@H]2CO[C@H](c3ccccc3)O[C@H]2[C@@H](OS(C)(=O)=O)[C@H]1/N=C(/O)c1ccccc1 (nonaromatic ring conformer: 74.05971498203175 kcal/mol)

$$$$
ZINC000257347638
     RDKit          3D

 57 60  0  0  0  0  0  0  0  0999 V2000
   -4.1489   -0.3997    1.1232 H   0  0  0  0  0  0  0  0  0  0  0  0
   -3.2762    0.1025    1.2243 O   0  0  0  0  0  0  0  0  0  0  0  0
   -2.4232   -0.0810    2.3159 C   0  0  0  0  0  0  0  0  0  0  0  0
   -1.2540    0.4886    2.3236 N   0  0  0  0  0  0  0  0  0  0  0  0
   -0.7279    1.3231    1.2418 C   0  0  2  0  0  0  0  0  0  0  0  0
   -1.5193    2.0291    0.9002 H   0  0  0  0  0  0  0  0  0  0  0  0
   -0.2785    0.4466    0.0496 C   0  0  2  0  0  0  0  0  0  0  0  0
   -1.1976    0.0422   -0.4365 H   0  0  0  0  0  0  0  0  0  0  0  0
    0.6085   -0.5582    0.5125 O   0  0  0  0  0  0  0  0  0  0  0  0
    0.0933   -2.0928    0.0032 S   0  0  0  0  0  6  0  0  0  0  0  0
   -1.2248   -2.4360    0.6374 O   0  0  0  0  0  0  0  0  0  0  0  0
   -0.0383   -2.1357   -1.4940 O   0  0  0  0  0  0  0  0  0  0  0  0
    1.3040   -3.2908    0.5107 C   0  0  0  0  0  0  0  0  0  0  0  0
    0.9822   -4.3038    0.1915 H   0  0  0  0  0  0  0  0  0  0  0  0
    1.4081   -3.2675    1.6153 H   0  0  0  0  0  0  0  0  0  0  0  0
    2.2805   -3.0498    0.0439 H   0  0  0  0  0  0  0  0  0  0  0  0
    0.4407    1.3339   -0.9797 C   0  0  2  0  0  0  0  0  0  0  0  0
   -0.3136    2.0358   -1.4077 H   0  0  0  0  0  0  0  0  0  0  0  0
    0.9657    0.5398   -2.0300 O   0  0  0  0  0  0  0  0  0  0  0  0
    1.9402    1.2314   -2.8091 C   0  0  1  0  0  0  0  0  0  0  0  0
    2.9500    0.8679   -2.5052 H   0  0  0  0  0  0  0  0  0  0  0  0
    1.7185    0.8908   -4.2581 C   0  0  0  0  0  0  0  0  0  0  0  0
    0.5447    1.3138   -4.9075 C   0  0  0  0  0  0  0  0  0  0  0  0
   -0.2041    1.8833   -4.3699 H   0  0  0  0  0  0  0  0  0  0  0  0
    0.3341    1.0057   -6.2548 C   0  0  0  0  0  0  0  0  0  0  0  0
   -0.5685    1.3391   -6.7511 H   0  0  0  0  0  0  0  0  0  0  0  0
    1.2863    0.2666   -6.9611 C   0  0  0  0  0  0  0  0  0  0  0  0
    1.1227    0.0290   -8.0047 H   0  0  0  0  0  0  0  0  0  0  0  0
    2.4520   -0.1661   -6.3219 C   0  0  0  0  0  0  0  0  0  0  0  0
    3.1881   -0.7402   -6.8708 H   0  0  0  0  0  0  0  0  0  0  0  0
    2.6683    0.1409   -4.9750 C   0  0  0  0  0  0  0  0  0  0  0  0
    3.5765   -0.2023   -4.4953 H   0  0  0  0  0  0  0  0  0  0  0  0
    1.8757    2.6438   -2.6604 O   0  0  0  0  0  0  0  0  0  0  0  0
    2.2464    3.0135   -1.3443 C   0  0  0  0  0  0  0  0  0  0  0  0
    1.9676    4.0796   -1.2015 H   0  0  0  0  0  0  0  0  0  0  0  0
    3.3517    2.9523   -1.2310 H   0  0  0  0  0  0  0  0  0  0  0  0
    1.5478    2.1464   -0.2815 C   0  0  1  0  0  0  0  0  0  0  0  0
    2.3146    1.4541    0.1417 H   0  0  0  0  0  0  0  0  0  0  0  0
    0.9953    2.9643    0.7348 O   0  0  0  0  0  0  0  0  0  0  0  0
    0.4560    2.1594    1.7737 C   0  0  1  0  0  0  0  0  0  0  0  0
    1.2281    1.4537    2.1723 H   0  0  0  0  0  0  0  0  0  0  0  0
   -0.0234    3.0014    2.8045 O   0  0  0  0  0  0  0  0  0  0  0  0
    1.0534    3.4761    3.5839 C   0  0  0  0  0  0  0  0  0  0  0  0
    1.5203    2.6454    4.1595 H   0  0  0  0  0  0  0  0  0  0  0  0
    1.8154    3.9955    2.9600 H   0  0  0  0  0  0  0  0  0  0  0  0
    0.6631    4.2123    4.3152 H   0  0  0  0  0  0  0  0  0  0  0  0
   -2.8238   -0.9308    3.4648 C   0  0  0  0  0  0  0  0  0  0  0  0
   -4.1810   -1.1475    3.7693 C   0  0  0  0  0  0  0  0  0  0  0  0
   -4.9667   -0.6817    3.1893 H   0  0  0  0  0  0  0  0  0  0  0  0
   -4.5437   -1.9492    4.8565 C   0  0  0  0  0  0  0  0  0  0  0  0
   -5.5896   -2.1070    5.0850 H   0  0  0  0  0  0  0  0  0  0  0  0
   -3.5612   -2.5385    5.6533 C   0  0  0  0  0  0  0  0  0  0  0  0
   -3.8459   -3.1574    6.4946 H   0  0  0  0  0  0  0  0  0  0  0  0
   -2.2116   -2.3249    5.3674 C   0  0  0  0  0  0  0  0  0  0  0  0
   -1.4497   -2.7802    5.9866 H   0  0  0  0  0  0  0  0  0  0  0  0
   -1.8422   -1.5257    4.2813 C   0  0  0  0  0  0  0  0  0  0  0  0
   -0.7886   -1.3819    4.0741 H   0  0  0  0  0  0  0  0  0  0  0  0
  1  2  1  0
  2  3  1  0
  3  4  2  0
  4  5  1  0
  5  6  1  6
  5  7  1  0
  7  8  1  6
  7  9  1  0
  9 10  1  0
 10 11  2  0
 10 12  2  0
 10 13  1  0
 13 14  1  0
 13 15  1  0
 13 16  1  0
  7 17  1  0
 17 18  1  6
 17 19  1  0
 19 20  1  0
 20 21  1  1
 20 22  1  0
 22 23  2  0
 23 24  1  0
 23 25  1  0
 25 26  1  0
 25 27  2  0
 27 28  1  0
 27 29  1  0
 29 30  1  0
 29 31  2  0
 31 32  1  0
 20 33  1  0
 33 34  1  0
 34 35  1  0
 34 36  1  0
 34 37  1  0
 37 38  1  1
 37 39  1  0
 39 40  1  0
 40 41  1  1
 40 42  1  0
 42 43  1  0
 43 44  1  0
 43 45  1  0
 43 46  1  0
  3 47  1  0
 47 48  2  0
 48 49  1  0
 48 50  1  0
 50 51  1  0
 50 52  2  0
 52 53  1  0
 52 54  1  0
 54 55  1  0
 54 56  2  0
 56 57  1  0
 40  5  1  0
 56 47  1  0
 37 17  1  0
 31 22  1  0
M  END
>  <UniqueID>  (429) 
428

>  <SMILES>  (429) 
CO[C@@H]1O[C@@H]2CO[C@H](c3ccccc3)O[C@H]2[C@@H](OS(C)(=O)=O)[C@H]1/N=C(\O)c1ccccc1

>  <Energy>  (429) 
75.30740721729218

>  <Genealogy>  (429) 
CO[C@@H]1O[C@@H]2CO[C@H](c3ccccc3)O[C@H]2[C@@H](OS(C)(=O)=O)[C@H]1N=C(O)c1ccccc1 (tautomer)
CO[C@@H]1O[C@@H]2CO[C@H](c3ccccc3)O[C@H]2[C@@H](OS(C)(=O)=O)[C@H]1/N=C(\O)c1ccccc1 (cis-trans isomerization)
CO[C@@H]1O[C@@H]2CO[C@H](c3ccccc3)O[C@H]2[C@@H](OS(C)(=O)=O)[C@H]1/N=C(\O)c1ccccc1 (3D coordinates assigned)
CO[C@@H]1O[C@@H]2CO[C@H](c3ccccc3)O[C@H]2[C@@H](OS(C)(=O)=O)[C@H]1/N=C(\O)c1ccccc1 (nonaromatic ring conformer: 75.30740721729218 kcal/mol)

$$$$
ZINC000257347638
     RDKit          3D

 57 60  0  0  0  0  0  0  0  0999 V2000
    1.8936    1.8838   -4.6547 C   0  0  0  0  0  0  0  0  0  0  0  0
    1.9764    0.7509   -3.8157 O   0  0  0  0  0  0  0  0  0  0  0  0
    1.2556    0.9781   -2.6194 C   0  0  2  0  0  0  0  0  0  0  0  0
    2.0239    1.8221   -1.7710 O   0  0  0  0  0  0  0  0  0  0  0  0
    1.3005    2.1126   -0.5886 C   0  0  2  0  0  0  0  0  0  0  0  0
    2.0549    3.1412    0.2736 C   0  0  0  0  0  0  0  0  0  0  0  0
    2.3183    2.6397    1.5716 O   0  0  0  0  0  0  0  0  0  0  0  0
    1.1080    2.1918    2.1754 C   0  0  2  0  0  0  0  0  0  0  0  0
    1.4117    1.7534    3.5899 C   0  0  0  0  0  0  0  0  0  0  0  0
    1.4532    0.3862    3.9496 C   0  0  0  0  0  0  0  0  0  0  0  0
    1.7362    0.0173    5.2684 C   0  0  0  0  0  0  0  0  0  0  0  0
    2.0021    1.0001    6.2309 C   0  0  0  0  0  0  0  0  0  0  0  0
    1.9919    2.3543    5.8770 C   0  0  0  0  0  0  0  0  0  0  0  0
    1.7021    2.7290    4.5620 C   0  0  0  0  0  0  0  0  0  0  0  0
    0.4552    1.1414    1.4561 O   0  0  0  0  0  0  0  0  0  0  0  0
    1.1146    0.8348    0.2442 C   0  0  1  0  0  0  0  0  0  0  0  0
    0.3224   -0.2034   -0.5645 C   0  0  1  0  0  0  0  0  0  0  0  0
   -1.0065    0.2508   -0.7610 O   0  0  0  0  0  0  0  0  0  0  0  0
   -2.1008   -0.7184    0.1003 S   0  0  0  0  0  6  0  0  0  0  0  0
   -3.7451   -0.1024   -0.1797 C   0  0  0  0  0  0  0  0  0  0  0  0
   -1.8032   -0.6615    1.5746 O   0  0  0  0  0  0  0  0  0  0  0  0
   -2.0293   -2.1436   -0.3770 O   0  0  0  0  0  0  0  0  0  0  0  0
    1.0092   -0.3915   -1.9369 C   0  0  1  0  0  0  0  0  0  0  0  0
    0.1981   -1.2625   -2.7960 N   0  0  0  0  0  0  0  0  0  0  0  0
    0.1312   -2.6838   -2.5940 C   0  0  0  0  0  0  0  0  0  0  0  0
    0.9335   -3.2393   -1.7926 O   0  0  0  0  0  0  0  0  0  0  0  0
   -0.8536   -3.5134   -3.3269 C   0  0  0  0  0  0  0  0  0  0  0  0
   -0.6098   -4.8854   -3.5253 C   0  0  0  0  0  0  0  0  0  0  0  0
   -1.5335   -5.6770   -4.2151 C   0  0  0  0  0  0  0  0  0  0  0  0
   -2.7123   -5.1115   -4.7074 C   0  0  0  0  0  0  0  0  0  0  0  0
   -2.9737   -3.7548   -4.5027 C   0  0  0  0  0  0  0  0  0  0  0  0
   -2.0538   -2.9582   -3.8132 C   0  0  0  0  0  0  0  0  0  0  0  0
    2.5325    1.7095   -5.5448 H   0  0  0  0  0  0  0  0  0  0  0  0
    2.2667    2.7999   -4.1462 H   0  0  0  0  0  0  0  0  0  0  0  0
    0.8501    2.0370   -5.0147 H   0  0  0  0  0  0  0  0  0  0  0  0
    0.2599    1.4394   -2.8421 H   0  0  0  0  0  0  0  0  0  0  0  0
    0.3048    2.5546   -0.8344 H   0  0  0  0  0  0  0  0  0  0  0  0
    1.4763    4.0909    0.3428 H   0  0  0  0  0  0  0  0  0  0  0  0
    3.0282    3.3948   -0.2021 H   0  0  0  0  0  0  0  0  0  0  0  0
    0.3906    3.0437    2.2467 H   0  0  0  0  0  0  0  0  0  0  0  0
    1.2585   -0.3960    3.2205 H   0  0  0  0  0  0  0  0  0  0  0  0
    1.7555   -1.0359    5.5411 H   0  0  0  0  0  0  0  0  0  0  0  0
    2.2265    0.7105    7.2499 H   0  0  0  0  0  0  0  0  0  0  0  0
    2.2102    3.1146    6.6215 H   0  0  0  0  0  0  0  0  0  0  0  0
    1.7048    3.7800    4.2999 H   0  0  0  0  0  0  0  0  0  0  0  0
    2.1119    0.3869    0.4730 H   0  0  0  0  0  0  0  0  0  0  0  0
    0.3875   -1.1748   -0.0203 H   0  0  0  0  0  0  0  0  0  0  0  0
   -4.4728   -0.7147    0.3899 H   0  0  0  0  0  0  0  0  0  0  0  0
   -3.8061    0.9570    0.1552 H   0  0  0  0  0  0  0  0  0  0  0  0
   -3.9806   -0.1582   -1.2628 H   0  0  0  0  0  0  0  0  0  0  0  0
    2.0044   -0.8662   -1.7786 H   0  0  0  0  0  0  0  0  0  0  0  0
   -0.2983   -0.8427   -3.6157 H   0  0  0  0  0  0  0  0  0  0  0  0
    0.3005   -5.3439   -3.1581 H   0  0  0  0  0  0  0  0  0  0  0  0
   -1.3335   -6.7292   -4.3692 H   0  0  0  0  0  0  0  0  0  0  0  0
   -3.4259   -5.7260   -5.2422 H   0  0  0  0  0  0  0  0  0  0  0  0
   -3.8936   -3.3201   -4.8741 H   0  0  0  0  0  0  0  0  0  0  0  0
   -2.2975   -1.9171   -3.6455 H   0  0  0  0  0  0  0  0  0  0  0  0
  1  2  1  0
  2  3  1  0
  3  4  1  0
  4  5  1  0
  5  6  1  0
  6  7  1  0
  7  8  1  0
  8  9  1  0
  9 10  2  0
 10 11  1  0
 11 12  2  0
 12 13  1  0
 13 14  2  0
  8 15  1  0
 15 16  1  0
 16 17  1  0
 17 18  1  0
 18 19  1  0
 19 20  1  0
 19 21  2  0
 19 22  2  0
 17 23  1  0
 23 24  1  0
 24 25  1  0
 25 26  2  0
 25 27  1  0
 27 28  2  0
 28 29  1  0
 29 30  2  0
 30 31  1  0
 31 32  2  0
 23  3  1  0
 32 27  1  0
 16  5  1  0
 14  9  1  0
  1 33  1  0
  1 34  1  0
  1 35  1  0
  3 36  1  6
  5 37  1  6
  6 38  1  0
  6 39  1  0
  8 40  1  1
 10 41  1  0
 11 42  1  0
 12 43  1  0
 13 44  1  0
 14 45  1  0
 16 46  1  1
 17 47  1  1
 20 48  1  0
 20 49  1  0
 20 50  1  0
 23 51  1  1
 24 52  1  0
 28 53  1  0
 29 54  1  0
 30 55  1  0
 31 56  1  0
 32 57  1  0
M  END
>  <UniqueID>  (430) 
429

>  <SMILES>  (430) 
CO[C@@H]1O[C@@H]2CO[C@H](c3ccccc3)O[C@H]2[C@@H](OS(C)(=O)=O)[C@H]1NC(=O)c1ccccc1

>  <Energy>  (430) 
75.83789908238481

>  <Genealogy>  (430) 
CO[C@@H]1O[C@@H]2CO[C@H](c3ccccc3)O[C@H]2[C@@H](OS(C)(=O)=O)[C@H]1NC(=O)c1ccccc1 (3D coordinates assigned)
CO[C@@H]1O[C@@H]2CO[C@H](c3ccccc3)O[C@H]2[C@@H](OS(C)(=O)=O)[C@H]1NC(=O)c1ccccc1 (nonaromatic ring conformer: 75.83789908238481 kcal/mol)

$$$$
ZINC000257347639
     RDKit          3D

 57 60  0  0  0  0  0  0  0  0999 V2000
    3.6616   -0.8306    2.3711 C   0  0  0  0  0  0  0  0  0  0  0  0
    3.0280   -1.3399    1.2175 O   0  0  0  0  0  0  0  0  0  0  0  0
    1.6837   -0.9004    1.1661 C   0  0  2  0  0  0  0  0  0  0  0  0
    0.9125   -1.6632    2.0861 O   0  0  0  0  0  0  0  0  0  0  0  0
   -0.4255   -1.2038    2.0879 C   0  0  2  0  0  0  0  0  0  0  0  0
   -1.2398   -1.9218    3.1599 C   0  0  0  0  0  0  0  0  0  0  0  0
   -2.5963   -1.5284    3.0806 O   0  0  0  0  0  0  0  0  0  0  0  0
   -3.1225   -1.8440    1.7990 C   0  0  1  0  0  0  0  0  0  0  0  0
   -4.5754   -1.4498    1.7755 C   0  0  0  0  0  0  0  0  0  0  0  0
   -4.9383   -0.0963    1.8952 C   0  0  0  0  0  0  0  0  0  0  0  0
   -6.2854    0.2776    1.8795 C   0  0  0  0  0  0  0  0  0  0  0  0
   -7.2804   -0.6945    1.7489 C   0  0  0  0  0  0  0  0  0  0  0  0
   -6.9302   -2.0426    1.6357 C   0  0  0  0  0  0  0  0  0  0  0  0
   -5.5841   -2.4217    1.6500 C   0  0  0  0  0  0  0  0  0  0  0  0
   -2.4495   -1.1225    0.7764 O   0  0  0  0  0  0  0  0  0  0  0  0
   -1.0905   -1.5061    0.7390 C   0  0  1  0  0  0  0  0  0  0  0  0
   -0.3424   -0.7582   -0.3754 C   0  0  1  0  0  0  0  0  0  0  0  0
   -0.5111    0.6406   -0.2143 O   0  0  0  0  0  0  0  0  0  0  0  0
   -1.4888    1.2729   -1.4496 S   0  0  0  0  0  6  0  0  0  0  0  0
   -1.6653    3.0210   -1.1850 C   0  0  0  0  0  0  0  0  0  0  0  0
   -0.8509    1.0477   -2.7917 O   0  0  0  0  0  0  0  0  0  0  0  0
   -2.8500    0.6356   -1.4232 O   0  0  0  0  0  0  0  0  0  0  0  0
    1.1622   -1.1054   -0.2803 C   0  0  1  0  0  0  0  0  0  0  0  0
    1.9297   -0.2886   -1.2277 N   0  0  0  0  0  0  0  0  0  0  0  0
    1.8938   -0.5268   -2.6437 C   0  0  0  0  0  0  0  0  0  0  0  0
    1.4442   -1.6213   -3.0811 O   0  0  0  0  0  0  0  0  0  0  0  0
    2.3842    0.4934   -3.5996 C   0  0  0  0  0  0  0  0  0  0  0  0
    2.4041    1.8581   -3.2541 C   0  0  0  0  0  0  0  0  0  0  0  0
    2.8532    2.8132   -4.1714 C   0  0  0  0  0  0  0  0  0  0  0  0
    3.2818    2.4195   -5.4410 C   0  0  0  0  0  0  0  0  0  0  0  0
    3.2565    1.0699   -5.7987 C   0  0  0  0  0  0  0  0  0  0  0  0
    2.8062    0.1107   -4.8864 C   0  0  0  0  0  0  0  0  0  0  0  0
    3.1228   -1.1256    3.2988 H   0  0  0  0  0  0  0  0  0  0  0  0
    3.7603    0.2759    2.3140 H   0  0  0  0  0  0  0  0  0  0  0  0
    4.6845   -1.2555    2.4286 H   0  0  0  0  0  0  0  0  0  0  0  0
    1.6193    0.1915    1.4066 H   0  0  0  0  0  0  0  0  0  0  0  0
   -0.4734   -0.1116    2.3140 H   0  0  0  0  0  0  0  0  0  0  0  0
   -1.1435   -3.0277    3.0630 H   0  0  0  0  0  0  0  0  0  0  0  0
   -0.8469   -1.6414    4.1599 H   0  0  0  0  0  0  0  0  0  0  0  0
   -3.0498   -2.9433    1.6102 H   0  0  0  0  0  0  0  0  0  0  0  0
   -4.1771    0.6678    1.9985 H   0  0  0  0  0  0  0  0  0  0  0  0
   -6.5575    1.3212    1.9684 H   0  0  0  0  0  0  0  0  0  0  0  0
   -8.3228   -0.4034    1.7372 H   0  0  0  0  0  0  0  0  0  0  0  0
   -7.7023   -2.7946    1.5368 H   0  0  0  0  0  0  0  0  0  0  0  0
   -5.3318   -3.4711    1.5624 H   0  0  0  0  0  0  0  0  0  0  0  0
   -1.0112   -2.5981    0.5167 H   0  0  0  0  0  0  0  0  0  0  0  0
   -0.7146   -1.1426   -1.3542 H   0  0  0  0  0  0  0  0  0  0  0  0
   -2.1383    3.1996   -0.1973 H   0  0  0  0  0  0  0  0  0  0  0  0
   -2.3010    3.4564   -1.9834 H   0  0  0  0  0  0  0  0  0  0  0  0
   -0.6649    3.5007   -1.2063 H   0  0  0  0  0  0  0  0  0  0  0  0
    1.2998   -2.1810   -0.5352 H   0  0  0  0  0  0  0  0  0  0  0  0
    2.5486    0.4692   -0.8603 H   0  0  0  0  0  0  0  0  0  0  0  0
    2.0495    2.1943   -2.2885 H   0  0  0  0  0  0  0  0  0  0  0  0
    2.8621    3.8608   -3.8996 H   0  0  0  0  0  0  0  0  0  0  0  0
    3.6283    3.1608   -6.1494 H   0  0  0  0  0  0  0  0  0  0  0  0
    3.5852    0.7662   -6.7843 H   0  0  0  0  0  0  0  0  0  0  0  0
    2.7969   -0.9306   -5.1835 H   0  0  0  0  0  0  0  0  0  0  0  0
  1  2  1  0
  2  3  1  0
  3  4  1  0
  4  5  1  0
  5  6  1  0
  6  7  1  0
  7  8  1  0
  8  9  1  0
  9 10  2  0
 10 11  1  0
 11 12  2  0
 12 13  1  0
 13 14  2  0
  8 15  1  0
 15 16  1  0
 16 17  1  0
 17 18  1  0
 18 19  1  0
 19 20  1  0
 19 21  2  0
 19 22  2  0
 17 23  1  0
 23 24  1  0
 24 25  1  0
 25 26  2  0
 25 27  1  0
 27 28  2  0
 28 29  1  0
 29 30  2  0
 30 31  1  0
 31 32  2  0
 23  3  1  0
 32 27  1  0
 16  5  1  0
 14  9  1  0
  1 33  1  0
  1 34  1  0
  1 35  1  0
  3 36  1  1
  5 37  1  1
  6 38  1  0
  6 39  1  0
  8 40  1  6
 10 41  1  0
 11 42  1  0
 12 43  1  0
 13 44  1  0
 14 45  1  0
 16 46  1  6
 17 47  1  6
 20 48  1  0
 20 49  1  0
 20 50  1  0
 23 51  1  6
 24 52  1  0
 28 53  1  0
 29 54  1  0
 30 55  1  0
 31 56  1  0
 32 57  1  0
M  END
>  <UniqueID>  (431) 
430

>  <SMILES>  (431) 
CO[C@@H]1O[C@@H]2CO[C@@H](c3ccccc3)O[C@H]2[C@@H](OS(C)(=O)=O)[C@H]1NC(=O)c1ccccc1

>  <Energy>  (431) 
66.51645115170123

>  <Genealogy>  (431) 
CO[C@@H]1O[C@@H]2CO[C@@H](c3ccccc3)O[C@H]2[C@@H](OS(C)(=O)=O)[C@H]1NC(=O)c1ccccc1 (3D coordinates assigned)
CO[C@@H]1O[C@@H]2CO[C@@H](c3ccccc3)O[C@H]2[C@@H](OS(C)(=O)=O)[C@H]1NC(=O)c1ccccc1 (nonaromatic ring conformer: 66.51645115170123 kcal/mol)

$$$$
ZINC000257347639
     RDKit          3D

 57 60  0  0  0  0  0  0  0  0999 V2000
    1.6300   -2.2462   -3.0317 H   0  0  0  0  0  0  0  0  0  0  0  0
    1.4124   -1.7085   -2.2028 O   0  0  0  0  0  0  0  0  0  0  0  0
    1.5749   -0.3216   -2.1433 C   0  0  0  0  0  0  0  0  0  0  0  0
    1.3942    0.3022   -1.0169 N   0  0  0  0  0  0  0  0  0  0  0  0
    0.9990   -0.3462    0.2345 C   0  0  2  0  0  0  0  0  0  0  0  0
    1.5567   -1.3047    0.3477 H   0  0  0  0  0  0  0  0  0  0  0  0
   -0.5209   -0.6414    0.2380 C   0  0  2  0  0  0  0  0  0  0  0  0
   -0.7044   -1.4565   -0.4999 H   0  0  0  0  0  0  0  0  0  0  0  0
   -1.2328    0.5502   -0.0524 O   0  0  0  0  0  0  0  0  0  0  0  0
   -2.4519    0.2690   -1.2031 S   0  0  0  0  0  6  0  0  0  0  0  0
   -3.3886    1.4433   -1.1990 O   0  0  0  0  0  0  0  0  0  0  0  0
   -3.2348   -0.9714   -0.8715 O   0  0  0  0  0  0  0  0  0  0  0  0
   -1.7500    0.1118   -2.8308 C   0  0  0  0  0  0  0  0  0  0  0  0
   -2.5625    0.1108   -3.5861 H   0  0  0  0  0  0  0  0  0  0  0  0
   -1.0699    0.9663   -3.0253 H   0  0  0  0  0  0  0  0  0  0  0  0
   -1.1859   -0.8395   -2.9065 H   0  0  0  0  0  0  0  0  0  0  0  0
   -0.9062   -1.1554    1.6356 C   0  0  2  0  0  0  0  0  0  0  0  0
   -0.3881   -2.1346    1.7807 H   0  0  0  0  0  0  0  0  0  0  0  0
   -2.3036   -1.3315    1.7463 O   0  0  0  0  0  0  0  0  0  0  0  0
   -2.6167   -1.8472    3.0341 C   0  0  2  0  0  0  0  0  0  0  0  0
   -2.0900   -2.8157    3.2151 H   0  0  0  0  0  0  0  0  0  0  0  0
   -4.0957   -2.1641    3.0901 C   0  0  0  0  0  0  0  0  0  0  0  0
   -4.7214   -2.7759    1.9867 C   0  0  0  0  0  0  0  0  0  0  0  0
   -4.1603   -2.9933    1.0863 H   0  0  0  0  0  0  0  0  0  0  0  0
   -6.0765   -3.1159    2.0366 C   0  0  0  0  0  0  0  0  0  0  0  0
   -6.5500   -3.5767    1.1793 H   0  0  0  0  0  0  0  0  0  0  0  0
   -6.8183   -2.8700    3.1936 C   0  0  0  0  0  0  0  0  0  0  0  0
   -7.8667   -3.1362    3.2313 H   0  0  0  0  0  0  0  0  0  0  0  0
   -6.2039   -2.2925    4.3066 C   0  0  0  0  0  0  0  0  0  0  0  0
   -6.7767   -2.1159    5.2079 H   0  0  0  0  0  0  0  0  0  0  0  0
   -4.8488   -1.9499    4.2624 C   0  0  0  0  0  0  0  0  0  0  0  0
   -4.3948   -1.5217    5.1466 H   0  0  0  0  0  0  0  0  0  0  0  0
   -2.2796   -0.9003    4.0405 O   0  0  0  0  0  0  0  0  0  0  0  0
   -0.8818   -0.6819    4.0522 C   0  0  0  0  0  0  0  0  0  0  0  0
   -0.3385   -1.6165    4.3222 H   0  0  0  0  0  0  0  0  0  0  0  0
   -0.6474    0.0741    4.8312 H   0  0  0  0  0  0  0  0  0  0  0  0
   -0.4251   -0.1541    2.6950 C   0  0  1  0  0  0  0  0  0  0  0  0
   -0.9123    0.8392    2.5467 H   0  0  0  0  0  0  0  0  0  0  0  0
    0.9842   -0.0368    2.6543 O   0  0  0  0  0  0  0  0  0  0  0  0
    1.3847    0.5604    1.4268 C   0  0  1  0  0  0  0  0  0  0  0  0
    0.8836    1.5517    1.2846 H   0  0  0  0  0  0  0  0  0  0  0  0
    2.7916    0.7149    1.4268 O   0  0  0  0  0  0  0  0  0  0  0  0
    3.1603    1.8073    2.2404 C   0  0  0  0  0  0  0  0  0  0  0  0
    2.7994    2.7657    1.8063 H   0  0  0  0  0  0  0  0  0  0  0  0
    2.7873    1.6876    3.2818 H   0  0  0  0  0  0  0  0  0  0  0  0
    4.2676    1.8561    2.2850 H   0  0  0  0  0  0  0  0  0  0  0  0
    1.9531    0.4531   -3.3496 C   0  0  0  0  0  0  0  0  0  0  0  0
    2.6283    1.6823   -3.2220 C   0  0  0  0  0  0  0  0  0  0  0  0
    2.8977    2.0664   -2.2457 H   0  0  0  0  0  0  0  0  0  0  0  0
    2.9740    2.4222   -4.3568 C   0  0  0  0  0  0  0  0  0  0  0  0
    3.4980    3.3632   -4.2495 H   0  0  0  0  0  0  0  0  0  0  0  0
    2.6440    1.9496   -5.6286 C   0  0  0  0  0  0  0  0  0  0  0  0
    2.9106    2.5247   -6.5059 H   0  0  0  0  0  0  0  0  0  0  0  0
    1.9639    0.7379   -5.7678 C   0  0  0  0  0  0  0  0  0  0  0  0
    1.6983    0.3786   -6.7537 H   0  0  0  0  0  0  0  0  0  0  0  0
    1.6170   -0.0073   -4.6365 C   0  0  0  0  0  0  0  0  0  0  0  0
    1.0624   -0.9258   -4.7736 H   0  0  0  0  0  0  0  0  0  0  0  0
  1  2  1  0
  2  3  1  0
  3  4  2  0
  4  5  1  0
  5  6  1  1
  5  7  1  0
  7  8  1  6
  7  9  1  0
  9 10  1  0
 10 11  2  0
 10 12  2  0
 10 13  1  0
 13 14  1  0
 13 15  1  0
 13 16  1  0
  7 17  1  0
 17 18  1  1
 17 19  1  0
 19 20  1  0
 20 21  1  1
 20 22  1  0
 22 23  2  0
 23 24  1  0
 23 25  1  0
 25 26  1  0
 25 27  2  0
 27 28  1  0
 27 29  1  0
 29 30  1  0
 29 31  2  0
 31 32  1  0
 20 33  1  0
 33 34  1  0
 34 35  1  0
 34 36  1  0
 34 37  1  0
 37 38  1  6
 37 39  1  0
 39 40  1  0
 40 41  1  6
 40 42  1  0
 42 43  1  0
 43 44  1  0
 43 45  1  0
 43 46  1  0
  3 47  1  0
 47 48  2  0
 48 49  1  0
 48 50  1  0
 50 51  1  0
 50 52  2  0
 52 53  1  0
 52 54  1  0
 54 55  1  0
 54 56  2  0
 56 57  1  0
 40  5  1  0
 56 47  1  0
 37 17  1  0
 31 22  1  0
M  END
>  <UniqueID>  (432) 
431

>  <SMILES>  (432) 
CO[C@@H]1O[C@@H]2CO[C@@H](c3ccccc3)O[C@H]2[C@@H](OS(C)(=O)=O)[C@H]1/N=C(\O)c1ccccc1

>  <Energy>  (432) 
68.58195974551309

>  <Genealogy>  (432) 
CO[C@@H]1O[C@@H]2CO[C@@H](c3ccccc3)O[C@H]2[C@@H](OS(C)(=O)=O)[C@H]1N=C(O)c1ccccc1 (tautomer)
CO[C@@H]1O[C@@H]2CO[C@@H](c3ccccc3)O[C@H]2[C@@H](OS(C)(=O)=O)[C@H]1/N=C(\O)c1ccccc1 (cis-trans isomerization)
CO[C@@H]1O[C@@H]2CO[C@@H](c3ccccc3)O[C@H]2[C@@H](OS(C)(=O)=O)[C@H]1/N=C(\O)c1ccccc1 (3D coordinates assigned)
CO[C@@H]1O[C@@H]2CO[C@@H](c3ccccc3)O[C@H]2[C@@H](OS(C)(=O)=O)[C@H]1/N=C(\O)c1ccccc1 (nonaromatic ring conformer: 68.58195974551309 kcal/mol)

$$$$
ZINC000257347639
     RDKit          3D

 57 60  0  0  0  0  0  0  0  0999 V2000
    1.1396    5.1572   -0.2061 H   0  0  0  0  0  0  0  0  0  0  0  0
    1.5224    4.5668    0.5251 O   0  0  0  0  0  0  0  0  0  0  0  0
    0.8891    3.3841    0.8993 C   0  0  0  0  0  0  0  0  0  0  0  0
   -0.2300    3.0521    0.3190 N   0  0  0  0  0  0  0  0  0  0  0  0
   -0.9787    1.8051    0.5076 C   0  0  2  0  0  0  0  0  0  0  0  0
   -0.8878    1.4491    1.5564 H   0  0  0  0  0  0  0  0  0  0  0  0
   -0.4356    0.7161   -0.4433 C   0  0  2  0  0  0  0  0  0  0  0  0
    0.5817    0.4274   -0.0883 H   0  0  0  0  0  0  0  0  0  0  0  0
   -0.4625    1.1957   -1.7783 O   0  0  0  0  0  0  0  0  0  0  0  0
    1.0813    1.1187   -2.4772 S   0  0  0  0  0  6  0  0  0  0  0  0
    2.0665    1.9140   -1.6669 O   0  0  0  0  0  0  0  0  0  0  0  0
    1.5380   -0.3075   -2.5755 O   0  0  0  0  0  0  0  0  0  0  0  0
    0.9925    1.8126   -4.1104 C   0  0  0  0  0  0  0  0  0  0  0  0
    0.2757    1.2256   -4.7268 H   0  0  0  0  0  0  0  0  0  0  0  0
    1.9969    1.7827   -4.5820 H   0  0  0  0  0  0  0  0  0  0  0  0
    0.6453    2.8643   -4.0442 H   0  0  0  0  0  0  0  0  0  0  0  0
   -1.3404   -0.5161   -0.3266 C   0  0  2  0  0  0  0  0  0  0  0  0
   -1.2308   -0.9088    0.7137 H   0  0  0  0  0  0  0  0  0  0  0  0
   -0.9614   -1.5065   -1.2593 O   0  0  0  0  0  0  0  0  0  0  0  0
   -1.7886   -2.6514   -1.0974 C   0  0  2  0  0  0  0  0  0  0  0  0
   -1.6994   -3.0496   -0.0561 H   0  0  0  0  0  0  0  0  0  0  0  0
   -1.3227   -3.7170   -2.0546 C   0  0  0  0  0  0  0  0  0  0  0  0
   -1.1886   -3.4240   -3.4227 C   0  0  0  0  0  0  0  0  0  0  0  0
   -1.4136   -2.4296   -3.7935 H   0  0  0  0  0  0  0  0  0  0  0  0
   -0.7698   -4.4135   -4.3188 C   0  0  0  0  0  0  0  0  0  0  0  0
   -0.6717   -4.1785   -5.3746 H   0  0  0  0  0  0  0  0  0  0  0  0
   -0.4956   -5.7047   -3.8595 C   0  0  0  0  0  0  0  0  0  0  0  0
   -0.1831   -6.4708   -4.5571 H   0  0  0  0  0  0  0  0  0  0  0  0
   -0.6390   -6.0094   -2.5026 C   0  0  0  0  0  0  0  0  0  0  0  0
   -0.4433   -7.0122   -2.1500 H   0  0  0  0  0  0  0  0  0  0  0  0
   -1.0521   -5.0223   -1.6028 C   0  0  0  0  0  0  0  0  0  0  0  0
   -1.1712   -5.2760   -0.5599 H   0  0  0  0  0  0  0  0  0  0  0  0
   -3.1462   -2.3470   -1.3943 O   0  0  0  0  0  0  0  0  0  0  0  0
   -3.6385   -1.3753   -0.4897 C   0  0  0  0  0  0  0  0  0  0  0  0
   -4.6889   -1.1347   -0.7639 H   0  0  0  0  0  0  0  0  0  0  0  0
   -3.6510   -1.7756    0.5503 H   0  0  0  0  0  0  0  0  0  0  0  0
   -2.7984   -0.1029   -0.5768 C   0  0  1  0  0  0  0  0  0  0  0  0
   -2.9212    0.3013   -1.6099 H   0  0  0  0  0  0  0  0  0  0  0  0
   -3.2190    0.8462    0.3883 O   0  0  0  0  0  0  0  0  0  0  0  0
   -2.4822    2.0531    0.2421 C   0  0  1  0  0  0  0  0  0  0  0  0
   -2.5918    2.4326   -0.8084 H   0  0  0  0  0  0  0  0  0  0  0  0
   -2.9548    2.9731    1.2147 O   0  0  0  0  0  0  0  0  0  0  0  0
   -3.5282    4.1036    0.6044 C   0  0  0  0  0  0  0  0  0  0  0  0
   -2.7820    4.6415   -0.0225 H   0  0  0  0  0  0  0  0  0  0  0  0
   -3.8637    4.8004    1.3982 H   0  0  0  0  0  0  0  0  0  0  0  0
   -4.4127    3.8199   -0.0013 H   0  0  0  0  0  0  0  0  0  0  0  0
    1.5224    2.5543    1.9410 C   0  0  0  0  0  0  0  0  0  0  0  0
    2.7660    1.9475    1.7000 C   0  0  0  0  0  0  0  0  0  0  0  0
    3.2563    2.0598    0.7413 H   0  0  0  0  0  0  0  0  0  0  0  0
    3.3992    1.2151    2.7109 C   0  0  0  0  0  0  0  0  0  0  0  0
    4.3628    0.7625    2.5268 H   0  0  0  0  0  0  0  0  0  0  0  0
    2.7943    1.0886    3.9631 C   0  0  0  0  0  0  0  0  0  0  0  0
    3.2892    0.5300    4.7483 H   0  0  0  0  0  0  0  0  0  0  0  0
    1.5600    1.6969    4.2113 C   0  0  0  0  0  0  0  0  0  0  0  0
    1.1057    1.6133    5.1891 H   0  0  0  0  0  0  0  0  0  0  0  0
    0.9308    2.4390    3.2081 C   0  0  0  0  0  0  0  0  0  0  0  0
   -0.0101    2.9306    3.4206 H   0  0  0  0  0  0  0  0  0  0  0  0
  1  2  1  0
  2  3  1  0
  3  4  2  0
  4  5  1  0
  5  6  1  1
  5  7  1  0
  7  8  1  1
  7  9  1  0
  9 10  1  0
 10 11  2  0
 10 12  2  0
 10 13  1  0
 13 14  1  0
 13 15  1  0
 13 16  1  0
  7 17  1  0
 17 18  1  1
 17 19  1  0
 19 20  1  0
 20 21  1  1
 20 22  1  0
 22 23  2  0
 23 24  1  0
 23 25  1  0
 25 26  1  0
 25 27  2  0
 27 28  1  0
 27 29  1  0
 29 30  1  0
 29 31  2  0
 31 32  1  0
 20 33  1  0
 33 34  1  0
 34 35  1  0
 34 36  1  0
 34 37  1  0
 37 38  1  6
 37 39  1  0
 39 40  1  0
 40 41  1  6
 40 42  1  0
 42 43  1  0
 43 44  1  0
 43 45  1  0
 43 46  1  0
  3 47  1  0
 47 48  2  0
 48 49  1  0
 48 50  1  0
 50 51  1  0
 50 52  2  0
 52 53  1  0
 52 54  1  0
 54 55  1  0
 54 56  2  0
 56 57  1  0
 40  5  1  0
 56 47  1  0
 37 17  1  0
 31 22  1  0
M  END
>  <UniqueID>  (433) 
432

>  <SMILES>  (433) 
CO[C@@H]1O[C@@H]2CO[C@@H](c3ccccc3)O[C@H]2[C@@H](OS(C)(=O)=O)[C@H]1/N=C(/O)c1ccccc1

>  <Energy>  (433) 
74.48748427597805

>  <Genealogy>  (433) 
CO[C@@H]1O[C@@H]2CO[C@@H](c3ccccc3)O[C@H]2[C@@H](OS(C)(=O)=O)[C@H]1N=C(O)c1ccccc1 (tautomer)
CO[C@@H]1O[C@@H]2CO[C@@H](c3ccccc3)O[C@H]2[C@@H](OS(C)(=O)=O)[C@H]1/N=C(/O)c1ccccc1 (cis-trans isomerization)
CO[C@@H]1O[C@@H]2CO[C@@H](c3ccccc3)O[C@H]2[C@@H](OS(C)(=O)=O)[C@H]1/N=C(/O)c1ccccc1 (3D coordinates assigned)
CO[C@@H]1O[C@@H]2CO[C@@H](c3ccccc3)O[C@H]2[C@@H](OS(C)(=O)=O)[C@H]1/N=C(/O)c1ccccc1 (nonaromatic ring conformer: 74.48748427597805 kcal/mol)

$$$$
ZINC000307008534
     RDKit          3D

 31 31  0  0  0  0  0  0  0  0999 V2000
   -3.1452   -1.6904   -1.0448 C   0  0  0  0  0  0  0  0  0  0  0  0
   -2.5539   -0.4306   -0.5861 N   0  0  0  0  0  0  0  0  0  0  0  0
   -1.0859   -0.4071   -0.7471 C   0  0  1  0  0  0  0  0  0  0  0  0
   -0.5753    1.0477   -0.6511 C   0  0  1  0  0  0  0  0  0  0  0  0
   -0.9689    1.6365    0.5794 O   0  0  0  0  0  0  0  0  0  0  0  0
   -0.8257    3.0385    0.5146 C   0  0  0  0  0  0  0  0  0  0  0  0
    0.8343    1.1025   -0.8286 O   0  0  0  0  0  0  0  0  0  0  0  0
    1.5220    0.3825    0.1839 C   0  0  2  0  0  0  0  0  0  0  0  0
    3.0271    0.6207    0.0048 C   0  0  0  0  0  0  0  0  0  0  0  0
    3.4516    0.1544   -1.2469 O   0  0  0  0  0  0  0  0  0  0  0  0
    1.1695   -1.1241    0.1198 C   0  0  1  0  0  0  0  0  0  0  0  0
    1.8297   -1.8304    1.1410 O   0  0  0  0  0  0  0  0  0  0  0  0
   -0.3500   -1.3129    0.2708 C   0  0  1  0  0  0  0  0  0  0  0  0
   -0.7524   -1.0028    1.5832 O   0  0  0  0  0  0  0  0  0  0  0  0
   -2.8643   -2.5301   -0.3745 H   0  0  0  0  0  0  0  0  0  0  0  0
   -2.8348   -1.9161   -2.0876 H   0  0  0  0  0  0  0  0  0  0  0  0
   -4.2512   -1.5969   -1.0331 H   0  0  0  0  0  0  0  0  0  0  0  0
   -2.8173   -0.2850    0.4161 H   0  0  0  0  0  0  0  0  0  0  0  0
   -0.8262   -0.7631   -1.7714 H   0  0  0  0  0  0  0  0  0  0  0  0
   -1.0446    1.5897   -1.5060 H   0  0  0  0  0  0  0  0  0  0  0  0
    0.2236    3.3319    0.2900 H   0  0  0  0  0  0  0  0  0  0  0  0
   -1.0872    3.4656    1.5043 H   0  0  0  0  0  0  0  0  0  0  0  0
   -1.5214    3.4767   -0.2345 H   0  0  0  0  0  0  0  0  0  0  0  0
    1.2601    0.7801    1.1915 H   0  0  0  0  0  0  0  0  0  0  0  0
    3.2292    1.7127    0.0815 H   0  0  0  0  0  0  0  0  0  0  0  0
    3.5949    0.1107    0.8147 H   0  0  0  0  0  0  0  0  0  0  0  0
    4.4263    0.3354   -1.2919 H   0  0  0  0  0  0  0  0  0  0  0  0
    1.4613   -1.5267   -0.8807 H   0  0  0  0  0  0  0  0  0  0  0  0
    2.6797   -2.1728    0.7592 H   0  0  0  0  0  0  0  0  0  0  0  0
   -0.5892   -2.3771    0.0399 H   0  0  0  0  0  0  0  0  0  0  0  0
   -0.6160   -1.8195    2.1308 H   0  0  0  0  0  0  0  0  0  0  0  0
  1  2  1  0
  2  3  1  0
  3  4  1  0
  4  5  1  0
  5  6  1  0
  4  7  1  0
  7  8  1  0
  8  9  1  0
  9 10  1  0
  8 11  1  0
 11 12  1  0
 11 13  1  0
 13 14  1  0
 13  3  1  0
  1 15  1  0
  1 16  1  0
  1 17  1  0
  2 18  1  0
  3 19  1  6
  4 20  1  6
  6 21  1  0
  6 22  1  0
  6 23  1  0
  8 24  1  1
  9 25  1  0
  9 26  1  0
 10 27  1  0
 11 28  1  6
 12 29  1  0
 13 30  1  6
 14 31  1  0
M  END
>  <UniqueID>  (434) 
433

>  <SMILES>  (434) 
CN[C@H]1[C@@H](OC)O[C@H](CO)[C@@H](O)[C@H]1O

>  <Energy>  (434) 
32.26776892690935

>  <Genealogy>  (434) 
CN[C@H]1[C@@H](OC)O[C@H](CO)[C@@H](O)[C@H]1O (3D coordinates assigned)
CN[C@H]1[C@@H](OC)O[C@H](CO)[C@@H](O)[C@H]1O (nonaromatic ring conformer: 32.26776892690935 kcal/mol)

$$$$
ZINC000307008534
     RDKit          3D

 32 32  0  0  0  0  0  0  0  0999 V2000
    1.1265   -3.5791   -0.5500 C   0  0  0  0  0  0  0  0  0  0  0  0
    0.0821   -2.6914   -0.0243 N   0  0  0  0  0  4  0  0  0  0  0  0
    0.5898   -1.3358    0.2948 C   0  0  1  0  0  0  0  0  0  0  0  0
    0.9863   -0.5314   -0.9753 C   0  0  1  0  0  0  0  0  0  0  0  0
   -0.0956   -0.4747   -1.8926 O   0  0  0  0  0  0  0  0  0  0  0  0
    0.3691   -0.0982   -3.1702 C   0  0  0  0  0  0  0  0  0  0  0  0
    1.4437    0.7702   -0.6313 O   0  0  0  0  0  0  0  0  0  0  0  0
    0.4372    1.5331    0.0154 C   0  0  2  0  0  0  0  0  0  0  0  0
    0.9597    2.9669    0.2019 C   0  0  0  0  0  0  0  0  0  0  0  0
    2.0739    2.9964    1.0543 O   0  0  0  0  0  0  0  0  0  0  0  0
    0.0477    0.8854    1.3652 C   0  0  1  0  0  0  0  0  0  0  0  0
   -0.9643    1.6290    1.9977 O   0  0  0  0  0  0  0  0  0  0  0  0
   -0.4493   -0.5498    1.1265 C   0  0  1  0  0  0  0  0  0  0  0  0
   -1.6890   -0.5356    0.4604 O   0  0  0  0  0  0  0  0  0  0  0  0
    2.0281   -3.5659    0.1004 H   0  0  0  0  0  0  0  0  0  0  0  0
    0.7451   -4.6226   -0.5862 H   0  0  0  0  0  0  0  0  0  0  0  0
    1.4050   -3.2923   -1.5861 H   0  0  0  0  0  0  0  0  0  0  0  0
   -0.7005   -2.6423   -0.7174 H   0  0  0  0  0  0  0  0  0  0  0  0
   -0.2891   -3.1308    0.8509 H   0  0  0  0  0  0  0  0  0  0  0  0
    1.5017   -1.4307    0.9300 H   0  0  0  0  0  0  0  0  0  0  0  0
    1.8538   -1.0640   -1.4267 H   0  0  0  0  0  0  0  0  0  0  0  0
   -0.5035    0.0007   -3.8478 H   0  0  0  0  0  0  0  0  0  0  0  0
    1.0383   -0.8780   -3.5960 H   0  0  0  0  0  0  0  0  0  0  0  0
    0.8859    0.8866   -3.1432 H   0  0  0  0  0  0  0  0  0  0  0  0
   -0.4667    1.6126   -0.6314 H   0  0  0  0  0  0  0  0  0  0  0  0
    0.1617    3.6072    0.6336 H   0  0  0  0  0  0  0  0  0  0  0  0
    1.2209    3.4016   -0.7903 H   0  0  0  0  0  0  0  0  0  0  0  0
    2.8551    2.7077    0.5142 H   0  0  0  0  0  0  0  0  0  0  0  0
    0.9512    0.8256    2.0195 H   0  0  0  0  0  0  0  0  0  0  0  0
   -0.5177    2.2755    2.6045 H   0  0  0  0  0  0  0  0  0  0  0  0
   -0.5575   -1.0560    2.1156 H   0  0  0  0  0  0  0  0  0  0  0  0
   -2.3905   -0.4161    1.1525 H   0  0  0  0  0  0  0  0  0  0  0  0
  1  2  1  0
  2  3  1  0
  3  4  1  0
  4  5  1  0
  5  6  1  0
  4  7  1  0
  7  8  1  0
  8  9  1  0
  9 10  1  0
  8 11  1  0
 11 12  1  0
 11 13  1  0
 13 14  1  0
 13  3  1  0
  1 15  1  0
  1 16  1  0
  1 17  1  0
  2 18  1  0
  2 19  1  0
  3 20  1  1
  4 21  1  6
  6 22  1  0
  6 23  1  0
  6 24  1  0
  8 25  1  6
  9 26  1  0
  9 27  1  0
 10 28  1  0
 11 29  1  1
 12 30  1  0
 13 31  1  1
 14 32  1  0
M  CHG  1   2   1
M  END
>  <UniqueID>  (435) 
434

>  <SMILES>  (435) 
C[NH2+][C@H]1[C@@H](OC)O[C@H](CO)[C@@H](O)[C@H]1O

>  <Energy>  (435) 
34.05387846417758

>  <Genealogy>  (435) 
C[NH2+][C@H]1[C@@H](OC)O[C@H](CO)[C@@H](O)[C@H]1O (protonated)
C[NH2+][C@H]1[C@@H](OC)O[C@H](CO)[C@@H](O)[C@H]1O (3D coordinates assigned)
C[NH2+][C@H]1[C@@H](OC)O[C@H](CO)[C@@H](O)[C@H]1O (nonaromatic ring conformer: 34.05387846417758 kcal/mol)

$$$$
ZINC000307008534
     RDKit          3D

 32 32  0  0  0  0  0  0  0  0999 V2000
   -0.8165   -2.9684   -0.9427 C   0  0  0  0  0  0  0  0  0  0  0  0
   -0.8364   -1.6870   -0.2266 N   0  0  0  0  0  4  0  0  0  0  0  0
    0.5303   -1.1172   -0.0549 C   0  0  1  0  0  0  0  0  0  0  0  0
    0.8722   -0.0800   -1.1616 C   0  0  1  0  0  0  0  0  0  0  0  0
    0.6856   -0.6569   -2.4433 O   0  0  0  0  0  0  0  0  0  0  0  0
    1.8926   -1.1938   -2.9417 C   0  0  0  0  0  0  0  0  0  0  0  0
    0.0147    1.0486   -1.0722 O   0  0  0  0  0  0  0  0  0  0  0  0
    0.1584    1.7679    0.1479 C   0  0  2  0  0  0  0  0  0  0  0  0
    1.4862    2.5575    0.2124 C   0  0  0  0  0  0  0  0  0  0  0  0
    1.4242    3.5484    1.2035 O   0  0  0  0  0  0  0  0  0  0  0  0
   -0.0981    0.8842    1.3934 C   0  0  1  0  0  0  0  0  0  0  0  0
   -1.4740    0.6093    1.4806 O   0  0  0  0  0  0  0  0  0  0  0  0
    0.7132   -0.4267    1.3169 C   0  0  1  0  0  0  0  0  0  0  0  0
    0.3653   -1.3008    2.3609 O   0  0  0  0  0  0  0  0  0  0  0  0
   -1.8542   -3.3514   -1.0541 H   0  0  0  0  0  0  0  0  0  0  0  0
   -0.3842   -2.8567   -1.9578 H   0  0  0  0  0  0  0  0  0  0  0  0
   -0.2307   -3.7240   -0.3746 H   0  0  0  0  0  0  0  0  0  0  0  0
   -1.4590   -1.0257   -0.7465 H   0  0  0  0  0  0  0  0  0  0  0  0
   -1.2896   -1.8726    0.6971 H   0  0  0  0  0  0  0  0  0  0  0  0
    1.2933   -1.9286   -0.0929 H   0  0  0  0  0  0  0  0  0  0  0  0
    1.9290    0.2554   -1.0272 H   0  0  0  0  0  0  0  0  0  0  0  0
    2.6230   -0.3840   -3.1598 H   0  0  0  0  0  0  0  0  0  0  0  0
    1.6786   -1.7205   -3.8941 H   0  0  0  0  0  0  0  0  0  0  0  0
    2.3325   -1.9349   -2.2390 H   0  0  0  0  0  0  0  0  0  0  0  0
   -0.6448    2.5376    0.1401 H   0  0  0  0  0  0  0  0  0  0  0  0
    1.6948    3.0223   -0.7784 H   0  0  0  0  0  0  0  0  0  0  0  0
    2.3379    1.8896    0.4510 H   0  0  0  0  0  0  0  0  0  0  0  0
    0.8955    4.2988    0.8252 H   0  0  0  0  0  0  0  0  0  0  0  0
    0.2188    1.4496    2.3017 H   0  0  0  0  0  0  0  0  0  0  0  0
   -1.6660    0.3775    2.4267 H   0  0  0  0  0  0  0  0  0  0  0  0
    1.7948   -0.1755    1.4223 H   0  0  0  0  0  0  0  0  0  0  0  0
    0.7127   -0.8991    3.1999 H   0  0  0  0  0  0  0  0  0  0  0  0
  1  2  1  0
  2  3  1  0
  3  4  1  0
  4  5  1  0
  5  6  1  0
  4  7  1  0
  7  8  1  0
  8  9  1  0
  9 10  1  0
  8 11  1  0
 11 12  1  0
 11 13  1  0
 13 14  1  0
 13  3  1  0
  1 15  1  0
  1 16  1  0
  1 17  1  0
  2 18  1  0
  2 19  1  0
  3 20  1  1
  4 21  1  1
  6 22  1  0
  6 23  1  0
  6 24  1  0
  8 25  1  6
  9 26  1  0
  9 27  1  0
 10 28  1  0
 11 29  1  1
 12 30  1  0
 13 31  1  1
 14 32  1  0
M  CHG  1   2   1
M  END
>  <UniqueID>  (436) 
435

>  <SMILES>  (436) 
C[NH2+][C@H]1[C@@H](OC)O[C@H](CO)[C@@H](O)[C@H]1O

>  <Energy>  (436) 
40.42622209823629

>  <Genealogy>  (436) 
C[NH2+][C@H]1[C@@H](OC)O[C@H](CO)[C@@H](O)[C@H]1O (protonated)
C[NH2+][C@H]1[C@@H](OC)O[C@H](CO)[C@@H](O)[C@H]1O (3D coordinates assigned)
C[NH2+][C@H]1[C@@H](OC)O[C@H](CO)[C@@H](O)[C@H]1O (nonaromatic ring conformer: 40.42622209823629 kcal/mol)

$$$$
ZINC000307565252
     RDKit          3D

 40 42  0  0  0  0  0  0  0  0999 V2000
   -1.1675    1.5699   -2.4745 C   0  0  0  0  0  0  0  0  0  0  0  0
   -0.4656    0.4494   -1.9820 O   0  0  0  0  0  0  0  0  0  0  0  0
    0.4991    0.8588   -1.0312 C   0  0  2  0  0  0  0  0  0  0  0  0
    1.6120    1.4191   -1.7105 O   0  0  0  0  0  0  0  0  0  0  0  0
    2.5617    1.9298   -0.7865 C   0  0  2  0  0  0  0  0  0  0  0  0
    3.6524    2.6724   -1.5722 C   0  0  0  0  0  0  0  0  0  0  0  0
    3.0925    3.7305   -2.3034 O   0  0  0  0  0  0  0  0  0  0  0  0
    3.1707    0.7750    0.0505 C   0  0  1  0  0  0  0  0  0  0  0  0
    4.0760    1.2780    1.0020 O   0  0  0  0  0  0  0  0  0  0  0  0
    2.0522   -0.0017    0.7724 C   0  0  1  0  0  0  0  0  0  0  0  0
    1.5016    0.7825    1.8023 O   0  0  0  0  0  0  0  0  0  0  0  0
    0.9589   -0.3840   -0.2416 C   0  0  1  0  0  0  0  0  0  0  0  0
   -0.1606   -1.0763    0.4145 N   0  0  0  0  0  0  0  0  0  0  0  0
   -0.2438   -2.4899    0.6271 C   0  0  0  0  0  0  0  0  0  0  0  0
    0.5265   -3.3329    0.0952 O   0  0  0  0  0  0  0  0  0  0  0  0
   -1.3216   -2.8012    1.5573 C   0  0  0  0  0  0  0  0  0  0  0  0
   -1.7739   -4.0239    2.0507 C   0  0  0  0  0  0  0  0  0  0  0  0
   -2.8439   -4.0119    2.9634 C   0  0  0  0  0  0  0  0  0  0  0  0
   -3.4302   -2.7909    3.3622 C   0  0  0  0  0  0  0  0  0  0  0  0
   -2.9519   -1.5706    2.8521 C   0  0  0  0  0  0  0  0  0  0  0  0
   -1.8932   -1.6103    1.9463 C   0  0  0  0  0  0  0  0  0  0  0  0
   -1.1823   -0.5346    1.2660 C   0  0  0  0  0  0  0  0  0  0  0  0
   -1.4155    0.6936    1.4156 O   0  0  0  0  0  0  0  0  0  0  0  0
   -1.8582    1.2308   -3.2733 H   0  0  0  0  0  0  0  0  0  0  0  0
   -0.4789    2.3209   -2.9220 H   0  0  0  0  0  0  0  0  0  0  0  0
   -1.7831    2.0359   -1.6737 H   0  0  0  0  0  0  0  0  0  0  0  0
    0.0631    1.6043   -0.3233 H   0  0  0  0  0  0  0  0  0  0  0  0
    2.0846    2.6739   -0.1058 H   0  0  0  0  0  0  0  0  0  0  0  0
    4.1898    1.9700   -2.2508 H   0  0  0  0  0  0  0  0  0  0  0  0
    4.3969    3.1004   -0.8685 H   0  0  0  0  0  0  0  0  0  0  0  0
    2.7287    3.3404   -3.1407 H   0  0  0  0  0  0  0  0  0  0  0  0
    3.6870    0.0629   -0.6388 H   0  0  0  0  0  0  0  0  0  0  0  0
    4.9827    1.2281    0.6009 H   0  0  0  0  0  0  0  0  0  0  0  0
    2.4784   -0.9424    1.1957 H   0  0  0  0  0  0  0  0  0  0  0  0
    2.0723    0.6525    2.6040 H   0  0  0  0  0  0  0  0  0  0  0  0
    1.4131   -1.0845   -0.9792 H   0  0  0  0  0  0  0  0  0  0  0  0
   -1.3159   -4.9546    1.7423 H   0  0  0  0  0  0  0  0  0  0  0  0
   -3.2188   -4.9447    3.3639 H   0  0  0  0  0  0  0  0  0  0  0  0
   -4.2518   -2.7936    4.0667 H   0  0  0  0  0  0  0  0  0  0  0  0
   -3.3927   -0.6299    3.1553 H   0  0  0  0  0  0  0  0  0  0  0  0
  1  2  1  0
  2  3  1  0
  3  4  1  0
  4  5  1  0
  5  6  1  0
  6  7  1  0
  5  8  1  0
  8  9  1  0
  8 10  1  0
 10 11  1  0
 10 12  1  0
 12 13  1  0
 13 14  1  0
 14 15  2  0
 14 16  1  0
 16 17  2  0
 17 18  1  0
 18 19  2  0
 19 20  1  0
 20 21  2  0
 21 22  1  0
 22 23  2  0
 12  3  1  0
 22 13  1  0
 21 16  1  0
  1 24  1  0
  1 25  1  0
  1 26  1  0
  3 27  1  1
  5 28  1  1
  6 29  1  0
  6 30  1  0
  7 31  1  0
  8 32  1  6
  9 33  1  0
 10 34  1  1
 11 35  1  0
 12 36  1  6
 17 37  1  0
 18 38  1  0
 19 39  1  0
 20 40  1  0
M  END
>  <UniqueID>  (437) 
436

>  <SMILES>  (437) 
CO[C@@H]1O[C@H](CO)[C@@H](O)[C@@H](O)[C@H]1N1C(=O)c2ccccc2C1=O

>  <Energy>  (437) 
76.3080898034382

>  <Genealogy>  (437) 
CO[C@@H]1O[C@H](CO)[C@@H](O)[C@@H](O)[C@H]1N1C(=O)c2ccccc2C1=O (3D coordinates assigned)
CO[C@@H]1O[C@H](CO)[C@@H](O)[C@@H](O)[C@H]1N1C(=O)c2ccccc2C1=O (nonaromatic ring conformer: 76.3080898034382 kcal/mol)

$$$$
ZINC000307565252
     RDKit          3D

 41 43  0  0  0  0  0  0  0  0999 V2000
   -1.9078   -0.2369    3.4024 C   0  0  0  0  0  0  0  0  0  0  0  0
   -1.2352   -0.9775    2.4074 O   0  0  0  0  0  0  0  0  0  0  0  0
   -1.3379   -0.3207    1.1579 C   0  0  2  0  0  0  0  0  0  0  0  0
   -2.6360   -0.5481    0.6287 O   0  0  0  0  0  0  0  0  0  0  0  0
   -2.8312    0.1830   -0.5716 C   0  0  2  0  0  0  0  0  0  0  0  0
   -4.2946    0.0218   -1.0075 C   0  0  0  0  0  0  0  0  0  0  0  0
   -5.1552    0.5472   -0.0325 O   0  0  0  0  0  0  0  0  0  0  0  0
   -1.8698   -0.3358   -1.6746 C   0  0  1  0  0  0  0  0  0  0  0  0
   -2.0500    0.3414   -2.8954 O   0  0  0  0  0  0  0  0  0  0  0  0
   -0.4048   -0.2342   -1.2017 C   0  0  1  0  0  0  0  0  0  0  0  0
   -0.0202    1.1174   -1.1333 O   0  0  0  0  0  0  0  0  0  0  0  0
   -0.2765   -0.9126    0.1942 C   0  0  1  0  0  0  0  0  0  0  0  0
    1.0995   -0.9019    0.7732 N   0  0  0  0  0  4  0  0  0  0  0  0
    1.6800    0.4121    0.9427 C   0  0  0  0  0  0  0  0  0  0  0  0
    1.2502    1.2633    1.7664 O   0  0  0  0  0  0  0  0  0  0  0  0
    2.8793    0.5937    0.1387 C   0  0  0  0  0  0  0  0  0  0  0  0
    3.7228    1.6938   -0.0103 C   0  0  0  0  0  0  0  0  0  0  0  0
    4.8312    1.5628   -0.8663 C   0  0  0  0  0  0  0  0  0  0  0  0
    5.0705    0.3464   -1.5422 C   0  0  0  0  0  0  0  0  0  0  0  0
    4.2030   -0.7468   -1.3661 C   0  0  0  0  0  0  0  0  0  0  0  0
    3.1118   -0.5834   -0.5139 C   0  0  0  0  0  0  0  0  0  0  0  0
    2.0580   -1.5068   -0.1234 C   0  0  0  0  0  0  0  0  0  0  0  0
    1.9978   -2.7105   -0.4933 O   0  0  0  0  0  0  0  0  0  0  0  0
   -2.9763   -0.0717    3.1389 H   0  0  0  0  0  0  0  0  0  0  0  0
   -1.3983    0.7346    3.5862 H   0  0  0  0  0  0  0  0  0  0  0  0
   -1.8816   -0.8132    4.3498 H   0  0  0  0  0  0  0  0  0  0  0  0
   -1.1512    0.7749    1.2725 H   0  0  0  0  0  0  0  0  0  0  0  0
   -2.6569    1.2708   -0.3964 H   0  0  0  0  0  0  0  0  0  0  0  0
   -4.4679    0.5771   -1.9535 H   0  0  0  0  0  0  0  0  0  0  0  0
   -4.5282   -1.0516   -1.1966 H   0  0  0  0  0  0  0  0  0  0  0  0
   -5.2548   -0.1493    0.6679 H   0  0  0  0  0  0  0  0  0  0  0  0
   -2.0954   -1.4110   -1.8530 H   0  0  0  0  0  0  0  0  0  0  0  0
   -2.0115    1.3164   -2.7138 H   0  0  0  0  0  0  0  0  0  0  0  0
    0.2343   -0.7844   -1.9324 H   0  0  0  0  0  0  0  0  0  0  0  0
    0.3919    1.3499   -2.0061 H   0  0  0  0  0  0  0  0  0  0  0  0
   -0.5615   -1.9822    0.0533 H   0  0  0  0  0  0  0  0  0  0  0  0
    1.1322   -1.4156    1.6844 H   0  0  0  0  0  0  0  0  0  0  0  0
    3.5309    2.6204    0.5146 H   0  0  0  0  0  0  0  0  0  0  0  0
    5.5048    2.3982   -1.0061 H   0  0  0  0  0  0  0  0  0  0  0  0
    5.9265    0.2538   -2.1978 H   0  0  0  0  0  0  0  0  0  0  0  0
    4.3781   -1.6847   -1.8768 H   0  0  0  0  0  0  0  0  0  0  0  0
  1  2  1  0
  2  3  1  0
  3  4  1  0
  4  5  1  0
  5  6  1  0
  6  7  1  0
  5  8  1  0
  8  9  1  0
  8 10  1  0
 10 11  1  0
 10 12  1  0
 12 13  1  0
 13 14  1  0
 14 15  2  0
 14 16  1  0
 16 17  2  0
 17 18  1  0
 18 19  2  0
 19 20  1  0
 20 21  2  0
 21 22  1  0
 22 23  2  0
 12  3  1  0
 22 13  1  0
 21 16  1  0
  1 24  1  0
  1 25  1  0
  1 26  1  0
  3 27  1  1
  5 28  1  1
  6 29  1  0
  6 30  1  0
  7 31  1  0
  8 32  1  6
  9 33  1  0
 10 34  1  6
 11 35  1  0
 12 36  1  6
 13 37  1  0
 17 38  1  0
 18 39  1  0
 19 40  1  0
 20 41  1  0
M  CHG  1  13   1
M  END
>  <UniqueID>  (438) 
437

>  <SMILES>  (438) 
CO[C@@H]1O[C@H](CO)[C@@H](O)[C@@H](O)[C@H]1[NH+]1C(=O)c2ccccc2C1=O

>  <Energy>  (438) 
76.85282061248539

>  <Genealogy>  (438) 
CO[C@@H]1O[C@H](CO)[C@@H](O)[C@@H](O)[C@H]1[NH+]1C(=O)c2ccccc2C1=O (protonated)
CO[C@@H]1O[C@H](CO)[C@@H](O)[C@@H](O)[C@H]1[NH+]1C(=O)c2ccccc2C1=O (3D coordinates assigned)
CO[C@@H]1O[C@H](CO)[C@@H](O)[C@@H](O)[C@H]1[NH+]1C(=O)c2ccccc2C1=O (nonaromatic ring conformer: 76.85282061248539 kcal/mol)

$$$$
ZINC000307565252
     RDKit          3D

 41 43  0  0  0  0  0  0  0  0999 V2000
    2.5525   -0.7737   -2.0551 C   0  0  0  0  0  0  0  0  0  0  0  0
    2.2139    0.0646   -0.9718 O   0  0  0  0  0  0  0  0  0  0  0  0
    1.1773    0.9523   -1.3467 C   0  0  2  0  0  0  0  0  0  0  0  0
    1.7247    1.9917   -2.1439 O   0  0  0  0  0  0  0  0  0  0  0  0
    0.7007    2.8443   -2.6324 C   0  0  2  0  0  0  0  0  0  0  0  0
    1.3187    3.8292   -3.6378 C   0  0  0  0  0  0  0  0  0  0  0  0
    2.2950    4.6329   -3.0294 O   0  0  0  0  0  0  0  0  0  0  0  0
    0.0095    3.5942   -1.4582 C   0  0  1  0  0  0  0  0  0  0  0  0
   -1.0217    4.4400   -1.9066 O   0  0  0  0  0  0  0  0  0  0  0  0
   -0.5107    2.6071   -0.3857 C   0  0  1  0  0  0  0  0  0  0  0  0
   -1.7298    2.0085   -0.7580 O   0  0  0  0  0  0  0  0  0  0  0  0
    0.5740    1.5573   -0.0594 C   0  0  1  0  0  0  0  0  0  0  0  0
    0.0635    0.5275    0.8652 N   0  0  0  0  0  4  0  0  0  0  0  0
    0.2131    0.5448    2.1615 C   0  0  0  0  0  0  0  0  0  0  0  0
    0.9263    1.5305    2.8402 O   0  0  0  0  0  0  0  0  0  0  0  0
   -0.4729   -0.5852    2.7951 C   0  0  0  0  0  0  0  0  0  0  0  0
   -0.5800   -0.9679    4.1319 C   0  0  0  0  0  0  0  0  0  0  0  0
   -1.3318   -2.1198    4.4299 C   0  0  0  0  0  0  0  0  0  0  0  0
   -1.9559   -2.8548    3.3973 C   0  0  0  0  0  0  0  0  0  0  0  0
   -1.8337   -2.4447    2.0574 C   0  0  0  0  0  0  0  0  0  0  0  0
   -1.0808   -1.3025    1.7961 C   0  0  0  0  0  0  0  0  0  0  0  0
   -0.7614   -0.6095    0.5646 C   0  0  0  0  0  0  0  0  0  0  0  0
   -1.1594   -0.9372   -0.5839 O   0  0  0  0  0  0  0  0  0  0  0  0
    1.7131   -1.4604   -2.3024 H   0  0  0  0  0  0  0  0  0  0  0  0
    2.8505   -0.1856   -2.9514 H   0  0  0  0  0  0  0  0  0  0  0  0
    3.4203   -1.3984   -1.7603 H   0  0  0  0  0  0  0  0  0  0  0  0
    0.3850    0.4087   -1.9127 H   0  0  0  0  0  0  0  0  0  0  0  0
   -0.0519    2.2517   -3.2021 H   0  0  0  0  0  0  0  0  0  0  0  0
    1.7597    3.2651   -4.4916 H   0  0  0  0  0  0  0  0  0  0  0  0
    0.5265    4.4855   -4.0563 H   0  0  0  0  0  0  0  0  0  0  0  0
    3.1208    4.0852   -2.9703 H   0  0  0  0  0  0  0  0  0  0  0  0
    0.7742    4.2343   -0.9651 H   0  0  0  0  0  0  0  0  0  0  0  0
   -1.6349    3.9010   -2.4707 H   0  0  0  0  0  0  0  0  0  0  0  0
   -0.7064    3.1893    0.5416 H   0  0  0  0  0  0  0  0  0  0  0  0
   -1.6004    1.5481   -1.6253 H   0  0  0  0  0  0  0  0  0  0  0  0
    1.4096    2.1016    0.4386 H   0  0  0  0  0  0  0  0  0  0  0  0
    1.0142    1.5119    3.8484 H   0  0  0  0  0  0  0  0  0  0  0  0
   -0.1022   -0.3998    4.9189 H   0  0  0  0  0  0  0  0  0  0  0  0
   -1.4336   -2.4437    5.4574 H   0  0  0  0  0  0  0  0  0  0  0  0
   -2.5326   -3.7382    3.6384 H   0  0  0  0  0  0  0  0  0  0  0  0
   -2.3088   -2.9976    1.2577 H   0  0  0  0  0  0  0  0  0  0  0  0
  1  2  1  0
  2  3  1  0
  3  4  1  0
  4  5  1  0
  5  6  1  0
  6  7  1  0
  5  8  1  0
  8  9  1  0
  8 10  1  0
 10 11  1  0
 10 12  1  0
 12 13  1  0
 13 14  2  0
 14 15  1  0
 14 16  1  0
 16 17  2  0
 17 18  1  0
 18 19  2  0
 19 20  1  0
 20 21  2  0
 21 22  1  0
 22 23  2  0
 12  3  1  0
 22 13  1  0
 21 16  1  0
  1 24  1  0
  1 25  1  0
  1 26  1  0
  3 27  1  6
  5 28  1  6
  6 29  1  0
  6 30  1  0
  7 31  1  0
  8 32  1  1
  9 33  1  0
 10 34  1  1
 11 35  1  0
 12 36  1  1
 15 37  1  0
 17 38  1  0
 18 39  1  0
 19 40  1  0
 20 41  1  0
M  CHG  1  13   1
M  END
>  <UniqueID>  (439) 
438

>  <SMILES>  (439) 
CO[C@@H]1O[C@H](CO)[C@@H](O)[C@@H](O)[C@H]1[N+]1=C(O)c2ccccc2C1=O

>  <Energy>  (439) 
82.71589382211133

>  <Genealogy>  (439) 
CO[C@@H]1O[C@H](CO)[C@@H](O)[C@@H](O)[C@H]1[NH+]1C(=O)c2ccccc2C1=O (protonated)
CO[C@@H]1O[C@H](CO)[C@@H](O)[C@@H](O)[C@H]1[N+]1=C(O)c2ccccc2C1=O (tautomer)
CO[C@@H]1O[C@H](CO)[C@@H](O)[C@@H](O)[C@H]1[N+]1=C(O)c2ccccc2C1=O (3D coordinates assigned)
CO[C@@H]1O[C@H](CO)[C@@H](O)[C@@H](O)[C@H]1[N+]1=C(O)c2ccccc2C1=O (nonaromatic ring conformer: 82.71589382211133 kcal/mol)

$$$$
ZINC000383920275
     RDKit          3D

 28 29  0  0  0  0  0  0  0  0999 V2000
    1.7378    1.7286    1.4543 C   0  0  0  0  0  0  0  0  0  0  0  0
    1.6205    1.1378    0.1780 O   0  0  0  0  0  0  0  0  0  0  0  0
    0.7900   -0.0058    0.2471 C   0  0  1  0  0  0  0  0  0  0  0  0
   -0.5622    0.3953    0.3865 O   0  0  0  0  0  0  0  0  0  0  0  0
   -1.4368   -0.6956    0.6691 C   0  0  2  0  0  0  0  0  0  0  0  0
   -1.7221   -0.7528    2.1778 C   0  0  0  0  0  0  0  0  0  0  0  0
   -2.2323    0.4731    2.6284 O   0  0  0  0  0  0  0  0  0  0  0  0
   -0.9651   -2.0810    0.1333 C   0  0  1  0  0  0  0  0  0  0  0  0
   -2.0793   -2.9077   -0.0879 O   0  0  0  0  0  0  0  0  0  0  0  0
   -0.1500   -1.9262   -1.1624 C   0  0  1  0  0  0  0  0  0  0  0  0
   -0.9873   -1.5349   -2.2480 O   0  0  0  0  0  0  0  0  0  0  0  0
   -0.4574   -0.4214   -2.8548 C   0  0  0  0  0  0  0  0  0  0  0  0
   -0.9635    0.1300   -3.8663 O   0  0  0  0  0  0  0  0  0  0  0  0
    0.7063    0.0440   -2.2137 N   0  0  0  0  0  0  0  0  0  0  0  0
    0.9398   -0.8127   -1.0557 C   0  0  1  0  0  0  0  0  0  0  0  0
    2.2674    1.0517    2.1605 H   0  0  0  0  0  0  0  0  0  0  0  0
    0.7450    2.0178    1.8650 H   0  0  0  0  0  0  0  0  0  0  0  0
    2.3428    2.6536    1.3607 H   0  0  0  0  0  0  0  0  0  0  0  0
    1.1088   -0.6585    1.0976 H   0  0  0  0  0  0  0  0  0  0  0  0
   -2.3987   -0.4620    0.1612 H   0  0  0  0  0  0  0  0  0  0  0  0
   -0.7812   -0.9651    2.7285 H   0  0  0  0  0  0  0  0  0  0  0  0
   -2.4409   -1.5734    2.4045 H   0  0  0  0  0  0  0  0  0  0  0  0
   -3.1798    0.5118    2.3343 H   0  0  0  0  0  0  0  0  0  0  0  0
   -0.3025   -2.5579    0.8945 H   0  0  0  0  0  0  0  0  0  0  0  0
   -1.7353   -3.8345   -0.1817 H   0  0  0  0  0  0  0  0  0  0  0  0
    0.3317   -2.8960   -1.4167 H   0  0  0  0  0  0  0  0  0  0  0  0
    1.2700    0.8769   -2.4953 H   0  0  0  0  0  0  0  0  0  0  0  0
    1.9591   -1.2533   -1.1165 H   0  0  0  0  0  0  0  0  0  0  0  0
  1  2  1  0
  2  3  1  0
  3  4  1  0
  4  5  1  0
  5  6  1  0
  6  7  1  0
  5  8  1  0
  8  9  1  0
  8 10  1  0
 10 11  1  0
 11 12  1  0
 12 13  2  0
 12 14  1  0
 14 15  1  0
 15  3  1  0
 15 10  1  0
  1 16  1  0
  1 17  1  0
  1 18  1  0
  3 19  1  1
  5 20  1  6
  6 21  1  0
  6 22  1  0
  7 23  1  0
  8 24  1  1
  9 25  1  0
 10 26  1  6
 14 27  1  0
 15 28  1  6
M  END
>  <UniqueID>  (440) 
439

>  <SMILES>  (440) 
CO[C@H]1O[C@H](CO)[C@@H](O)[C@H]2OC(=O)N[C@@H]12

>  <Energy>  (440) 
49.725709307404266

>  <Genealogy>  (440) 
CO[C@H]1O[C@H](CO)[C@@H](O)[C@H]2OC(=O)N[C@@H]12 (3D coordinates assigned)
CO[C@H]1O[C@H](CO)[C@@H](O)[C@H]2OC(=O)N[C@@H]12 (nonaromatic ring conformer: 49.725709307404266 kcal/mol)

$$$$
ZINC000383920275
     RDKit          3D

 28 29  0  0  0  0  0  0  0  0999 V2000
   -0.7400    3.2812   -0.0735 C   0  0  0  0  0  0  0  0  0  0  0  0
   -1.4911    2.0883   -0.1421 O   0  0  0  0  0  0  0  0  0  0  0  0
   -0.6418    0.9969   -0.4421 C   0  0  1  0  0  0  0  0  0  0  0  0
    0.1221    0.6606    0.7042 O   0  0  0  0  0  0  0  0  0  0  0  0
    1.1399   -0.3007    0.4312 C   0  0  2  0  0  0  0  0  0  0  0  0
    2.4869    0.4121    0.2359 C   0  0  0  0  0  0  0  0  0  0  0  0
    2.7883    1.2075    1.3506 O   0  0  0  0  0  0  0  0  0  0  0  0
    0.8345   -1.2635   -0.7607 C   0  0  1  0  0  0  0  0  0  0  0  0
    1.5445   -2.4723   -0.6445 O   0  0  0  0  0  0  0  0  0  0  0  0
   -0.6768   -1.5161   -0.9171 C   0  0  1  0  0  0  0  0  0  0  0  0
   -1.1907   -2.2951    0.1514 O   0  0  0  0  0  0  0  0  0  0  0  0
   -2.2634   -1.6347    0.7113 C   0  0  0  0  0  0  0  0  0  0  0  0
   -3.0284   -2.1630    1.7431 O   0  0  0  0  0  0  0  0  0  0  0  0
   -2.5020   -0.4808    0.1966 N   0  0  0  0  0  0  0  0  0  0  0  0
   -1.5100   -0.2109   -0.8410 C   0  0  1  0  0  0  0  0  0  0  0  0
    0.0639    3.2160    0.6930 H   0  0  0  0  0  0  0  0  0  0  0  0
   -1.4174    4.1082    0.2223 H   0  0  0  0  0  0  0  0  0  0  0  0
   -0.3093    3.5393   -1.0661 H   0  0  0  0  0  0  0  0  0  0  0  0
    0.0182    1.2515   -1.3083 H   0  0  0  0  0  0  0  0  0  0  0  0
    1.2293   -0.9231    1.3482 H   0  0  0  0  0  0  0  0  0  0  0  0
    3.2973   -0.3336    0.0669 H   0  0  0  0  0  0  0  0  0  0  0  0
    2.4373    1.0672   -0.6596 H   0  0  0  0  0  0  0  0  0  0  0  0
    3.0897    0.5900    2.0672 H   0  0  0  0  0  0  0  0  0  0  0  0
    1.1721   -0.7801   -1.7044 H   0  0  0  0  0  0  0  0  0  0  0  0
    1.2582   -2.9158    0.1957 H   0  0  0  0  0  0  0  0  0  0  0  0
   -0.8758   -2.0425   -1.8766 H   0  0  0  0  0  0  0  0  0  0  0  0
   -2.8121   -3.0752    2.1255 H   0  0  0  0  0  0  0  0  0  0  0  0
   -2.0234   -0.0113   -1.8071 H   0  0  0  0  0  0  0  0  0  0  0  0
  1  2  1  0
  2  3  1  0
  3  4  1  0
  4  5  1  0
  5  6  1  0
  6  7  1  0
  5  8  1  0
  8  9  1  0
  8 10  1  0
 10 11  1  0
 11 12  1  0
 12 13  1  0
 12 14  2  0
 14 15  1  0
 15  3  1  0
 15 10  1  0
  1 16  1  0
  1 17  1  0
  1 18  1  0
  3 19  1  6
  5 20  1  1
  6 21  1  0
  6 22  1  0
  7 23  1  0
  8 24  1  6
  9 25  1  0
 10 26  1  6
 13 27  1  0
 15 28  1  6
M  END
>  <UniqueID>  (441) 
440

>  <SMILES>  (441) 
CO[C@H]1O[C@H](CO)[C@@H](O)[C@H]2OC(O)=N[C@@H]12

>  <Energy>  (441) 
50.08737172451642

>  <Genealogy>  (441) 
CO[C@H]1O[C@H](CO)[C@@H](O)[C@H]2OC(O)=N[C@@H]12 (tautomer)
CO[C@H]1O[C@H](CO)[C@@H](O)[C@H]2OC(O)=N[C@@H]12 (3D coordinates assigned)
CO[C@H]1O[C@H](CO)[C@@H](O)[C@H]2OC(O)=N[C@@H]12 (nonaromatic ring conformer: 50.08737172451642 kcal/mol)

$$$$
ZINC000383920275
     RDKit          3D

 28 29  0  0  0  0  0  0  0  0999 V2000
    0.8490    2.4264    0.3636 C   0  0  0  0  0  0  0  0  0  0  0  0
    0.4906    1.3291   -0.4480 O   0  0  0  0  0  0  0  0  0  0  0  0
    0.9501    0.1156    0.1335 C   0  0  1  0  0  0  0  0  0  0  0  0
    0.1953   -0.2160    1.2875 O   0  0  0  0  0  0  0  0  0  0  0  0
   -1.1672   -0.4264    0.9616 C   0  0  2  0  0  0  0  0  0  0  0  0
   -1.9817   -0.4262    2.2625 C   0  0  0  0  0  0  0  0  0  0  0  0
   -1.5349   -1.4383    3.1231 O   0  0  0  0  0  0  0  0  0  0  0  0
   -1.3102   -1.7515    0.1957 C   0  0  1  0  0  0  0  0  0  0  0  0
   -2.6471   -1.9624   -0.1856 O   0  0  0  0  0  0  0  0  0  0  0  0
   -0.4177   -1.7629   -1.0549 C   0  0  1  0  0  0  0  0  0  0  0  0
   -1.0294   -1.1516   -2.1865 O   0  0  0  0  0  0  0  0  0  0  0  0
   -0.0515   -0.4993   -2.9047 C   0  0  0  0  0  0  0  0  0  0  0  0
   -0.2551    0.0620   -4.0123 O   0  0  0  0  0  0  0  0  0  0  0  0
    1.1948   -0.4899   -2.2404 N   0  0  0  0  0  0  0  0  0  0  0  0
    0.9533   -1.0378   -0.9093 C   0  0  1  0  0  0  0  0  0  0  0  0
    1.9539    2.5464    0.4073 H   0  0  0  0  0  0  0  0  0  0  0  0
    0.4297    3.3493   -0.0865 H   0  0  0  0  0  0  0  0  0  0  0  0
    0.4265    2.3318    1.3883 H   0  0  0  0  0  0  0  0  0  0  0  0
    2.0143    0.2279    0.4484 H   0  0  0  0  0  0  0  0  0  0  0  0
   -1.5765    0.4022    0.3381 H   0  0  0  0  0  0  0  0  0  0  0  0
   -1.8610    0.5625    2.7597 H   0  0  0  0  0  0  0  0  0  0  0  0
   -3.0625   -0.5663    2.0376 H   0  0  0  0  0  0  0  0  0  0  0  0
   -2.1037   -1.3808    3.9342 H   0  0  0  0  0  0  0  0  0  0  0  0
   -0.9574   -2.5821    0.8541 H   0  0  0  0  0  0  0  0  0  0  0  0
   -3.0733   -2.5079    0.5260 H   0  0  0  0  0  0  0  0  0  0  0  0
   -0.2198   -2.8256   -1.3236 H   0  0  0  0  0  0  0  0  0  0  0  0
    2.0424    0.0404   -2.5424 H   0  0  0  0  0  0  0  0  0  0  0  0
    1.7444   -1.7767   -0.6527 H   0  0  0  0  0  0  0  0  0  0  0  0
  1  2  1  0
  2  3  1  0
  3  4  1  0
  4  5  1  0
  5  6  1  0
  6  7  1  0
  5  8  1  0
  8  9  1  0
  8 10  1  0
 10 11  1  0
 11 12  1  0
 12 13  2  0
 12 14  1  0
 14 15  1  0
 15  3  1  0
 15 10  1  0
  1 16  1  0
  1 17  1  0
  1 18  1  0
  3 19  1  1
  5 20  1  6
  6 21  1  0
  6 22  1  0
  7 23  1  0
  8 24  1  1
  9 25  1  0
 10 26  1  6
 14 27  1  0
 15 28  1  1
M  END
>  <UniqueID>  (442) 
441

>  <SMILES>  (442) 
CO[C@H]1O[C@H](CO)[C@@H](O)[C@H]2OC(=O)N[C@@H]12

>  <Energy>  (442) 
51.267067238586385

>  <Genealogy>  (442) 
CO[C@H]1O[C@H](CO)[C@@H](O)[C@H]2OC(=O)N[C@@H]12 (3D coordinates assigned)
CO[C@H]1O[C@H](CO)[C@@H](O)[C@H]2OC(=O)N[C@@H]12 (nonaromatic ring conformer: 51.267067238586385 kcal/mol)

$$$$
ZINC000394934764
     RDKit          3D

 28 28  0  0  0  0  0  0  0  0999 V2000
    0.2645   -4.2413   -0.1373 H   0  0  0  0  0  0  0  0  0  0  0  0
    1.1742   -3.9576    0.1414 O   0  0  0  0  0  0  0  0  0  0  0  0
    1.0708   -3.5053    1.4652 C   0  0  0  0  0  0  0  0  0  0  0  0
    2.0785   -3.5703    1.9269 H   0  0  0  0  0  0  0  0  0  0  0  0
    0.3855   -4.1618    2.0500 H   0  0  0  0  0  0  0  0  0  0  0  0
    0.5767   -2.0514    1.4960 C   0  0  1  0  0  0  0  0  0  0  0  0
    1.3173   -1.4464    0.9234 H   0  0  0  0  0  0  0  0  0  0  0  0
   -0.6995   -2.0005    0.8751 O   0  0  0  0  0  0  0  0  0  0  0  0
   -1.1782   -0.6673    0.7561 C   0  0  2  0  0  0  0  0  0  0  0  0
   -2.1981   -0.7163    0.3071 H   0  0  0  0  0  0  0  0  0  0  0  0
   -0.3213    0.1257   -0.0515 O   0  0  0  0  0  0  0  0  0  0  0  0
   -0.4406   -0.2555   -1.4045 C   0  0  0  0  0  0  0  0  0  0  0  0
   -0.1880   -1.3291   -1.5503 H   0  0  0  0  0  0  0  0  0  0  0  0
    0.2780    0.3407   -2.0033 H   0  0  0  0  0  0  0  0  0  0  0  0
   -1.4606   -0.0392   -1.7917 H   0  0  0  0  0  0  0  0  0  0  0  0
   -1.3576   -0.0240    2.1500 C   0  0  2  0  0  0  0  0  0  0  0  0
   -2.1315   -0.6018    2.7052 H   0  0  0  0  0  0  0  0  0  0  0  0
   -1.8078    1.3613    2.0350 N   0  0  0  0  0  0  0  0  0  0  0  0
   -2.8989    1.6376    1.5351 N   0  0  0  0  0  4  0  0  0  0  0  0
   -3.9884    1.9135    1.0354 N   0  0  0  0  0  2  0  0  0  0  0  0
   -0.0485   -0.0900    2.9578 C   0  0  2  0  0  0  0  0  0  0  0  0
   -0.2619    0.1919    4.0166 H   0  0  0  0  0  0  0  0  0  0  0  0
    0.9154    0.7815    2.4170 O   0  0  0  0  0  0  0  0  0  0  0  0
    0.7439    1.6805    2.8016 H   0  0  0  0  0  0  0  0  0  0  0  0
    0.4921   -1.5276    2.9503 C   0  0  2  0  0  0  0  0  0  0  0  0
   -0.2231   -2.1658    3.5251 H   0  0  0  0  0  0  0  0  0  0  0  0
    1.7613   -1.5432    3.5562 O   0  0  0  0  0  0  0  0  0  0  0  0
    1.8341   -2.3925    4.0650 H   0  0  0  0  0  0  0  0  0  0  0  0
  1  2  1  0
  2  3  1  0
  3  4  1  0
  3  5  1  0
  3  6  1  0
  6  7  1  6
  6  8  1  0
  8  9  1  0
  9 10  1  6
  9 11  1  0
 11 12  1  0
 12 13  1  0
 12 14  1  0
 12 15  1  0
  9 16  1  0
 16 17  1  1
 16 18  1  0
 18 19  2  0
 19 20  2  0
 16 21  1  0
 21 22  1  1
 21 23  1  0
 23 24  1  0
 21 25  1  0
 25 26  1  1
 25 27  1  0
 27 28  1  0
 25  6  1  0
M  CHG  2  19   1  20  -1
M  END
>  <UniqueID>  (443) 
442

>  <SMILES>  (443) 
CO[C@H]1O[C@H](CO)[C@@H](O)[C@@H](O)[C@H]1N=[N+]=[N-]

>  <Energy>  (443) 
27.191014068278896

>  <Genealogy>  (443) 
CO[C@H]1O[C@H](CO)[C@@H](O)[C@@H](O)[C@H]1N=[N+]=[N-] (cis-trans isomerization)
CO[C@H]1O[C@H](CO)[C@@H](O)[C@@H](O)[C@H]1N=[N+]=[N-] (3D coordinates assigned)
CO[C@H]1O[C@H](CO)[C@@H](O)[C@@H](O)[C@H]1N=[N+]=[N-] (nonaromatic ring conformer: 27.191014068278896 kcal/mol)

$$$$
ZINC000394934764
     RDKit          3D

 28 28  0  0  0  0  0  0  0  0999 V2000
    0.5751   -4.7071    1.1759 H   0  0  0  0  0  0  0  0  0  0  0  0
    0.3575   -3.7638    1.3941 O   0  0  0  0  0  0  0  0  0  0  0  0
    1.5532   -3.0468    1.2616 C   0  0  0  0  0  0  0  0  0  0  0  0
    1.9611   -3.1768    0.2342 H   0  0  0  0  0  0  0  0  0  0  0  0
    2.2982   -3.4552    1.9816 H   0  0  0  0  0  0  0  0  0  0  0  0
    1.3605   -1.5391    1.5454 C   0  0  1  0  0  0  0  0  0  0  0  0
    2.3925   -1.1710    1.7399 H   0  0  0  0  0  0  0  0  0  0  0  0
    0.9141   -0.8138    0.4049 O   0  0  0  0  0  0  0  0  0  0  0  0
   -0.4646   -0.9963    0.1280 C   0  0  2  0  0  0  0  0  0  0  0  0
   -0.6733   -2.0847    0.0013 H   0  0  0  0  0  0  0  0  0  0  0  0
   -0.7615   -0.2739   -1.0569 O   0  0  0  0  0  0  0  0  0  0  0  0
   -1.7087   -0.9593   -1.8480 C   0  0  0  0  0  0  0  0  0  0  0  0
   -2.6394   -1.1740   -1.2783 H   0  0  0  0  0  0  0  0  0  0  0  0
   -1.2755   -1.9006   -2.2521 H   0  0  0  0  0  0  0  0  0  0  0  0
   -1.9820   -0.3165   -2.7097 H   0  0  0  0  0  0  0  0  0  0  0  0
   -1.3256   -0.4467    1.2820 C   0  0  2  0  0  0  0  0  0  0  0  0
   -2.3959   -0.6386    1.0455 H   0  0  0  0  0  0  0  0  0  0  0  0
   -1.1236    0.9971    1.4029 N   0  0  0  0  0  0  0  0  0  0  0  0
   -1.8701    1.6951    2.0902 N   0  0  0  0  0  4  0  0  0  0  0  0
   -2.6154    2.3929    2.7761 N   0  0  0  0  0  2  0  0  0  0  0  0
   -0.9715   -1.1926    2.5867 C   0  0  2  0  0  0  0  0  0  0  0  0
   -1.3148   -2.2472    2.4787 H   0  0  0  0  0  0  0  0  0  0  0  0
   -1.6286   -0.6275    3.6926 O   0  0  0  0  0  0  0  0  0  0  0  0
   -2.5920   -0.8494    3.5989 H   0  0  0  0  0  0  0  0  0  0  0  0
    0.5508   -1.2181    2.8364 C   0  0  2  0  0  0  0  0  0  0  0  0
    0.7550   -2.0169    3.5830 H   0  0  0  0  0  0  0  0  0  0  0  0
    0.9830   -0.0101    3.4184 O   0  0  0  0  0  0  0  0  0  0  0  0
    1.0402    0.6765    2.7054 H   0  0  0  0  0  0  0  0  0  0  0  0
  1  2  1  0
  2  3  1  0
  3  4  1  0
  3  5  1  0
  3  6  1  0
  6  7  1  1
  6  8  1  0
  8  9  1  0
  9 10  1  6
  9 11  1  0
 11 12  1  0
 12 13  1  0
 12 14  1  0
 12 15  1  0
  9 16  1  0
 16 17  1  6
 16 18  1  0
 18 19  2  0
 19 20  2  0
 16 21  1  0
 21 22  1  6
 21 23  1  0
 23 24  1  0
 21 25  1  0
 25 26  1  1
 25 27  1  0
 27 28  1  0
 25  6  1  0
M  CHG  2  19   1  20  -1
M  END
>  <UniqueID>  (444) 
443

>  <SMILES>  (444) 
CO[C@H]1O[C@H](CO)[C@@H](O)[C@@H](O)[C@H]1N=[N+]=[N-]

>  <Energy>  (444) 
35.73666847641586

>  <Genealogy>  (444) 
CO[C@H]1O[C@H](CO)[C@@H](O)[C@@H](O)[C@H]1N=[N+]=[N-] (cis-trans isomerization)
CO[C@H]1O[C@H](CO)[C@@H](O)[C@@H](O)[C@H]1N=[N+]=[N-] (3D coordinates assigned)
CO[C@H]1O[C@H](CO)[C@@H](O)[C@@H](O)[C@H]1N=[N+]=[N-] (nonaromatic ring conformer: 35.73666847641586 kcal/mol)

$$$$
ZINC000394934764
     RDKit          3D

 28 28  0  0  0  0  0  0  0  0999 V2000
    3.3091   -1.6196    1.3084 H   0  0  0  0  0  0  0  0  0  0  0  0
    2.8840   -2.4310    1.6913 O   0  0  0  0  0  0  0  0  0  0  0  0
    1.7540   -2.7008    0.9055 C   0  0  0  0  0  0  0  0  0  0  0  0
    1.4166   -3.7401    1.1068 H   0  0  0  0  0  0  0  0  0  0  0  0
    2.0171   -2.6400   -0.1753 H   0  0  0  0  0  0  0  0  0  0  0  0
    0.6189   -1.7151    1.2178 C   0  0  1  0  0  0  0  0  0  0  0  0
    1.0071   -0.6931    0.9904 H   0  0  0  0  0  0  0  0  0  0  0  0
   -0.4815   -2.0111    0.3765 O   0  0  0  0  0  0  0  0  0  0  0  0
   -1.4313   -0.9467    0.3678 C   0  0  2  0  0  0  0  0  0  0  0  0
   -2.3938   -1.3777    0.0036 H   0  0  0  0  0  0  0  0  0  0  0  0
   -1.0023    0.0907   -0.4998 O   0  0  0  0  0  0  0  0  0  0  0  0
   -1.1026   -0.3219   -1.8454 C   0  0  0  0  0  0  0  0  0  0  0  0
   -2.1622   -0.5055   -2.1297 H   0  0  0  0  0  0  0  0  0  0  0  0
   -0.7196    0.4930   -2.4932 H   0  0  0  0  0  0  0  0  0  0  0  0
   -0.4838   -1.2248   -2.0430 H   0  0  0  0  0  0  0  0  0  0  0  0
   -1.7438   -0.3910    1.7973 C   0  0  2  0  0  0  0  0  0  0  0  0
   -2.8419   -0.2319    1.8997 H   0  0  0  0  0  0  0  0  0  0  0  0
   -1.0627    0.8818    2.0426 N   0  0  0  0  0  0  0  0  0  0  0  0
   -1.4923    1.9363    1.5731 N   0  0  0  0  0  4  0  0  0  0  0  0
   -1.9211    2.9893    1.1041 N   0  0  0  0  0  2  0  0  0  0  0  0
   -1.3117   -1.4304    2.8530 C   0  0  2  0  0  0  0  0  0  0  0  0
   -1.8960   -2.3555    2.6468 H   0  0  0  0  0  0  0  0  0  0  0  0
   -1.6426   -1.0327    4.1626 O   0  0  0  0  0  0  0  0  0  0  0  0
   -1.2221   -0.1519    4.3380 H   0  0  0  0  0  0  0  0  0  0  0  0
    0.1887   -1.7955    2.7073 C   0  0  2  0  0  0  0  0  0  0  0  0
    0.3162   -2.8429    3.0743 H   0  0  0  0  0  0  0  0  0  0  0  0
    0.9958   -0.9248    3.4611 O   0  0  0  0  0  0  0  0  0  0  0  0
    1.0392   -1.2918    4.3827 H   0  0  0  0  0  0  0  0  0  0  0  0
  1  2  1  0
  2  3  1  0
  3  4  1  0
  3  5  1  0
  3  6  1  0
  6  7  1  6
  6  8  1  0
  8  9  1  0
  9 10  1  6
  9 11  1  0
 11 12  1  0
 12 13  1  0
 12 14  1  0
 12 15  1  0
  9 16  1  0
 16 17  1  6
 16 18  1  0
 18 19  2  0
 19 20  2  0
 16 21  1  0
 21 22  1  6
 21 23  1  0
 23 24  1  0
 21 25  1  0
 25 26  1  1
 25 27  1  0
 27 28  1  0
 25  6  1  0
M  CHG  2  19   1  20  -1
M  END
>  <UniqueID>  (445) 
444

>  <SMILES>  (445) 
CO[C@H]1O[C@H](CO)[C@@H](O)[C@@H](O)[C@H]1N=[N+]=[N-]

>  <Energy>  (445) 
37.77723727086177

>  <Genealogy>  (445) 
CO[C@H]1O[C@H](CO)[C@@H](O)[C@@H](O)[C@H]1N=[N+]=[N-] (cis-trans isomerization)
CO[C@H]1O[C@H](CO)[C@@H](O)[C@@H](O)[C@H]1N=[N+]=[N-] (3D coordinates assigned)
CO[C@H]1O[C@H](CO)[C@@H](O)[C@@H](O)[C@H]1N=[N+]=[N-] (nonaromatic ring conformer: 37.77723727086177 kcal/mol)

$$$$
ZINC000396869768
     RDKit          3D

 34 34  0  0  0  0  0  0  0  0999 V2000
   -0.3794   -0.7261    3.7294 C   0  0  0  0  0  0  0  0  0  0  0  0
   -0.2895   -0.4410    2.3520 O   0  0  0  0  0  0  0  0  0  0  0  0
    0.4368   -1.4674    1.7068 C   0  0  0  0  0  0  0  0  0  0  0  0
    0.5907   -1.1432    0.2144 C   0  0  1  0  0  0  0  0  0  0  0  0
   -0.7015   -1.0330   -0.3578 O   0  0  0  0  0  0  0  0  0  0  0  0
   -0.6169   -0.9047   -1.7671 C   0  0  1  0  0  0  0  0  0  0  0  0
   -1.9161   -0.9036   -2.2942 O   0  0  0  0  0  0  0  0  0  0  0  0
    0.0838    0.4193   -2.1440 C   0  0  2  0  0  0  0  0  0  0  0  0
    0.1844    0.5513   -3.6001 N   0  0  0  0  0  0  0  0  0  0  0  0
    1.4888    0.4715   -1.5074 C   0  0  2  0  0  0  0  0  0  0  0  0
    2.3265   -0.4922   -2.1339 O   0  0  0  0  0  0  0  0  0  0  0  0
    3.5064    0.1063   -2.6223 C   0  0  0  0  0  0  0  0  0  0  0  0
    1.3891    0.1661    0.0017 C   0  0  2  0  0  0  0  0  0  0  0  0
    2.6909    0.0136    0.5465 O   0  0  0  0  0  0  0  0  0  0  0  0
    3.1209    1.2122    1.1531 C   0  0  0  0  0  0  0  0  0  0  0  0
   -0.9057   -1.6900    3.9096 H   0  0  0  0  0  0  0  0  0  0  0  0
   -0.9706    0.0752    4.2181 H   0  0  0  0  0  0  0  0  0  0  0  0
    0.6273   -0.7374    4.2034 H   0  0  0  0  0  0  0  0  0  0  0  0
    1.4488   -1.5880    2.1580 H   0  0  0  0  0  0  0  0  0  0  0  0
   -0.1050   -2.4371    1.7944 H   0  0  0  0  0  0  0  0  0  0  0  0
    1.1453   -1.9971   -0.2419 H   0  0  0  0  0  0  0  0  0  0  0  0
   -0.0570   -1.7642   -2.2102 H   0  0  0  0  0  0  0  0  0  0  0  0
   -2.2885   -1.8083   -2.1255 H   0  0  0  0  0  0  0  0  0  0  0  0
   -0.5201    1.2664   -1.7422 H   0  0  0  0  0  0  0  0  0  0  0  0
   -0.7805    0.6341   -3.9948 H   0  0  0  0  0  0  0  0  0  0  0  0
    0.6559    1.4599   -3.8160 H   0  0  0  0  0  0  0  0  0  0  0  0
    1.8570    1.5221   -1.6165 H   0  0  0  0  0  0  0  0  0  0  0  0
    3.2736    0.8502   -3.4159 H   0  0  0  0  0  0  0  0  0  0  0  0
    4.1437   -0.6818   -3.0727 H   0  0  0  0  0  0  0  0  0  0  0  0
    4.0850    0.5824   -1.8000 H   0  0  0  0  0  0  0  0  0  0  0  0
    0.8075    0.9914    0.4842 H   0  0  0  0  0  0  0  0  0  0  0  0
    2.5039    1.4422    2.0496 H   0  0  0  0  0  0  0  0  0  0  0  0
    3.0983    2.0621    0.4358 H   0  0  0  0  0  0  0  0  0  0  0  0
    4.1699    1.0823    1.4890 H   0  0  0  0  0  0  0  0  0  0  0  0
  1  2  1  0
  2  3  1  0
  3  4  1  0
  4  5  1  0
  5  6  1  0
  6  7  1  0
  6  8  1  0
  8  9  1  0
  8 10  1  0
 10 11  1  0
 11 12  1  0
 10 13  1  0
 13 14  1  0
 14 15  1  0
 13  4  1  0
  1 16  1  0
  1 17  1  0
  1 18  1  0
  3 19  1  0
  3 20  1  0
  4 21  1  6
  6 22  1  6
  7 23  1  0
  8 24  1  1
  9 25  1  0
  9 26  1  0
 10 27  1  1
 12 28  1  0
 12 29  1  0
 12 30  1  0
 13 31  1  1
 15 32  1  0
 15 33  1  0
 15 34  1  0
M  END
>  <UniqueID>  (446) 
445

>  <SMILES>  (446) 
COC[C@H]1O[C@@H](O)[C@H](N)[C@H](OC)[C@@H]1OC

>  <Energy>  (446) 
34.8621713609477

>  <Genealogy>  (446) 
COC[C@H]1O[C@@H](O)[C@H](N)[C@H](OC)[C@@H]1OC (3D coordinates assigned)
COC[C@H]1O[C@@H](O)[C@H](N)[C@H](OC)[C@@H]1OC (nonaromatic ring conformer: 34.8621713609477 kcal/mol)

$$$$
ZINC000396869768
     RDKit          3D

 35 35  0  0  0  0  0  0  0  0999 V2000
    2.4569    2.9674    2.6138 C   0  0  0  0  0  0  0  0  0  0  0  0
    3.0303    2.1443    1.6218 O   0  0  0  0  0  0  0  0  0  0  0  0
    2.3957    0.8785    1.5998 C   0  0  0  0  0  0  0  0  0  0  0  0
    1.3089    0.8428    0.5126 C   0  0  1  0  0  0  0  0  0  0  0  0
    1.9060    1.1855   -0.7274 O   0  0  0  0  0  0  0  0  0  0  0  0
    0.9258    1.3194   -1.7406 C   0  0  1  0  0  0  0  0  0  0  0  0
    1.5701    1.7616   -2.9071 O   0  0  0  0  0  0  0  0  0  0  0  0
    0.2502   -0.0484   -2.0070 C   0  0  2  0  0  0  0  0  0  0  0  0
   -0.7535    0.0470   -3.0766 N   0  0  0  0  0  4  0  0  0  0  0  0
   -0.3818   -0.5873   -0.7037 C   0  0  2  0  0  0  0  0  0  0  0  0
   -1.4904    0.2261   -0.3401 O   0  0  0  0  0  0  0  0  0  0  0  0
   -2.6542   -0.5526   -0.1721 C   0  0  0  0  0  0  0  0  0  0  0  0
    0.6661   -0.5625    0.4293 C   0  0  2  0  0  0  0  0  0  0  0  0
    0.0395   -0.8632    1.6671 O   0  0  0  0  0  0  0  0  0  0  0  0
    0.1837   -2.2311    1.9795 C   0  0  0  0  0  0  0  0  0  0  0  0
    2.9124    3.9763    2.5432 H   0  0  0  0  0  0  0  0  0  0  0  0
    1.3602    3.0820    2.4680 H   0  0  0  0  0  0  0  0  0  0  0  0
    2.6736    2.5696    3.6296 H   0  0  0  0  0  0  0  0  0  0  0  0
    1.9743    0.5799    2.5897 H   0  0  0  0  0  0  0  0  0  0  0  0
    3.1691    0.1193    1.3540 H   0  0  0  0  0  0  0  0  0  0  0  0
    0.5316    1.5911    0.7926 H   0  0  0  0  0  0  0  0  0  0  0  0
    0.1604    2.0751   -1.4314 H   0  0  0  0  0  0  0  0  0  0  0  0
    0.9136    2.3010   -3.4209 H   0  0  0  0  0  0  0  0  0  0  0  0
    1.0402   -0.7660   -2.3292 H   0  0  0  0  0  0  0  0  0  0  0  0
   -0.2844    0.2538   -3.9878 H   0  0  0  0  0  0  0  0  0  0  0  0
   -1.2558   -0.8651   -3.1763 H   0  0  0  0  0  0  0  0  0  0  0  0
   -1.4480    0.8014   -2.8701 H   0  0  0  0  0  0  0  0  0  0  0  0
   -0.6533   -1.6559   -0.8910 H   0  0  0  0  0  0  0  0  0  0  0  0
   -2.5144   -1.3158    0.6250 H   0  0  0  0  0  0  0  0  0  0  0  0
   -3.4848    0.1135    0.1385 H   0  0  0  0  0  0  0  0  0  0  0  0
   -2.9474   -1.0380   -1.1290 H   0  0  0  0  0  0  0  0  0  0  0  0
    1.4831   -1.2818    0.1689 H   0  0  0  0  0  0  0  0  0  0  0  0
    1.2498   -2.4789    2.1776 H   0  0  0  0  0  0  0  0  0  0  0  0
   -0.3903   -2.4453    2.9040 H   0  0  0  0  0  0  0  0  0  0  0  0
   -0.2230   -2.8789    1.1719 H   0  0  0  0  0  0  0  0  0  0  0  0
  1  2  1  0
  2  3  1  0
  3  4  1  0
  4  5  1  0
  5  6  1  0
  6  7  1  0
  6  8  1  0
  8  9  1  0
  8 10  1  0
 10 11  1  0
 11 12  1  0
 10 13  1  0
 13 14  1  0
 14 15  1  0
 13  4  1  0
  1 16  1  0
  1 17  1  0
  1 18  1  0
  3 19  1  0
  3 20  1  0
  4 21  1  1
  6 22  1  1
  7 23  1  0
  8 24  1  6
  9 25  1  0
  9 26  1  0
  9 27  1  0
 10 28  1  6
 12 29  1  0
 12 30  1  0
 12 31  1  0
 13 32  1  6
 15 33  1  0
 15 34  1  0
 15 35  1  0
M  CHG  1   9   1
M  END
>  <UniqueID>  (447) 
446

>  <SMILES>  (447) 
COC[C@H]1O[C@@H](O)[C@H]([NH3+])[C@H](OC)[C@@H]1OC

>  <Energy>  (447) 
38.454659270038555

>  <Genealogy>  (447) 
COC[C@H]1O[C@@H](O)[C@H]([NH3+])[C@H](OC)[C@@H]1OC (protonated)
COC[C@H]1O[C@@H](O)[C@H]([NH3+])[C@H](OC)[C@@H]1OC (3D coordinates assigned)
COC[C@H]1O[C@@H](O)[C@H]([NH3+])[C@H](OC)[C@@H]1OC (nonaromatic ring conformer: 38.454659270038555 kcal/mol)

$$$$
ZINC000396869768
     RDKit          3D

 34 34  0  0  0  0  0  0  0  0999 V2000
   -0.1803    0.4415    3.5329 C   0  0  0  0  0  0  0  0  0  0  0  0
   -0.0520    0.2504    2.1424 O   0  0  0  0  0  0  0  0  0  0  0  0
    0.2247   -1.1101    1.8799 C   0  0  0  0  0  0  0  0  0  0  0  0
    0.4065   -1.3206    0.3717 C   0  0  1  0  0  0  0  0  0  0  0  0
   -0.8070   -0.9663   -0.2778 O   0  0  0  0  0  0  0  0  0  0  0  0
   -0.6473   -1.0239   -1.6825 C   0  0  1  0  0  0  0  0  0  0  0  0
   -1.9089   -0.9670   -2.2911 O   0  0  0  0  0  0  0  0  0  0  0  0
    0.2028    0.1798   -2.1615 C   0  0  2  0  0  0  0  0  0  0  0  0
    0.9071   -0.1357   -3.4096 N   0  0  0  0  0  0  0  0  0  0  0  0
    1.1844    0.6528   -1.0555 C   0  0  2  0  0  0  0  0  0  0  0  0
    2.3078    1.2918   -1.6460 O   0  0  0  0  0  0  0  0  0  0  0  0
    2.6955    2.4234   -0.8977 C   0  0  0  0  0  0  0  0  0  0  0  0
    1.6454   -0.5244   -0.1679 C   0  0  2  0  0  0  0  0  0  0  0  0
    2.4745   -1.3825   -0.9365 O   0  0  0  0  0  0  0  0  0  0  0  0
    3.4615   -1.9798   -0.1237 C   0  0  0  0  0  0  0  0  0  0  0  0
    0.7702    0.2046    4.0606 H   0  0  0  0  0  0  0  0  0  0  0  0
   -0.4114    1.5097    3.7226 H   0  0  0  0  0  0  0  0  0  0  0  0
   -1.0175   -0.1627    3.9483 H   0  0  0  0  0  0  0  0  0  0  0  0
   -0.6204   -1.7514    2.2214 H   0  0  0  0  0  0  0  0  0  0  0  0
    1.1538   -1.4388    2.4015 H   0  0  0  0  0  0  0  0  0  0  0  0
    0.5779   -2.4130    0.2306 H   0  0  0  0  0  0  0  0  0  0  0  0
   -0.1597   -1.9848   -1.9820 H   0  0  0  0  0  0  0  0  0  0  0  0
   -2.3860   -1.7963   -2.0261 H   0  0  0  0  0  0  0  0  0  0  0  0
   -0.4789    1.0366   -2.3688 H   0  0  0  0  0  0  0  0  0  0  0  0
    0.1982   -0.3669   -4.1433 H   0  0  0  0  0  0  0  0  0  0  0  0
    1.5042   -0.9834   -3.2771 H   0  0  0  0  0  0  0  0  0  0  0  0
    0.5976    1.3457   -0.4002 H   0  0  0  0  0  0  0  0  0  0  0  0
    1.9119    3.2115   -0.9417 H   0  0  0  0  0  0  0  0  0  0  0  0
    2.9198    2.1572    0.1585 H   0  0  0  0  0  0  0  0  0  0  0  0
    3.6208    2.8424   -1.3432 H   0  0  0  0  0  0  0  0  0  0  0  0
    2.2095   -0.0647    0.6808 H   0  0  0  0  0  0  0  0  0  0  0  0
    4.0126   -2.7285   -0.7286 H   0  0  0  0  0  0  0  0  0  0  0  0
    4.1949   -1.2199    0.2248 H   0  0  0  0  0  0  0  0  0  0  0  0
    3.0123   -2.5111    0.7446 H   0  0  0  0  0  0  0  0  0  0  0  0
  1  2  1  0
  2  3  1  0
  3  4  1  0
  4  5  1  0
  5  6  1  0
  6  7  1  0
  6  8  1  0
  8  9  1  0
  8 10  1  0
 10 11  1  0
 11 12  1  0
 10 13  1  0
 13 14  1  0
 14 15  1  0
 13  4  1  0
  1 16  1  0
  1 17  1  0
  1 18  1  0
  3 19  1  0
  3 20  1  0
  4 21  1  1
  6 22  1  1
  7 23  1  0
  8 24  1  6
  9 25  1  0
  9 26  1  0
 10 27  1  1
 12 28  1  0
 12 29  1  0
 12 30  1  0
 13 31  1  1
 15 32  1  0
 15 33  1  0
 15 34  1  0
M  END
>  <UniqueID>  (448) 
447

>  <SMILES>  (448) 
COC[C@H]1O[C@@H](O)[C@H](N)[C@H](OC)[C@@H]1OC

>  <Energy>  (448) 
43.872285684013576

>  <Genealogy>  (448) 
COC[C@H]1O[C@@H](O)[C@H](N)[C@H](OC)[C@@H]1OC (3D coordinates assigned)
COC[C@H]1O[C@@H](O)[C@H](N)[C@H](OC)[C@@H]1OC (nonaromatic ring conformer: 43.872285684013576 kcal/mol)

$$$$
ZINC000575124622
     RDKit          3D

 44 46  0  0  0  0  0  0  0  0999 V2000
    1.3967   -2.0947   -5.1463 H   0  0  0  0  0  0  0  0  0  0  0  0
    1.3560   -1.3602   -4.4499 O   0  0  0  0  0  0  0  0  0  0  0  0
    0.9247   -0.0758   -4.7803 C   0  0  0  0  0  0  0  0  0  0  0  0
    0.8945    0.8642   -3.8837 N   0  0  0  0  0  0  0  0  0  0  0  0
    1.2642    0.6785   -2.4784 C   0  0  2  0  0  0  0  0  0  0  0  0
    2.2158    0.1015   -2.4196 H   0  0  0  0  0  0  0  0  0  0  0  0
    0.1594   -0.0922   -1.7220 C   0  0  2  0  0  0  0  0  0  0  0  0
    0.1417   -1.1444   -2.0910 H   0  0  0  0  0  0  0  0  0  0  0  0
   -1.0888    0.5154   -1.9509 O   0  0  0  0  0  0  0  0  0  0  0  0
   -1.7823   -0.1737   -1.7783 H   0  0  0  0  0  0  0  0  0  0  0  0
    0.4848   -0.1019   -0.2201 C   0  0  2  0  0  0  0  0  0  0  0  0
    1.4082   -0.7120   -0.0803 H   0  0  0  0  0  0  0  0  0  0  0  0
   -0.5704   -0.7005    0.5112 O   0  0  0  0  0  0  0  0  0  0  0  0
   -0.4687   -0.4630    1.9153 C   0  0  1  0  0  0  0  0  0  0  0  0
   -1.2481    0.2845    2.1946 H   0  0  0  0  0  0  0  0  0  0  0  0
   -0.7502   -1.7521    2.6396 C   0  0  0  0  0  0  0  0  0  0  0  0
   -1.8024   -1.8420    3.5683 C   0  0  0  0  0  0  0  0  0  0  0  0
   -2.4318   -0.9852    3.7741 H   0  0  0  0  0  0  0  0  0  0  0  0
   -2.0487   -3.0437    4.2399 C   0  0  0  0  0  0  0  0  0  0  0  0
   -2.8600   -3.1075    4.9534 H   0  0  0  0  0  0  0  0  0  0  0  0
   -1.2479   -4.1620    3.9929 C   0  0  0  0  0  0  0  0  0  0  0  0
   -1.4404   -5.0910    4.5139 H   0  0  0  0  0  0  0  0  0  0  0  0
   -0.1982   -4.0808    3.0743 C   0  0  0  0  0  0  0  0  0  0  0  0
    0.4223   -4.9471    2.8847 H   0  0  0  0  0  0  0  0  0  0  0  0
    0.0525   -2.8815    2.4007 C   0  0  0  0  0  0  0  0  0  0  0  0
    0.8709   -2.8315    1.6930 H   0  0  0  0  0  0  0  0  0  0  0  0
    0.8114    0.0076    2.3177 O   0  0  0  0  0  0  0  0  0  0  0  0
    1.0543    1.2897    1.7669 C   0  0  0  0  0  0  0  0  0  0  0  0
    2.1233    1.5365    1.9417 H   0  0  0  0  0  0  0  0  0  0  0  0
    0.4557    2.0552    2.3097 H   0  0  0  0  0  0  0  0  0  0  0  0
    0.7480    1.3364    0.2588 C   0  0  1  0  0  0  0  0  0  0  0  0
   -0.1717    1.9541    0.1232 H   0  0  0  0  0  0  0  0  0  0  0  0
    1.8383    1.8985   -0.4503 O   0  0  0  0  0  0  0  0  0  0  0  0
    1.5044    2.0569   -1.8231 C   0  0  1  0  0  0  0  0  0  0  0  0
    0.5710    2.6645   -1.9388 H   0  0  0  0  0  0  0  0  0  0  0  0
    2.5844    2.6817   -2.4911 O   0  0  0  0  0  0  0  0  0  0  0  0
    2.6138    4.0589   -2.1846 C   0  0  0  0  0  0  0  0  0  0  0  0
    1.7203    4.5773   -2.5968 H   0  0  0  0  0  0  0  0  0  0  0  0
    3.5099    4.5073   -2.6603 H   0  0  0  0  0  0  0  0  0  0  0  0
    2.6931    4.2337   -1.0886 H   0  0  0  0  0  0  0  0  0  0  0  0
    0.5280    0.2353   -6.1873 C   0  0  0  0  0  0  0  0  0  0  0  0
   -0.0906   -0.5918   -6.5940 H   0  0  0  0  0  0  0  0  0  0  0  0
   -0.0632    1.1752   -6.2308 H   0  0  0  0  0  0  0  0  0  0  0  0
    1.4392    0.3494   -6.8101 H   0  0  0  0  0  0  0  0  0  0  0  0
  1  2  1  0
  2  3  1  0
  3  4  2  0
  4  5  1  0
  5  6  1  6
  5  7  1  0
  7  8  1  6
  7  9  1  0
  9 10  1  0
  7 11  1  0
 11 12  1  6
 11 13  1  0
 13 14  1  0
 14 15  1  1
 14 16  1  0
 16 17  2  0
 17 18  1  0
 17 19  1  0
 19 20  1  0
 19 21  2  0
 21 22  1  0
 21 23  1  0
 23 24  1  0
 23 25  2  0
 25 26  1  0
 14 27  1  0
 27 28  1  0
 28 29  1  0
 28 30  1  0
 28 31  1  0
 31 32  1  1
 31 33  1  0
 33 34  1  0
 34 35  1  1
 34 36  1  0
 36 37  1  0
 37 38  1  0
 37 39  1  0
 37 40  1  0
  3 41  1  0
 41 42  1  0
 41 43  1  0
 41 44  1  0
 34  5  1  0
 31 11  1  0
 25 16  1  0
M  END
>  <UniqueID>  (449) 
448

>  <SMILES>  (449) 
CO[C@@H]1O[C@@H]2CO[C@H](c3ccccc3)O[C@H]2[C@@H](O)[C@H]1/N=C(\C)O

>  <Energy>  (449) 
58.056338294175724

>  <Genealogy>  (449) 
CO[C@@H]1O[C@@H]2CO[C@H](c3ccccc3)O[C@H]2[C@@H](O)[C@H]1N=C(C)O (tautomer)
CO[C@@H]1O[C@@H]2CO[C@H](c3ccccc3)O[C@H]2[C@@H](O)[C@H]1/N=C(\C)O (cis-trans isomerization)
CO[C@@H]1O[C@@H]2CO[C@H](c3ccccc3)O[C@H]2[C@@H](O)[C@H]1/N=C(\C)O (3D coordinates assigned)
CO[C@@H]1O[C@@H]2CO[C@H](c3ccccc3)O[C@H]2[C@@H](O)[C@H]1/N=C(\C)O (nonaromatic ring conformer: 58.056338294175724 kcal/mol)

$$$$
ZINC000575124622
     RDKit          3D

 44 46  0  0  0  0  0  0  0  0999 V2000
   -3.2542   -1.9886    1.4250 C   0  0  0  0  0  0  0  0  0  0  0  0
   -2.3543   -2.4694    0.4504 O   0  0  0  0  0  0  0  0  0  0  0  0
   -1.1414   -1.7424    0.5065 C   0  0  2  0  0  0  0  0  0  0  0  0
   -1.3355   -0.4705   -0.0987 O   0  0  0  0  0  0  0  0  0  0  0  0
   -0.1528    0.3053   -0.0063 C   0  0  2  0  0  0  0  0  0  0  0  0
   -0.4001    1.7273   -0.5421 C   0  0  0  0  0  0  0  0  0  0  0  0
    0.5843    2.1182   -1.4823 O   0  0  0  0  0  0  0  0  0  0  0  0
    1.8834    1.8497   -0.9701 C   0  0  2  0  0  0  0  0  0  0  0  0
    2.8978    2.4180   -1.9259 C   0  0  0  0  0  0  0  0  0  0  0  0
    3.0006    1.9018   -3.2296 C   0  0  0  0  0  0  0  0  0  0  0  0
    3.9357    2.4287   -4.1257 C   0  0  0  0  0  0  0  0  0  0  0  0
    4.7724    3.4754   -3.7300 C   0  0  0  0  0  0  0  0  0  0  0  0
    4.6749    3.9978   -2.4376 C   0  0  0  0  0  0  0  0  0  0  0  0
    3.7413    3.4741   -1.5375 C   0  0  0  0  0  0  0  0  0  0  0  0
    2.1497    0.4573   -0.8015 O   0  0  0  0  0  0  0  0  0  0  0  0
    0.9734   -0.3310   -0.8418 C   0  0  1  0  0  0  0  0  0  0  0  0
    1.2593   -1.7487   -0.3212 C   0  0  1  0  0  0  0  0  0  0  0  0
    1.8464   -1.6893    0.9561 O   0  0  0  0  0  0  0  0  0  0  0  0
   -0.0643   -2.5400   -0.2627 C   0  0  1  0  0  0  0  0  0  0  0  0
    0.1470   -3.8476    0.3696 N   0  0  0  0  0  0  0  0  0  0  0  0
   -0.3437   -5.0747   -0.1893 C   0  0  0  0  0  0  0  0  0  0  0  0
   -0.1649   -6.3554    0.5587 C   0  0  0  0  0  0  0  0  0  0  0  0
   -0.9526   -5.0802   -1.2932 O   0  0  0  0  0  0  0  0  0  0  0  0
   -3.4547   -0.9016    1.2973 H   0  0  0  0  0  0  0  0  0  0  0  0
   -4.2192   -2.5230    1.3084 H   0  0  0  0  0  0  0  0  0  0  0  0
   -2.8775   -2.1963    2.4508 H   0  0  0  0  0  0  0  0  0  0  0  0
   -0.8010   -1.6308    1.5672 H   0  0  0  0  0  0  0  0  0  0  0  0
    0.1734    0.4003    1.0569 H   0  0  0  0  0  0  0  0  0  0  0  0
   -0.4355    2.4586    0.2963 H   0  0  0  0  0  0  0  0  0  0  0  0
   -1.3883    1.7723   -1.0478 H   0  0  0  0  0  0  0  0  0  0  0  0
    2.0059    2.3455    0.0216 H   0  0  0  0  0  0  0  0  0  0  0  0
    2.3565    1.0920   -3.5500 H   0  0  0  0  0  0  0  0  0  0  0  0
    4.0108    2.0260   -5.1275 H   0  0  0  0  0  0  0  0  0  0  0  0
    5.4955    3.8824   -4.4250 H   0  0  0  0  0  0  0  0  0  0  0  0
    5.3225    4.8098   -2.1331 H   0  0  0  0  0  0  0  0  0  0  0  0
    3.6783    3.8929   -0.5409 H   0  0  0  0  0  0  0  0  0  0  0  0
    0.6402   -0.4218   -1.9025 H   0  0  0  0  0  0  0  0  0  0  0  0
    1.9460   -2.2679   -1.0311 H   0  0  0  0  0  0  0  0  0  0  0  0
    2.8152   -1.5195    0.8218 H   0  0  0  0  0  0  0  0  0  0  0  0
   -0.4180   -2.6752   -1.3097 H   0  0  0  0  0  0  0  0  0  0  0  0
    0.5705   -3.8795    1.3248 H   0  0  0  0  0  0  0  0  0  0  0  0
   -0.4033   -7.2239   -0.0916 H   0  0  0  0  0  0  0  0  0  0  0  0
    0.8867   -6.4450    0.9027 H   0  0  0  0  0  0  0  0  0  0  0  0
   -0.8399   -6.3655    1.4396 H   0  0  0  0  0  0  0  0  0  0  0  0
  1  2  1  0
  2  3  1  0
  3  4  1  0
  4  5  1  0
  5  6  1  0
  6  7  1  0
  7  8  1  0
  8  9  1  0
  9 10  2  0
 10 11  1  0
 11 12  2  0
 12 13  1  0
 13 14  2  0
  8 15  1  0
 15 16  1  0
 16 17  1  0
 17 18  1  0
 17 19  1  0
 19 20  1  0
 20 21  1  0
 21 22  1  0
 21 23  2  0
 19  3  1  0
 16  5  1  0
 14  9  1  0
  1 24  1  0
  1 25  1  0
  1 26  1  0
  3 27  1  1
  5 28  1  1
  6 29  1  0
  6 30  1  0
  8 31  1  1
 10 32  1  0
 11 33  1  0
 12 34  1  0
 13 35  1  0
 14 36  1  0
 16 37  1  6
 17 38  1  6
 18 39  1  0
 19 40  1  6
 20 41  1  0
 22 42  1  0
 22 43  1  0
 22 44  1  0
M  END
>  <UniqueID>  (450) 
449

>  <SMILES>  (450) 
CO[C@@H]1O[C@@H]2CO[C@H](c3ccccc3)O[C@H]2[C@@H](O)[C@H]1NC(C)=O

>  <Energy>  (450) 
58.58609701465964

>  <Genealogy>  (450) 
CO[C@@H]1O[C@@H]2CO[C@H](c3ccccc3)O[C@H]2[C@@H](O)[C@H]1NC(C)=O (3D coordinates assigned)
CO[C@@H]1O[C@@H]2CO[C@H](c3ccccc3)O[C@H]2[C@@H](O)[C@H]1NC(C)=O (nonaromatic ring conformer: 58.58609701465964 kcal/mol)

$$$$
ZINC000575124622
     RDKit          3D

 44 46  0  0  0  0  0  0  0  0999 V2000
    1.2310   -5.4720   -0.3088 H   0  0  0  0  0  0  0  0  0  0  0  0
    1.0481   -4.6129    0.1958 O   0  0  0  0  0  0  0  0  0  0  0  0
    1.7130   -4.3204    1.3862 C   0  0  0  0  0  0  0  0  0  0  0  0
    1.4835   -3.2081    2.0176 N   0  0  0  0  0  0  0  0  0  0  0  0
    0.5421   -2.1803    1.5670 C   0  0  2  0  0  0  0  0  0  0  0  0
   -0.4094   -2.6664    1.2503 H   0  0  0  0  0  0  0  0  0  0  0  0
    1.1195   -1.3970    0.3589 C   0  0  2  0  0  0  0  0  0  0  0  0
    1.0522   -2.0511   -0.5374 H   0  0  0  0  0  0  0  0  0  0  0  0
    2.4815   -1.0794    0.5309 O   0  0  0  0  0  0  0  0  0  0  0  0
    2.5761   -0.5333    1.3513 H   0  0  0  0  0  0  0  0  0  0  0  0
    0.2732   -0.1436    0.0734 C   0  0  2  0  0  0  0  0  0  0  0  0
   -0.7002   -0.4943   -0.3441 H   0  0  0  0  0  0  0  0  0  0  0  0
    0.9109    0.6751   -0.8913 O   0  0  0  0  0  0  0  0  0  0  0  0
    0.3416    1.9826   -0.9619 C   0  0  1  0  0  0  0  0  0  0  0  0
    1.0341    2.6887   -0.4457 H   0  0  0  0  0  0  0  0  0  0  0  0
    0.2333    2.3793   -2.4098 C   0  0  0  0  0  0  0  0  0  0  0  0
   -0.5225    1.5945   -3.2983 C   0  0  0  0  0  0  0  0  0  0  0  0
   -1.0240    0.7006   -2.9479 H   0  0  0  0  0  0  0  0  0  0  0  0
   -0.6344    1.9603   -4.6431 C   0  0  0  0  0  0  0  0  0  0  0  0
   -1.2166    1.3511   -5.3224 H   0  0  0  0  0  0  0  0  0  0  0  0
    0.0034    3.1121   -5.1111 C   0  0  0  0  0  0  0  0  0  0  0  0
   -0.0845    3.3941   -6.1523 H   0  0  0  0  0  0  0  0  0  0  0  0
    0.7533    3.9008   -4.2346 C   0  0  0  0  0  0  0  0  0  0  0  0
    1.2453    4.7937   -4.5982 H   0  0  0  0  0  0  0  0  0  0  0  0
    0.8683    3.5392   -2.8885 C   0  0  0  0  0  0  0  0  0  0  0  0
    1.4516    4.1637   -2.2234 H   0  0  0  0  0  0  0  0  0  0  0  0
   -0.9517    2.0644   -0.3762 O   0  0  0  0  0  0  0  0  0  0  0  0
   -0.8710    1.8513    1.0226 C   0  0  0  0  0  0  0  0  0  0  0  0
   -1.9039    1.6938    1.4005 H   0  0  0  0  0  0  0  0  0  0  0  0
   -0.4815    2.7663    1.5223 H   0  0  0  0  0  0  0  0  0  0  0  0
    0.0026    0.6327    1.3740 C   0  0  1  0  0  0  0  0  0  0  0  0
    0.9574    1.0258    1.7949 H   0  0  0  0  0  0  0  0  0  0  0  0
   -0.6584   -0.1959    2.3128 O   0  0  0  0  0  0  0  0  0  0  0  0
    0.2075   -1.2367    2.7446 C   0  0  1  0  0  0  0  0  0  0  0  0
    1.1641   -0.8194    3.1472 H   0  0  0  0  0  0  0  0  0  0  0  0
   -0.4486   -1.9963    3.7428 O   0  0  0  0  0  0  0  0  0  0  0  0
   -0.4628   -1.2878    4.9633 C   0  0  0  0  0  0  0  0  0  0  0  0
   -0.9571   -0.2968    4.8567 H   0  0  0  0  0  0  0  0  0  0  0  0
    0.5672   -1.1667    5.3653 H   0  0  0  0  0  0  0  0  0  0  0  0
   -1.0442   -1.8734    5.7045 H   0  0  0  0  0  0  0  0  0  0  0  0
    2.7167   -5.2841    1.9319 C   0  0  0  0  0  0  0  0  0  0  0  0
    3.6480   -5.2248    1.3315 H   0  0  0  0  0  0  0  0  0  0  0  0
    2.3125   -6.3163    1.8770 H   0  0  0  0  0  0  0  0  0  0  0  0
    2.9524   -5.0504    2.9922 H   0  0  0  0  0  0  0  0  0  0  0  0
  1  2  1  0
  2  3  1  0
  3  4  2  0
  4  5  1  0
  5  6  1  6
  5  7  1  0
  7  8  1  6
  7  9  1  0
  9 10  1  0
  7 11  1  0
 11 12  1  6
 11 13  1  0
 13 14  1  0
 14 15  1  1
 14 16  1  0
 16 17  2  0
 17 18  1  0
 17 19  1  0
 19 20  1  0
 19 21  2  0
 21 22  1  0
 21 23  1  0
 23 24  1  0
 23 25  2  0
 25 26  1  0
 14 27  1  0
 27 28  1  0
 28 29  1  0
 28 30  1  0
 28 31  1  0
 31 32  1  1
 31 33  1  0
 33 34  1  0
 34 35  1  1
 34 36  1  0
 36 37  1  0
 37 38  1  0
 37 39  1  0
 37 40  1  0
  3 41  1  0
 41 42  1  0
 41 43  1  0
 41 44  1  0
 34  5  1  0
 31 11  1  0
 25 16  1  0
M  END
>  <UniqueID>  (451) 
450

>  <SMILES>  (451) 
CO[C@@H]1O[C@@H]2CO[C@H](c3ccccc3)O[C@H]2[C@@H](O)[C@H]1/N=C(/C)O

>  <Energy>  (451) 
60.20096601420185

>  <Genealogy>  (451) 
CO[C@@H]1O[C@@H]2CO[C@H](c3ccccc3)O[C@H]2[C@@H](O)[C@H]1N=C(C)O (tautomer)
CO[C@@H]1O[C@@H]2CO[C@H](c3ccccc3)O[C@H]2[C@@H](O)[C@H]1/N=C(/C)O (cis-trans isomerization)
CO[C@@H]1O[C@@H]2CO[C@H](c3ccccc3)O[C@H]2[C@@H](O)[C@H]1/N=C(/C)O (3D coordinates assigned)
CO[C@@H]1O[C@@H]2CO[C@H](c3ccccc3)O[C@H]2[C@@H](O)[C@H]1/N=C(/C)O (nonaromatic ring conformer: 60.20096601420185 kcal/mol)

$$$$
ZINC000575124647
     RDKit          3D

 39 39  0  0  0  0  0  0  0  0999 V2000
    4.7698   -0.5853    0.2740 C   0  0  0  0  0  0  0  0  0  0  0  0
    3.5633   -0.0514   -0.4928 C   0  0  0  0  0  0  0  0  0  0  0  0
    2.2607   -0.3265    0.2562 C   0  0  0  0  0  0  0  0  0  0  0  0
    1.1825    0.1918   -0.4954 O   0  0  0  0  0  0  0  0  0  0  0  0
   -0.0491   -0.1354    0.1204 C   0  0  2  0  0  0  0  0  0  0  0  0
   -0.3465   -1.4972   -0.1420 O   0  0  0  0  0  0  0  0  0  0  0  0
   -1.5173   -1.8999    0.5485 C   0  0  2  0  0  0  0  0  0  0  0  0
   -1.6813   -3.4179    0.3807 C   0  0  0  0  0  0  0  0  0  0  0  0
   -0.5934   -4.0930    0.9534 O   0  0  0  0  0  0  0  0  0  0  0  0
   -2.7519   -1.1534   -0.0121 C   0  0  1  0  0  0  0  0  0  0  0  0
   -3.9006   -1.5106    0.7139 O   0  0  0  0  0  0  0  0  0  0  0  0
   -2.5425    0.3778    0.0431 C   0  0  1  0  0  0  0  0  0  0  0  0
   -2.7784    0.8871    1.3357 O   0  0  0  0  0  0  0  0  0  0  0  0
   -1.1430    0.7608   -0.4916 C   0  0  1  0  0  0  0  0  0  0  0  0
   -0.8515    2.1740   -0.2229 N   0  0  0  0  0  0  0  0  0  0  0  0
   -0.2966    3.0569   -1.2084 C   0  0  0  0  0  0  0  0  0  0  0  0
    0.0783    4.4520   -0.8279 C   0  0  0  0  0  0  0  0  0  0  0  0
   -0.1070    2.6627   -2.3909 O   0  0  0  0  0  0  0  0  0  0  0  0
    4.8428   -0.0958    1.2685 H   0  0  0  0  0  0  0  0  0  0  0  0
    4.6845   -1.6844    0.4110 H   0  0  0  0  0  0  0  0  0  0  0  0
    5.6976   -0.3697   -0.2967 H   0  0  0  0  0  0  0  0  0  0  0  0
    3.5239   -0.5366   -1.4923 H   0  0  0  0  0  0  0  0  0  0  0  0
    3.6811    1.0443   -0.6393 H   0  0  0  0  0  0  0  0  0  0  0  0
    2.3108    0.1719    1.2513 H   0  0  0  0  0  0  0  0  0  0  0  0
    2.1558   -1.4272    0.3963 H   0  0  0  0  0  0  0  0  0  0  0  0
    0.0038    0.0618    1.2198 H   0  0  0  0  0  0  0  0  0  0  0  0
   -1.4157   -1.7059    1.6415 H   0  0  0  0  0  0  0  0  0  0  0  0
   -1.7798   -3.6823   -0.6977 H   0  0  0  0  0  0  0  0  0  0  0  0
   -2.6051   -3.7552    0.8967 H   0  0  0  0  0  0  0  0  0  0  0  0
    0.1446   -4.0628    0.2901 H   0  0  0  0  0  0  0  0  0  0  0  0
   -2.8778   -1.4504   -1.0807 H   0  0  0  0  0  0  0  0  0  0  0  0
   -4.6814   -1.2235    0.1721 H   0  0  0  0  0  0  0  0  0  0  0  0
   -3.2957    0.8446   -0.6290 H   0  0  0  0  0  0  0  0  0  0  0  0
   -2.1339    0.4683    1.9602 H   0  0  0  0  0  0  0  0  0  0  0  0
   -1.1544    0.5771   -1.5897 H   0  0  0  0  0  0  0  0  0  0  0  0
   -0.9136    2.5204    0.7615 H   0  0  0  0  0  0  0  0  0  0  0  0
    0.9061    4.4239   -0.0892 H   0  0  0  0  0  0  0  0  0  0  0  0
   -0.7975    4.9628   -0.3763 H   0  0  0  0  0  0  0  0  0  0  0  0
    0.4085    5.0262   -1.7196 H   0  0  0  0  0  0  0  0  0  0  0  0
  1  2  1  0
  2  3  1  0
  3  4  1  0
  4  5  1  0
  5  6  1  0
  6  7  1  0
  7  8  1  0
  8  9  1  0
  7 10  1  0
 10 11  1  0
 10 12  1  0
 12 13  1  0
 12 14  1  0
 14 15  1  0
 15 16  1  0
 16 17  1  0
 16 18  2  0
 14  5  1  0
  1 19  1  0
  1 20  1  0
  1 21  1  0
  2 22  1  0
  2 23  1  0
  3 24  1  0
  3 25  1  0
  5 26  1  1
  7 27  1  1
  8 28  1  0
  8 29  1  0
  9 30  1  0
 10 31  1  6
 11 32  1  0
 12 33  1  6
 13 34  1  0
 14 35  1  6
 15 36  1  0
 17 37  1  0
 17 38  1  0
 17 39  1  0
M  END
>  <UniqueID>  (452) 
451

>  <SMILES>  (452) 
CCCO[C@@H]1O[C@H](CO)[C@@H](O)[C@@H](O)[C@H]1NC(C)=O

>  <Energy>  (452) 
31.26027236677053

>  <Genealogy>  (452) 
CCCO[C@@H]1O[C@H](CO)[C@@H](O)[C@@H](O)[C@H]1NC(C)=O (3D coordinates assigned)
CCCO[C@@H]1O[C@H](CO)[C@@H](O)[C@@H](O)[C@H]1NC(C)=O (nonaromatic ring conformer: 31.26027236677053 kcal/mol)

$$$$
ZINC000575124647
     RDKit          3D

 39 39  0  0  0  0  0  0  0  0999 V2000
   -2.3710   -0.9895    4.0954 H   0  0  0  0  0  0  0  0  0  0  0  0
   -1.6874   -1.0307    3.3490 O   0  0  0  0  0  0  0  0  0  0  0  0
   -0.3221   -0.9259    3.6137 C   0  0  0  0  0  0  0  0  0  0  0  0
    0.5488   -1.0005    2.6518 N   0  0  0  0  0  0  0  0  0  0  0  0
    0.2170   -1.1518    1.2323 C   0  0  2  0  0  0  0  0  0  0  0  0
   -0.6792   -1.8047    1.1215 H   0  0  0  0  0  0  0  0  0  0  0  0
    1.3888   -1.8360    0.5002 C   0  0  2  0  0  0  0  0  0  0  0  0
    1.4614   -2.8947    0.8463 H   0  0  0  0  0  0  0  0  0  0  0  0
    2.5964   -1.1617    0.7624 O   0  0  0  0  0  0  0  0  0  0  0  0
    2.9581   -1.5300    1.6104 H   0  0  0  0  0  0  0  0  0  0  0  0
    1.1260   -1.8469   -1.0172 C   0  0  2  0  0  0  0  0  0  0  0  0
    0.2647   -2.5250   -1.2278 H   0  0  0  0  0  0  0  0  0  0  0  0
    2.2663   -2.3044   -1.6987 O   0  0  0  0  0  0  0  0  0  0  0  0
    2.3091   -3.2861   -1.5567 H   0  0  0  0  0  0  0  0  0  0  0  0
    0.7573   -0.4244   -1.4978 C   0  0  1  0  0  0  0  0  0  0  0  0
    1.6276    0.2593   -1.3562 H   0  0  0  0  0  0  0  0  0  0  0  0
    0.4205   -0.4245   -2.9959 C   0  0  0  0  0  0  0  0  0  0  0  0
   -0.4446   -1.0969   -3.2003 H   0  0  0  0  0  0  0  0  0  0  0  0
    1.2883   -0.8039   -3.5760 H   0  0  0  0  0  0  0  0  0  0  0  0
    0.1421    0.8788   -3.4334 O   0  0  0  0  0  0  0  0  0  0  0  0
   -0.7990    1.0715   -3.1820 H   0  0  0  0  0  0  0  0  0  0  0  0
   -0.3719    0.0508   -0.7853 O   0  0  0  0  0  0  0  0  0  0  0  0
   -0.0720    0.2230    0.5894 C   0  0  1  0  0  0  0  0  0  0  0  0
    0.8400    0.8594    0.7155 H   0  0  0  0  0  0  0  0  0  0  0  0
   -1.2093    0.7888    1.2201 O   0  0  0  0  0  0  0  0  0  0  0  0
   -1.1091    2.1979    1.3357 C   0  0  0  0  0  0  0  0  0  0  0  0
   -0.1366    2.5127    1.7777 H   0  0  0  0  0  0  0  0  0  0  0  0
   -1.8851    2.5342    2.0558 H   0  0  0  0  0  0  0  0  0  0  0  0
   -1.3497    2.9164   -0.0011 C   0  0  0  0  0  0  0  0  0  0  0  0
   -0.5465    2.6627   -0.7247 H   0  0  0  0  0  0  0  0  0  0  0  0
   -1.3066    4.0134    0.1720 H   0  0  0  0  0  0  0  0  0  0  0  0
   -2.7099    2.5683   -0.6017 C   0  0  0  0  0  0  0  0  0  0  0  0
   -2.8552    3.1375   -1.5439 H   0  0  0  0  0  0  0  0  0  0  0  0
   -3.5237    2.8368    0.1050 H   0  0  0  0  0  0  0  0  0  0  0  0
   -2.7686    1.4841   -0.8338 H   0  0  0  0  0  0  0  0  0  0  0  0
    0.1509   -0.7682    5.0226 C   0  0  0  0  0  0  0  0  0  0  0  0
   -0.5203   -0.0732    5.5690 H   0  0  0  0  0  0  0  0  0  0  0  0
    0.1418   -1.7565    5.5272 H   0  0  0  0  0  0  0  0  0  0  0  0
    1.1825   -0.3561    5.0463 H   0  0  0  0  0  0  0  0  0  0  0  0
  1  2  1  0
  2  3  1  0
  3  4  2  0
  4  5  1  0
  5  6  1  1
  5  7  1  0
  7  8  1  1
  7  9  1  0
  9 10  1  0
  7 11  1  0
 11 12  1  1
 11 13  1  0
 13 14  1  0
 11 15  1  0
 15 16  1  6
 15 17  1  0
 17 18  1  0
 17 19  1  0
 17 20  1  0
 20 21  1  0
 15 22  1  0
 22 23  1  0
 23 24  1  6
 23 25  1  0
 25 26  1  0
 26 27  1  0
 26 28  1  0
 26 29  1  0
 29 30  1  0
 29 31  1  0
 29 32  1  0
 32 33  1  0
 32 34  1  0
 32 35  1  0
  3 36  1  0
 36 37  1  0
 36 38  1  0
 36 39  1  0
 23  5  1  0
M  END
>  <UniqueID>  (453) 
452

>  <SMILES>  (453) 
CCCO[C@@H]1O[C@H](CO)[C@@H](O)[C@@H](O)[C@H]1/N=C(\C)O

>  <Energy>  (453) 
32.018085602126256

>  <Genealogy>  (453) 
CCCO[C@@H]1O[C@H](CO)[C@@H](O)[C@@H](O)[C@H]1N=C(C)O (tautomer)
CCCO[C@@H]1O[C@H](CO)[C@@H](O)[C@@H](O)[C@H]1/N=C(\C)O (cis-trans isomerization)
CCCO[C@@H]1O[C@H](CO)[C@@H](O)[C@@H](O)[C@H]1/N=C(\C)O (3D coordinates assigned)
CCCO[C@@H]1O[C@H](CO)[C@@H](O)[C@@H](O)[C@H]1/N=C(\C)O (nonaromatic ring conformer: 32.018085602126256 kcal/mol)

$$$$
ZINC000575124647
     RDKit          3D

 39 39  0  0  0  0  0  0  0  0999 V2000
    3.1935    3.5154   -3.2882 H   0  0  0  0  0  0  0  0  0  0  0  0
    3.1126    2.8842   -2.5002 O   0  0  0  0  0  0  0  0  0  0  0  0
    1.8743    2.4402   -2.0428 C   0  0  0  0  0  0  0  0  0  0  0  0
    1.8480    1.6195   -1.0320 N   0  0  0  0  0  0  0  0  0  0  0  0
    0.6564    1.0531   -0.3904 C   0  0  2  0  0  0  0  0  0  0  0  0
   -0.1393    0.8722   -1.1471 H   0  0  0  0  0  0  0  0  0  0  0  0
    0.1172    2.0077    0.6982 C   0  0  2  0  0  0  0  0  0  0  0  0
   -0.3098    2.9185    0.2197 H   0  0  0  0  0  0  0  0  0  0  0  0
    1.1467    2.3758    1.5845 O   0  0  0  0  0  0  0  0  0  0  0  0
    1.6271    3.1398    1.1710 H   0  0  0  0  0  0  0  0  0  0  0  0
   -1.0140    1.3194    1.4795 C   0  0  2  0  0  0  0  0  0  0  0  0
   -1.8776    1.1988    0.7817 H   0  0  0  0  0  0  0  0  0  0  0  0
   -1.3760    2.1247    2.5737 O   0  0  0  0  0  0  0  0  0  0  0  0
   -2.3521    2.0092    2.7125 H   0  0  0  0  0  0  0  0  0  0  0  0
   -0.5461   -0.0764    1.9622 C   0  0  1  0  0  0  0  0  0  0  0  0
    0.2927    0.0450    2.6876 H   0  0  0  0  0  0  0  0  0  0  0  0
   -1.6577   -0.8307    2.7065 C   0  0  0  0  0  0  0  0  0  0  0  0
   -1.2480   -1.7978    3.0685 H   0  0  0  0  0  0  0  0  0  0  0  0
   -1.9862   -0.2632    3.6077 H   0  0  0  0  0  0  0  0  0  0  0  0
   -2.7389   -1.1039    1.8542 O   0  0  0  0  0  0  0  0  0  0  0  0
   -3.3826   -0.3552    1.9548 H   0  0  0  0  0  0  0  0  0  0  0  0
   -0.1325   -0.8642    0.8584 O   0  0  0  0  0  0  0  0  0  0  0  0
    1.0148   -0.3071    0.2387 C   0  0  1  0  0  0  0  0  0  0  0  0
    1.8255   -0.1374    0.9914 H   0  0  0  0  0  0  0  0  0  0  0  0
    1.4288   -1.1781   -0.8019 O   0  0  0  0  0  0  0  0  0  0  0  0
    2.4253   -2.0890   -0.3695 C   0  0  0  0  0  0  0  0  0  0  0  0
    2.8949   -2.5304   -1.2743 H   0  0  0  0  0  0  0  0  0  0  0  0
    3.2525   -1.5805    0.1757 H   0  0  0  0  0  0  0  0  0  0  0  0
    1.8485   -3.2334    0.4776 C   0  0  0  0  0  0  0  0  0  0  0  0
    1.4429   -2.8388    1.4330 H   0  0  0  0  0  0  0  0  0  0  0  0
    2.6705   -3.9368    0.7318 H   0  0  0  0  0  0  0  0  0  0  0  0
    0.7580   -4.0024   -0.2651 C   0  0  0  0  0  0  0  0  0  0  0  0
    1.1574   -4.4177   -1.2147 H   0  0  0  0  0  0  0  0  0  0  0  0
    0.4007   -4.8422    0.3673 H   0  0  0  0  0  0  0  0  0  0  0  0
   -0.1041   -3.3393   -0.4887 H   0  0  0  0  0  0  0  0  0  0  0  0
    0.6219    2.8980   -2.7404 C   0  0  0  0  0  0  0  0  0  0  0  0
    0.1109    2.0308   -3.2080 H   0  0  0  0  0  0  0  0  0  0  0  0
    0.8665    3.6262   -3.5412 H   0  0  0  0  0  0  0  0  0  0  0  0
   -0.0626    3.3961   -2.0258 H   0  0  0  0  0  0  0  0  0  0  0  0
  1  2  1  0
  2  3  1  0
  3  4  2  0
  4  5  1  0
  5  6  1  6
  5  7  1  0
  7  8  1  6
  7  9  1  0
  9 10  1  0
  7 11  1  0
 11 12  1  6
 11 13  1  0
 13 14  1  0
 11 15  1  0
 15 16  1  1
 15 17  1  0
 17 18  1  0
 17 19  1  0
 17 20  1  0
 20 21  1  0
 15 22  1  0
 22 23  1  0
 23 24  1  1
 23 25  1  0
 25 26  1  0
 26 27  1  0
 26 28  1  0
 26 29  1  0
 29 30  1  0
 29 31  1  0
 29 32  1  0
 32 33  1  0
 32 34  1  0
 32 35  1  0
  3 36  1  0
 36 37  1  0
 36 38  1  0
 36 39  1  0
 23  5  1  0
M  END
>  <UniqueID>  (454) 
453

>  <SMILES>  (454) 
CCCO[C@@H]1O[C@H](CO)[C@@H](O)[C@@H](O)[C@H]1/N=C(/C)O

>  <Energy>  (454) 
34.98611397761327

>  <Genealogy>  (454) 
CCCO[C@@H]1O[C@H](CO)[C@@H](O)[C@@H](O)[C@H]1N=C(C)O (tautomer)
CCCO[C@@H]1O[C@H](CO)[C@@H](O)[C@@H](O)[C@H]1/N=C(/C)O (cis-trans isomerization)
CCCO[C@@H]1O[C@H](CO)[C@@H](O)[C@@H](O)[C@H]1/N=C(/C)O (3D coordinates assigned)
CCCO[C@@H]1O[C@H](CO)[C@@H](O)[C@@H](O)[C@H]1/N=C(/C)O (nonaromatic ring conformer: 34.98611397761327 kcal/mol)

$$$$
ZINC000616582453
     RDKit          3D

 48 48  0  0  0  0  0  0  0  0999 V2000
   -5.2913   -0.3572    3.3761 C   0  0  0  0  0  0  0  0  0  0  0  0
   -4.3776   -1.0524    2.3709 C   0  0  0  0  0  0  0  0  0  0  0  0
   -2.9097   -0.9675    2.8050 C   0  0  0  0  0  0  0  0  0  0  0  0
   -1.9952   -1.6563    1.7819 C   0  0  0  0  0  0  0  0  0  0  0  0
   -0.5282   -1.7191    2.2422 C   0  0  0  0  0  0  0  0  0  0  0  0
    0.1583   -0.3461    2.3083 C   0  0  0  0  0  0  0  0  0  0  0  0
    0.0277    0.3460    1.0795 O   0  0  0  0  0  0  0  0  0  0  0  0
    1.1570    0.1391    0.2515 C   0  0  2  0  0  0  0  0  0  0  0  0
    2.1945    1.0100    0.6716 O   0  0  0  0  0  0  0  0  0  0  0  0
    3.3809    0.7782   -0.0700 C   0  0  2  0  0  0  0  0  0  0  0  0
    4.4990    1.6247    0.5541 C   0  0  0  0  0  0  0  0  0  0  0  0
    5.7425    1.2695    0.0149 O   0  0  0  0  0  0  0  0  0  0  0  0
    3.1571    1.1450   -1.5588 C   0  0  1  0  0  0  0  0  0  0  0  0
    4.3189    0.8831   -2.3040 O   0  0  0  0  0  0  0  0  0  0  0  0
    1.9774    0.3366   -2.1304 C   0  0  1  0  0  0  0  0  0  0  0  0
    2.3531   -1.0131   -2.2637 O   0  0  0  0  0  0  0  0  0  0  0  0
    0.7539    0.4661   -1.2006 C   0  0  1  0  0  0  0  0  0  0  0  0
   -0.3289   -0.4174   -1.6478 N   0  0  0  0  0  0  0  0  0  0  0  0
   -1.1815   -0.0889   -2.7524 C   0  0  0  0  0  0  0  0  0  0  0  0
   -2.2668   -1.0313   -3.1588 C   0  0  0  0  0  0  0  0  0  0  0  0
   -1.0166    0.9859   -3.3906 O   0  0  0  0  0  0  0  0  0  0  0  0
   -5.2025   -0.8367    4.3742 H   0  0  0  0  0  0  0  0  0  0  0  0
   -6.3456   -0.4363    3.0367 H   0  0  0  0  0  0  0  0  0  0  0  0
   -5.0252    0.7180    3.4603 H   0  0  0  0  0  0  0  0  0  0  0  0
   -4.6831   -2.1181    2.2857 H   0  0  0  0  0  0  0  0  0  0  0  0
   -4.5030   -0.5697    1.3770 H   0  0  0  0  0  0  0  0  0  0  0  0
   -2.7909   -1.4565    3.7969 H   0  0  0  0  0  0  0  0  0  0  0  0
   -2.6257    0.1025    2.8984 H   0  0  0  0  0  0  0  0  0  0  0  0
   -2.0671   -1.1354    0.8028 H   0  0  0  0  0  0  0  0  0  0  0  0
   -2.3482   -2.6997    1.6295 H   0  0  0  0  0  0  0  0  0  0  0  0
    0.0331   -2.3665    1.5350 H   0  0  0  0  0  0  0  0  0  0  0  0
   -0.4717   -2.2030    3.2415 H   0  0  0  0  0  0  0  0  0  0  0  0
    1.2193   -0.4737    2.6298 H   0  0  0  0  0  0  0  0  0  0  0  0
   -0.3186    0.2633    3.1030 H   0  0  0  0  0  0  0  0  0  0  0  0
    1.4906   -0.9283    0.2933 H   0  0  0  0  0  0  0  0  0  0  0  0
    3.6881   -0.2909    0.0170 H   0  0  0  0  0  0  0  0  0  0  0  0
    4.5157    1.4457    1.6528 H   0  0  0  0  0  0  0  0  0  0  0  0
    4.3009    2.7064    0.3792 H   0  0  0  0  0  0  0  0  0  0  0  0
    6.4104    1.8610    0.4495 H   0  0  0  0  0  0  0  0  0  0  0  0
    2.9085    2.2315   -1.6200 H   0  0  0  0  0  0  0  0  0  0  0  0
    4.2228    1.3697   -3.1641 H   0  0  0  0  0  0  0  0  0  0  0  0
    1.7235    0.7604   -3.1307 H   0  0  0  0  0  0  0  0  0  0  0  0
    1.7876   -1.4031   -2.9804 H   0  0  0  0  0  0  0  0  0  0  0  0
    0.3950    1.5204   -1.2222 H   0  0  0  0  0  0  0  0  0  0  0  0
   -0.4943   -1.3209   -1.1482 H   0  0  0  0  0  0  0  0  0  0  0  0
   -1.8164   -1.9721   -3.5378 H   0  0  0  0  0  0  0  0  0  0  0  0
   -2.8960   -0.5834   -3.9571 H   0  0  0  0  0  0  0  0  0  0  0  0
   -2.9082   -1.2602   -2.2821 H   0  0  0  0  0  0  0  0  0  0  0  0
  1  2  1  0
  2  3  1  0
  3  4  1  0
  4  5  1  0
  5  6  1  0
  6  7  1  0
  7  8  1  0
  8  9  1  0
  9 10  1  0
 10 11  1  0
 11 12  1  0
 10 13  1  0
 13 14  1  0
 13 15  1  0
 15 16  1  0
 15 17  1  0
 17 18  1  0
 18 19  1  0
 19 20  1  0
 19 21  2  0
 17  8  1  0
  1 22  1  0
  1 23  1  0
  1 24  1  0
  2 25  1  0
  2 26  1  0
  3 27  1  0
  3 28  1  0
  4 29  1  0
  4 30  1  0
  5 31  1  0
  5 32  1  0
  6 33  1  0
  6 34  1  0
  8 35  1  6
 10 36  1  6
 11 37  1  0
 11 38  1  0
 12 39  1  0
 13 40  1  1
 14 41  1  0
 15 42  1  6
 16 43  1  0
 17 44  1  1
 18 45  1  0
 20 46  1  0
 20 47  1  0
 20 48  1  0
M  END
>  <UniqueID>  (455) 
454

>  <SMILES>  (455) 
CCCCCCO[C@@H]1O[C@H](CO)[C@@H](O)[C@@H](O)[C@H]1NC(C)=O

>  <Energy>  (455) 
32.86678784132937

>  <Genealogy>  (455) 
CCCCCCO[C@@H]1O[C@H](CO)[C@@H](O)[C@@H](O)[C@H]1NC(C)=O (3D coordinates assigned)
CCCCCCO[C@@H]1O[C@H](CO)[C@@H](O)[C@@H](O)[C@H]1NC(C)=O (nonaromatic ring conformer: 32.86678784132937 kcal/mol)

$$$$
ZINC000616582453
     RDKit          3D

 48 48  0  0  0  0  0  0  0  0999 V2000
    0.9338    0.0128    5.0123 H   0  0  0  0  0  0  0  0  0  0  0  0
    0.9607    0.0132    3.9997 O   0  0  0  0  0  0  0  0  0  0  0  0
    1.4244    1.1209    3.2906 C   0  0  0  0  0  0  0  0  0  0  0  0
    1.4741    1.1030    1.9923 N   0  0  0  0  0  0  0  0  0  0  0  0
    1.0646   -0.0346    1.1656 C   0  0  2  0  0  0  0  0  0  0  0  0
    0.0895   -0.4276    1.5354 H   0  0  0  0  0  0  0  0  0  0  0  0
    2.1187   -1.1631    1.2192 C   0  0  2  0  0  0  0  0  0  0  0  0
    2.1166   -1.6252    2.2344 H   0  0  0  0  0  0  0  0  0  0  0  0
    3.3970   -0.6518    0.9278 O   0  0  0  0  0  0  0  0  0  0  0  0
    3.7701   -0.2993    1.7776 H   0  0  0  0  0  0  0  0  0  0  0  0
    1.7489   -2.2602    0.2023 C   0  0  2  0  0  0  0  0  0  0  0  0
    0.8121   -2.7464    0.5556 H   0  0  0  0  0  0  0  0  0  0  0  0
    2.7475   -3.2507    0.1499 O   0  0  0  0  0  0  0  0  0  0  0  0
    3.5462   -2.8570   -0.2886 H   0  0  0  0  0  0  0  0  0  0  0  0
    1.4738   -1.6376   -1.1914 C   0  0  1  0  0  0  0  0  0  0  0  0
    2.4077   -1.1821   -1.5973 H   0  0  0  0  0  0  0  0  0  0  0  0
    1.0222   -2.7145   -2.1878 C   0  0  0  0  0  0  0  0  0  0  0  0
    0.0979   -3.2195   -1.8228 H   0  0  0  0  0  0  0  0  0  0  0  0
    1.8132   -3.4878   -2.2870 H   0  0  0  0  0  0  0  0  0  0  0  0
    0.8057   -2.1485   -3.4527 O   0  0  0  0  0  0  0  0  0  0  0  0
   -0.1075   -1.7594   -3.4398 H   0  0  0  0  0  0  0  0  0  0  0  0
    0.4511   -0.6610   -1.0907 O   0  0  0  0  0  0  0  0  0  0  0  0
    0.8684    0.4322   -0.2897 C   0  0  1  0  0  0  0  0  0  0  0  0
    1.8451    0.8374   -0.6575 H   0  0  0  0  0  0  0  0  0  0  0  0
   -0.1587    1.4111   -0.3066 O   0  0  0  0  0  0  0  0  0  0  0  0
    0.1040    2.4421   -1.2431 C   0  0  0  0  0  0  0  0  0  0  0  0
    1.1226    2.8724   -1.1101 H   0  0  0  0  0  0  0  0  0  0  0  0
   -0.6011    3.2752   -1.0367 H   0  0  0  0  0  0  0  0  0  0  0  0
   -0.1010    1.9872   -2.6971 C   0  0  0  0  0  0  0  0  0  0  0  0
    0.0743    2.8603   -3.3629 H   0  0  0  0  0  0  0  0  0  0  0  0
    0.6504    1.2118   -2.9595 H   0  0  0  0  0  0  0  0  0  0  0  0
   -1.5172    1.4469   -2.9352 C   0  0  0  0  0  0  0  0  0  0  0  0
   -2.2608    2.2286   -2.6648 H   0  0  0  0  0  0  0  0  0  0  0  0
   -1.6895    0.5586   -2.2893 H   0  0  0  0  0  0  0  0  0  0  0  0
   -1.7124    1.0482   -4.4026 C   0  0  0  0  0  0  0  0  0  0  0  0
   -0.9459    0.2939   -4.6859 H   0  0  0  0  0  0  0  0  0  0  0  0
   -1.5793    1.9448   -5.0475 H   0  0  0  0  0  0  0  0  0  0  0  0
   -3.1093    0.4604   -4.6316 C   0  0  0  0  0  0  0  0  0  0  0  0
   -3.8819    1.2111   -4.3561 H   0  0  0  0  0  0  0  0  0  0  0  0
   -3.2472   -0.4385   -3.9919 H   0  0  0  0  0  0  0  0  0  0  0  0
   -3.3066    0.0611   -6.0910 C   0  0  0  0  0  0  0  0  0  0  0  0
   -4.3249   -0.3603   -6.2266 H   0  0  0  0  0  0  0  0  0  0  0  0
   -2.5615   -0.7089   -6.3843 H   0  0  0  0  0  0  0  0  0  0  0  0
   -3.1981    0.9476   -6.7517 H   0  0  0  0  0  0  0  0  0  0  0  0
    1.8963    2.3319    4.0284 C   0  0  0  0  0  0  0  0  0  0  0  0
    1.2210    2.5373    4.8850 H   0  0  0  0  0  0  0  0  0  0  0  0
    1.9034    3.2204    3.3614 H   0  0  0  0  0  0  0  0  0  0  0  0
    2.9237    2.1541    4.4084 H   0  0  0  0  0  0  0  0  0  0  0  0
  1  2  1  0
  2  3  1  0
  3  4  2  0
  4  5  1  0
  5  6  1  1
  5  7  1  0
  7  8  1  1
  7  9  1  0
  9 10  1  0
  7 11  1  0
 11 12  1  1
 11 13  1  0
 13 14  1  0
 11 15  1  0
 15 16  1  6
 15 17  1  0
 17 18  1  0
 17 19  1  0
 17 20  1  0
 20 21  1  0
 15 22  1  0
 22 23  1  0
 23 24  1  6
 23 25  1  0
 25 26  1  0
 26 27  1  0
 26 28  1  0
 26 29  1  0
 29 30  1  0
 29 31  1  0
 29 32  1  0
 32 33  1  0
 32 34  1  0
 32 35  1  0
 35 36  1  0
 35 37  1  0
 35 38  1  0
 38 39  1  0
 38 40  1  0
 38 41  1  0
 41 42  1  0
 41 43  1  0
 41 44  1  0
  3 45  1  0
 45 46  1  0
 45 47  1  0
 45 48  1  0
 23  5  1  0
M  END
>  <UniqueID>  (456) 
455

>  <SMILES>  (456) 
CCCCCCO[C@@H]1O[C@H](CO)[C@@H](O)[C@@H](O)[C@H]1/N=C(/C)O

>  <Energy>  (456) 
33.98935469548229

>  <Genealogy>  (456) 
CCCCCCO[C@@H]1O[C@H](CO)[C@@H](O)[C@@H](O)[C@H]1N=C(C)O (tautomer)
CCCCCCO[C@@H]1O[C@H](CO)[C@@H](O)[C@@H](O)[C@H]1/N=C(/C)O (cis-trans isomerization)
CCCCCCO[C@@H]1O[C@H](CO)[C@@H](O)[C@@H](O)[C@H]1/N=C(/C)O (3D coordinates assigned)
CCCCCCO[C@@H]1O[C@H](CO)[C@@H](O)[C@@H](O)[C@H]1/N=C(/C)O (nonaromatic ring conformer: 33.98935469548229 kcal/mol)

$$$$
ZINC000616582453
     RDKit          3D

 48 48  0  0  0  0  0  0  0  0999 V2000
   -0.2436    2.5516    3.9559 H   0  0  0  0  0  0  0  0  0  0  0  0
    0.3299    2.3281    3.1515 O   0  0  0  0  0  0  0  0  0  0  0  0
    0.1114    1.1799    2.3943 C   0  0  0  0  0  0  0  0  0  0  0  0
    0.8765    0.9656    1.3627 N   0  0  0  0  0  0  0  0  0  0  0  0
    0.8169   -0.1835    0.4526 C   0  0  2  0  0  0  0  0  0  0  0  0
   -0.2318   -0.5434    0.3531 H   0  0  0  0  0  0  0  0  0  0  0  0
    1.7026   -1.3353    0.9697 C   0  0  2  0  0  0  0  0  0  0  0  0
    1.2522   -1.7627    1.8952 H   0  0  0  0  0  0  0  0  0  0  0  0
    3.0029   -0.8714    1.2432 O   0  0  0  0  0  0  0  0  0  0  0  0
    2.9892   -0.4917    2.1604 H   0  0  0  0  0  0  0  0  0  0  0  0
    1.7679   -2.4574   -0.0839 C   0  0  2  0  0  0  0  0  0  0  0  0
    0.7616   -2.9345   -0.1605 H   0  0  0  0  0  0  0  0  0  0  0  0
    2.7187   -3.4161    0.3038 O   0  0  0  0  0  0  0  0  0  0  0  0
    2.3082   -3.9463    1.0361 H   0  0  0  0  0  0  0  0  0  0  0  0
    2.1352   -1.8679   -1.4694 C   0  0  1  0  0  0  0  0  0  0  0  0
    3.1683   -1.4472   -1.4421 H   0  0  0  0  0  0  0  0  0  0  0  0
    2.1093   -2.9444   -2.5647 C   0  0  0  0  0  0  0  0  0  0  0  0
    1.1241   -3.4685   -2.5715 H   0  0  0  0  0  0  0  0  0  0  0  0
    2.2230   -2.4503   -3.5533 H   0  0  0  0  0  0  0  0  0  0  0  0
    3.1759   -3.8434   -2.4074 O   0  0  0  0  0  0  0  0  0  0  0  0
    2.7966   -4.6882   -2.0499 H   0  0  0  0  0  0  0  0  0  0  0  0
    1.2052   -0.8607   -1.8323 O   0  0  0  0  0  0  0  0  0  0  0  0
    1.2868    0.2459   -0.9476 C   0  0  1  0  0  0  0  0  0  0  0  0
    2.3340    0.6337   -0.8780 H   0  0  0  0  0  0  0  0  0  0  0  0
    0.4221    1.2687   -1.3983 O   0  0  0  0  0  0  0  0  0  0  0  0
    0.9302    1.8740   -2.5689 C   0  0  0  0  0  0  0  0  0  0  0  0
    1.8578    2.4389   -2.3241 H   0  0  0  0  0  0  0  0  0  0  0  0
    1.1661    1.1240   -3.3582 H   0  0  0  0  0  0  0  0  0  0  0  0
   -0.1001    2.8680   -3.1162 C   0  0  0  0  0  0  0  0  0  0  0  0
   -0.4784    3.5151   -2.2966 H   0  0  0  0  0  0  0  0  0  0  0  0
    0.4182    3.5396   -3.8348 H   0  0  0  0  0  0  0  0  0  0  0  0
   -1.2705    2.2003   -3.8662 C   0  0  0  0  0  0  0  0  0  0  0  0
   -1.9399    2.9985   -4.2548 H   0  0  0  0  0  0  0  0  0  0  0  0
   -0.8657    1.6607   -4.7501 H   0  0  0  0  0  0  0  0  0  0  0  0
   -2.1101    1.2110   -3.0367 C   0  0  0  0  0  0  0  0  0  0  0  0
   -2.8962    0.7943   -3.7039 H   0  0  0  0  0  0  0  0  0  0  0  0
   -1.4836    0.3542   -2.7111 H   0  0  0  0  0  0  0  0  0  0  0  0
   -2.7932    1.8665   -1.8271 C   0  0  0  0  0  0  0  0  0  0  0  0
   -3.4345    2.7073   -2.1696 H   0  0  0  0  0  0  0  0  0  0  0  0
   -2.0352    2.2660   -1.1220 H   0  0  0  0  0  0  0  0  0  0  0  0
   -3.6547    0.8586   -1.0721 C   0  0  0  0  0  0  0  0  0  0  0  0
   -4.1363    1.3570   -0.2045 H   0  0  0  0  0  0  0  0  0  0  0  0
   -3.0274    0.0218   -0.6963 H   0  0  0  0  0  0  0  0  0  0  0  0
   -4.4486    0.4543   -1.7355 H   0  0  0  0  0  0  0  0  0  0  0  0
   -1.0107    0.2501    2.7694 C   0  0  0  0  0  0  0  0  0  0  0  0
   -1.4709    0.5626    3.7297 H   0  0  0  0  0  0  0  0  0  0  0  0
   -1.7954    0.2726    1.9844 H   0  0  0  0  0  0  0  0  0  0  0  0
   -0.6346   -0.7852    2.8930 H   0  0  0  0  0  0  0  0  0  0  0  0
  1  2  1  0
  2  3  1  0
  3  4  2  0
  4  5  1  0
  5  6  1  6
  5  7  1  0
  7  8  1  1
  7  9  1  0
  9 10  1  0
  7 11  1  0
 11 12  1  6
 11 13  1  0
 13 14  1  0
 11 15  1  0
 15 16  1  1
 15 17  1  0
 17 18  1  0
 17 19  1  0
 17 20  1  0
 20 21  1  0
 15 22  1  0
 22 23  1  0
 23 24  1  1
 23 25  1  0
 25 26  1  0
 26 27  1  0
 26 28  1  0
 26 29  1  0
 29 30  1  0
 29 31  1  0
 29 32  1  0
 32 33  1  0
 32 34  1  0
 32 35  1  0
 35 36  1  0
 35 37  1  0
 35 38  1  0
 38 39  1  0
 38 40  1  0
 38 41  1  0
 41 42  1  0
 41 43  1  0
 41 44  1  0
  3 45  1  0
 45 46  1  0
 45 47  1  0
 45 48  1  0
 23  5  1  0
M  END
>  <UniqueID>  (457) 
456

>  <SMILES>  (457) 
CCCCCCO[C@@H]1O[C@H](CO)[C@@H](O)[C@@H](O)[C@H]1/N=C(/C)O

>  <Energy>  (457) 
36.42366584668868

>  <Genealogy>  (457) 
CCCCCCO[C@@H]1O[C@H](CO)[C@@H](O)[C@@H](O)[C@H]1N=C(C)O (tautomer)
CCCCCCO[C@@H]1O[C@H](CO)[C@@H](O)[C@@H](O)[C@H]1/N=C(/C)O (cis-trans isomerization)
CCCCCCO[C@@H]1O[C@H](CO)[C@@H](O)[C@@H](O)[C@H]1/N=C(/C)O (3D coordinates assigned)
CCCCCCO[C@@H]1O[C@H](CO)[C@@H](O)[C@@H](O)[C@H]1/N=C(/C)O (nonaromatic ring conformer: 36.42366584668868 kcal/mol)

$$$$
ZINC000616582683
     RDKit          3D

 37 37  0  0  0  0  0  0  0  0999 V2000
    1.8606   -0.8672    3.4889 H   0  0  0  0  0  0  0  0  0  0  0  0
    1.3609   -0.8375    2.6084 O   0  0  0  0  0  0  0  0  0  0  0  0
   -0.0329   -0.8602    2.5687 C   0  0  0  0  0  0  0  0  0  0  0  0
   -0.6647   -0.8015    1.4348 N   0  0  0  0  0  0  0  0  0  0  0  0
   -0.0113   -0.7075    0.1272 C   0  0  1  0  0  0  0  0  0  0  0  0
    0.8258   -1.4418    0.0843 H   0  0  0  0  0  0  0  0  0  0  0  0
   -1.0148   -1.0869   -0.9805 C   0  0  1  0  0  0  0  0  0  0  0  0
   -1.2609   -2.1618   -0.8115 H   0  0  0  0  0  0  0  0  0  0  0  0
   -2.1866   -0.2918   -0.8810 O   0  0  0  0  0  0  0  0  0  0  0  0
   -3.2348   -0.8671   -1.6328 C   0  0  0  0  0  0  0  0  0  0  0  0
   -2.9419   -0.9814   -2.7008 H   0  0  0  0  0  0  0  0  0  0  0  0
   -3.5180   -1.8627   -1.2221 H   0  0  0  0  0  0  0  0  0  0  0  0
   -4.4333    0.0310   -1.5729 C   0  0  0  0  0  0  0  0  0  0  0  0
   -4.8118    0.4740   -2.4894 H   0  0  0  0  0  0  0  0  0  0  0  0
   -5.0526    0.2884   -0.4177 C   0  0  0  0  0  0  0  0  0  0  0  0
   -5.9213    0.9384   -0.4001 H   0  0  0  0  0  0  0  0  0  0  0  0
   -4.6992   -0.1447    0.5135 H   0  0  0  0  0  0  0  0  0  0  0  0
   -0.4164   -0.9775   -2.2657 O   0  0  0  0  0  0  0  0  0  0  0  0
   -0.0109    0.3542   -2.5456 C   0  0  2  0  0  0  0  0  0  0  0  0
   -0.8810    1.0477   -2.4814 H   0  0  0  0  0  0  0  0  0  0  0  0
    0.4809    0.4176   -3.9996 C   0  0  0  0  0  0  0  0  0  0  0  0
    0.7843    1.4561   -4.2685 H   0  0  0  0  0  0  0  0  0  0  0  0
   -0.3609    0.1440   -4.6709 H   0  0  0  0  0  0  0  0  0  0  0  0
    1.5290   -0.4903   -4.2169 O   0  0  0  0  0  0  0  0  0  0  0  0
    2.3760    0.0044   -4.0647 H   0  0  0  0  0  0  0  0  0  0  0  0
    1.0822    0.8151   -1.5531 C   0  0  1  0  0  0  0  0  0  0  0  0
    1.9676    0.1445   -1.6583 H   0  0  0  0  0  0  0  0  0  0  0  0
    1.4552    2.1408   -1.8314 O   0  0  0  0  0  0  0  0  0  0  0  0
    2.3164    2.2997   -1.3636 H   0  0  0  0  0  0  0  0  0  0  0  0
    0.5593    0.7076   -0.1107 C   0  0  1  0  0  0  0  0  0  0  0  0
    1.4210    0.8772    0.5768 H   0  0  0  0  0  0  0  0  0  0  0  0
   -0.4262    1.6872    0.1109 O   0  0  0  0  0  0  0  0  0  0  0  0
   -0.4464    1.8633    1.0877 H   0  0  0  0  0  0  0  0  0  0  0  0
   -0.8118   -0.9251    3.8426 C   0  0  0  0  0  0  0  0  0  0  0  0
   -0.8333    0.0802    4.3122 H   0  0  0  0  0  0  0  0  0  0  0  0
   -0.3323   -1.6433    4.5399 H   0  0  0  0  0  0  0  0  0  0  0  0
   -1.8539   -1.2591    3.6500 H   0  0  0  0  0  0  0  0  0  0  0  0
  1  2  1  0
  2  3  1  0
  3  4  2  0
  4  5  1  0
  5  6  1  1
  5  7  1  0
  7  8  1  1
  7  9  1  0
  9 10  1  0
 10 11  1  0
 10 12  1  0
 10 13  1  0
 13 14  1  0
 13 15  2  3
 15 16  1  0
 15 17  1  0
  7 18  1  0
 18 19  1  0
 19 20  1  6
 19 21  1  0
 21 22  1  0
 21 23  1  0
 21 24  1  0
 24 25  1  0
 19 26  1  0
 26 27  1  1
 26 28  1  0
 28 29  1  0
 26 30  1  0
 30 31  1  1
 30 32  1  0
 32 33  1  0
  3 34  1  0
 34 35  1  0
 34 36  1  0
 34 37  1  0
 30  5  1  0
M  END
>  <UniqueID>  (458) 
457

>  <SMILES>  (458) 
C=CCO[C@H]1O[C@H](CO)[C@@H](O)[C@@H](O)[C@H]1/N=C(/C)O

>  <Energy>  (458) 
30.673858364256294

>  <Genealogy>  (458) 
C=CCO[C@H]1O[C@H](CO)[C@@H](O)[C@@H](O)[C@H]1N=C(C)O (tautomer)
C=CCO[C@H]1O[C@H](CO)[C@@H](O)[C@@H](O)[C@H]1/N=C(/C)O (cis-trans isomerization)
C=CCO[C@H]1O[C@H](CO)[C@@H](O)[C@@H](O)[C@H]1/N=C(/C)O (3D coordinates assigned)
C=CCO[C@H]1O[C@H](CO)[C@@H](O)[C@@H](O)[C@H]1/N=C(/C)O (nonaromatic ring conformer: 30.673858364256294 kcal/mol)

$$$$
ZINC000616582683
     RDKit          3D

 37 37  0  0  0  0  0  0  0  0999 V2000
    2.9522    3.2722    1.1826 C   0  0  0  0  0  0  0  0  0  0  0  0
    2.4386    3.2313   -0.0500 C   0  0  0  0  0  0  0  0  0  0  0  0
    0.9804    2.9714   -0.2792 C   0  0  0  0  0  0  0  0  0  0  0  0
    0.6593    1.6822    0.1997 O   0  0  0  0  0  0  0  0  0  0  0  0
   -0.7041    1.3853   -0.0588 C   0  0  1  0  0  0  0  0  0  0  0  0
   -0.9321    1.1310   -1.4387 O   0  0  0  0  0  0  0  0  0  0  0  0
   -0.1938    0.0109   -1.9045 C   0  0  2  0  0  0  0  0  0  0  0  0
   -0.4137   -0.0930   -3.4211 C   0  0  0  0  0  0  0  0  0  0  0  0
    0.4874   -1.0044   -3.9946 O   0  0  0  0  0  0  0  0  0  0  0  0
   -0.6489   -1.2780   -1.1767 C   0  0  1  0  0  0  0  0  0  0  0  0
    0.0984   -2.3802   -1.6239 O   0  0  0  0  0  0  0  0  0  0  0  0
   -0.4734   -1.1092    0.3447 C   0  0  1  0  0  0  0  0  0  0  0  0
    0.8945   -1.0737    0.6747 O   0  0  0  0  0  0  0  0  0  0  0  0
   -1.1663    0.1894    0.8027 C   0  0  1  0  0  0  0  0  0  0  0  0
   -0.9209    0.4481    2.2279 N   0  0  0  0  0  0  0  0  0  0  0  0
   -1.7034    1.3816    2.9857 C   0  0  0  0  0  0  0  0  0  0  0  0
   -1.3631    1.6504    4.4152 C   0  0  0  0  0  0  0  0  0  0  0  0
   -2.7006    1.9519    2.4659 O   0  0  0  0  0  0  0  0  0  0  0  0
    4.0105    3.4658    1.3240 H   0  0  0  0  0  0  0  0  0  0  0  0
    2.3241    3.1134    2.0544 H   0  0  0  0  0  0  0  0  0  0  0  0
    3.0893    3.3985   -0.9033 H   0  0  0  0  0  0  0  0  0  0  0  0
    0.7820    3.0491   -1.3718 H   0  0  0  0  0  0  0  0  0  0  0  0
    0.3945    3.7521    0.2569 H   0  0  0  0  0  0  0  0  0  0  0  0
   -1.3500    2.2459    0.2306 H   0  0  0  0  0  0  0  0  0  0  0  0
    0.8973    0.1719   -1.7427 H   0  0  0  0  0  0  0  0  0  0  0  0
   -1.4740   -0.3629   -3.6414 H   0  0  0  0  0  0  0  0  0  0  0  0
   -0.2280    0.9027   -3.8779 H   0  0  0  0  0  0  0  0  0  0  0  0
   -0.0344   -1.8054   -4.2615 H   0  0  0  0  0  0  0  0  0  0  0  0
   -1.7303   -1.4443   -1.3975 H   0  0  0  0  0  0  0  0  0  0  0  0
   -0.3933   -3.1940   -1.3380 H   0  0  0  0  0  0  0  0  0  0  0  0
   -0.9667   -1.9647    0.8647 H   0  0  0  0  0  0  0  0  0  0  0  0
    1.2016   -2.0151    0.7431 H   0  0  0  0  0  0  0  0  0  0  0  0
   -2.2612    0.0520    0.6512 H   0  0  0  0  0  0  0  0  0  0  0  0
   -0.1793   -0.0874    2.7338 H   0  0  0  0  0  0  0  0  0  0  0  0
   -1.6363    0.7693    5.0321 H   0  0  0  0  0  0  0  0  0  0  0  0
   -1.9151    2.5399    4.7869 H   0  0  0  0  0  0  0  0  0  0  0  0
   -0.2736    1.8408    4.5112 H   0  0  0  0  0  0  0  0  0  0  0  0
  1  2  2  3
  2  3  1  0
  3  4  1  0
  4  5  1  0
  5  6  1  0
  6  7  1  0
  7  8  1  0
  8  9  1  0
  7 10  1  0
 10 11  1  0
 10 12  1  0
 12 13  1  0
 12 14  1  0
 14 15  1  0
 15 16  1  0
 16 17  1  0
 16 18  2  0
 14  5  1  0
  1 19  1  0
  1 20  1  0
  2 21  1  0
  3 22  1  0
  3 23  1  0
  5 24  1  1
  7 25  1  6
  8 26  1  0
  8 27  1  0
  9 28  1  0
 10 29  1  1
 11 30  1  0
 12 31  1  1
 13 32  1  0
 14 33  1  1
 15 34  1  0
 17 35  1  0
 17 36  1  0
 17 37  1  0
M  END
>  <UniqueID>  (459) 
458

>  <SMILES>  (459) 
C=CCO[C@H]1O[C@H](CO)[C@@H](O)[C@@H](O)[C@H]1NC(C)=O

>  <Energy>  (459) 
31.354350282375975

>  <Genealogy>  (459) 
C=CCO[C@H]1O[C@H](CO)[C@@H](O)[C@@H](O)[C@H]1NC(C)=O (3D coordinates assigned)
C=CCO[C@H]1O[C@H](CO)[C@@H](O)[C@@H](O)[C@H]1NC(C)=O (nonaromatic ring conformer: 31.354350282375975 kcal/mol)

$$$$
ZINC000616582683
     RDKit          3D

 37 37  0  0  0  0  0  0  0  0999 V2000
   -4.1833    0.5902   -1.2406 H   0  0  0  0  0  0  0  0  0  0  0  0
   -3.1973    0.3640   -1.1903 O   0  0  0  0  0  0  0  0  0  0  0  0
   -2.3775    0.9239   -0.2111 C   0  0  0  0  0  0  0  0  0  0  0  0
   -1.1177    0.6128   -0.1419 N   0  0  0  0  0  0  0  0  0  0  0  0
   -0.4366   -0.3276   -1.0386 C   0  0  1  0  0  0  0  0  0  0  0  0
   -0.8686   -0.2563   -2.0627 H   0  0  0  0  0  0  0  0  0  0  0  0
    1.0529    0.0419   -1.1294 C   0  0  1  0  0  0  0  0  0  0  0  0
    1.5262   -0.6356   -1.8788 H   0  0  0  0  0  0  0  0  0  0  0  0
    1.1509    1.3826   -1.5725 O   0  0  0  0  0  0  0  0  0  0  0  0
    2.4668    1.6612   -2.0067 C   0  0  0  0  0  0  0  0  0  0  0  0
    2.6976    1.0823   -2.9288 H   0  0  0  0  0  0  0  0  0  0  0  0
    3.2197    1.4136   -1.2236 H   0  0  0  0  0  0  0  0  0  0  0  0
    2.5810    3.1205   -2.3291 C   0  0  0  0  0  0  0  0  0  0  0  0
    2.8030    3.4242   -3.3480 H   0  0  0  0  0  0  0  0  0  0  0  0
    2.4293    4.0546   -1.3865 C   0  0  0  0  0  0  0  0  0  0  0  0
    2.5217    5.1050   -1.6426 H   0  0  0  0  0  0  0  0  0  0  0  0
    2.2129    3.7796   -0.3583 H   0  0  0  0  0  0  0  0  0  0  0  0
    1.6774   -0.0751    0.1428 O   0  0  0  0  0  0  0  0  0  0  0  0
    1.6651   -1.4078    0.6418 C   0  0  2  0  0  0  0  0  0  0  0  0
    2.0774   -1.3558    1.6735 H   0  0  0  0  0  0  0  0  0  0  0  0
    2.6231   -2.3451   -0.1265 C   0  0  0  0  0  0  0  0  0  0  0  0
    2.7590   -3.2920    0.4445 H   0  0  0  0  0  0  0  0  0  0  0  0
    2.2064   -2.6291   -1.1133 H   0  0  0  0  0  0  0  0  0  0  0  0
    3.8647   -1.7249   -0.3261 O   0  0  0  0  0  0  0  0  0  0  0  0
    4.3272   -1.7257    0.5524 H   0  0  0  0  0  0  0  0  0  0  0  0
    0.2288   -1.9775    0.7710 C   0  0  1  0  0  0  0  0  0  0  0  0
    0.2807   -3.0728    0.9790 H   0  0  0  0  0  0  0  0  0  0  0  0
   -0.4397   -1.3399    1.8311 O   0  0  0  0  0  0  0  0  0  0  0  0
   -0.1042   -1.7479    2.6719 H   0  0  0  0  0  0  0  0  0  0  0  0
   -0.5656   -1.7795   -0.5314 C   0  0  1  0  0  0  0  0  0  0  0  0
   -0.1362   -2.4616   -1.3024 H   0  0  0  0  0  0  0  0  0  0  0  0
   -1.9111   -2.1244   -0.3229 O   0  0  0  0  0  0  0  0  0  0  0  0
   -2.3125   -2.2675   -1.2198 H   0  0  0  0  0  0  0  0  0  0  0  0
   -2.9555    1.8740    0.7872 C   0  0  0  0  0  0  0  0  0  0  0  0
   -2.1541    2.4750    1.2679 H   0  0  0  0  0  0  0  0  0  0  0  0
   -3.4986    1.3018    1.5678 H   0  0  0  0  0  0  0  0  0  0  0  0
   -3.6627    2.5650    0.2829 H   0  0  0  0  0  0  0  0  0  0  0  0
  1  2  1  0
  2  3  1  0
  3  4  2  0
  4  5  1  0
  5  6  1  6
  5  7  1  0
  7  8  1  6
  7  9  1  0
  9 10  1  0
 10 11  1  0
 10 12  1  0
 10 13  1  0
 13 14  1  0
 13 15  2  3
 15 16  1  0
 15 17  1  0
  7 18  1  0
 18 19  1  0
 19 20  1  1
 19 21  1  0
 21 22  1  0
 21 23  1  0
 21 24  1  0
 24 25  1  0
 19 26  1  0
 26 27  1  1
 26 28  1  0
 28 29  1  0
 26 30  1  0
 30 31  1  6
 30 32  1  0
 32 33  1  0
  3 34  1  0
 34 35  1  0
 34 36  1  0
 34 37  1  0
 30  5  1  0
M  END
>  <UniqueID>  (460) 
459

>  <SMILES>  (460) 
C=CCO[C@H]1O[C@H](CO)[C@@H](O)[C@@H](O)[C@H]1/N=C(\C)O

>  <Energy>  (460) 
33.71560082089816

>  <Genealogy>  (460) 
C=CCO[C@H]1O[C@H](CO)[C@@H](O)[C@@H](O)[C@H]1N=C(C)O (tautomer)
C=CCO[C@H]1O[C@H](CO)[C@@H](O)[C@@H](O)[C@H]1/N=C(\C)O (cis-trans isomerization)
C=CCO[C@H]1O[C@H](CO)[C@@H](O)[C@@H](O)[C@H]1/N=C(\C)O (3D coordinates assigned)
C=CCO[C@H]1O[C@H](CO)[C@@H](O)[C@@H](O)[C@H]1/N=C(\C)O (nonaromatic ring conformer: 33.71560082089816 kcal/mol)

$$$$
ZINC000616582813
     RDKit          3D

 36 36  0  0  0  0  0  0  0  0999 V2000
   -2.8702    2.3973   -1.9372 H   0  0  0  0  0  0  0  0  0  0  0  0
   -2.3009    1.6299   -1.6010 O   0  0  0  0  0  0  0  0  0  0  0  0
   -2.8316    0.6522   -0.7598 C   0  0  0  0  0  0  0  0  0  0  0  0
   -2.0886   -0.3175   -0.3160 N   0  0  0  0  0  0  0  0  0  0  0  0
   -0.6652   -0.4879   -0.6219 C   0  0  2  0  0  0  0  0  0  0  0  0
   -0.4605   -0.1598   -1.6671 H   0  0  0  0  0  0  0  0  0  0  0  0
   -0.2978   -1.9778   -0.5154 C   0  0  2  0  0  0  0  0  0  0  0  0
   -0.8094   -2.5195   -1.3465 H   0  0  0  0  0  0  0  0  0  0  0  0
   -0.7297   -2.4871    0.7237 O   0  0  0  0  0  0  0  0  0  0  0  0
   -0.8538   -3.4653    0.6084 H   0  0  0  0  0  0  0  0  0  0  0  0
    1.2270   -2.1561   -0.6650 C   0  0  2  0  0  0  0  0  0  0  0  0
    1.5161   -1.8916   -1.7101 H   0  0  0  0  0  0  0  0  0  0  0  0
    1.5837   -3.4888   -0.4005 O   0  0  0  0  0  0  0  0  0  0  0  0
    1.2974   -4.0226   -1.1872 H   0  0  0  0  0  0  0  0  0  0  0  0
    1.9665   -1.2002    0.3030 C   0  0  1  0  0  0  0  0  0  0  0  0
    1.7370   -1.4756    1.3595 H   0  0  0  0  0  0  0  0  0  0  0  0
    3.4917   -1.2892    0.1255 C   0  0  0  0  0  0  0  0  0  0  0  0
    3.7578   -1.1341   -0.9420 H   0  0  0  0  0  0  0  0  0  0  0  0
    3.9846   -0.4788    0.7101 H   0  0  0  0  0  0  0  0  0  0  0  0
    3.9814   -2.5365    0.5393 O   0  0  0  0  0  0  0  0  0  0  0  0
    3.9696   -2.5320    1.5320 H   0  0  0  0  0  0  0  0  0  0  0  0
    1.5783    0.1399    0.0506 O   0  0  0  0  0  0  0  0  0  0  0  0
    0.2056    0.3373    0.3515 C   0  0  1  0  0  0  0  0  0  0  0  0
   -0.0283    0.0070    1.3953 H   0  0  0  0  0  0  0  0  0  0  0  0
   -0.1041    1.7074    0.1851 O   0  0  0  0  0  0  0  0  0  0  0  0
    0.3655    2.4545    1.2879 C   0  0  0  0  0  0  0  0  0  0  0  0
    1.4602    2.3107    1.4352 H   0  0  0  0  0  0  0  0  0  0  0  0
   -0.1761    2.1632    2.2162 H   0  0  0  0  0  0  0  0  0  0  0  0
    0.1087    3.9313    1.0326 C   0  0  0  0  0  0  0  0  0  0  0  0
    0.6482    4.2579    0.1183 H   0  0  0  0  0  0  0  0  0  0  0  0
    0.4671    4.5303    1.8962 H   0  0  0  0  0  0  0  0  0  0  0  0
   -0.9793    4.1094    0.8967 H   0  0  0  0  0  0  0  0  0  0  0  0
   -4.2650    0.7305   -0.3440 C   0  0  0  0  0  0  0  0  0  0  0  0
   -4.6133   -0.2459    0.0557 H   0  0  0  0  0  0  0  0  0  0  0  0
   -4.3780    1.5060    0.4418 H   0  0  0  0  0  0  0  0  0  0  0  0
   -4.8946    1.0015   -1.2170 H   0  0  0  0  0  0  0  0  0  0  0  0
  1  2  1  0
  2  3  1  0
  3  4  2  0
  4  5  1  0
  5  6  1  6
  5  7  1  0
  7  8  1  6
  7  9  1  0
  9 10  1  0
  7 11  1  0
 11 12  1  6
 11 13  1  0
 13 14  1  0
 11 15  1  0
 15 16  1  1
 15 17  1  0
 17 18  1  0
 17 19  1  0
 17 20  1  0
 20 21  1  0
 15 22  1  0
 22 23  1  0
 23 24  1  1
 23 25  1  0
 25 26  1  0
 26 27  1  0
 26 28  1  0
 26 29  1  0
 29 30  1  0
 29 31  1  0
 29 32  1  0
  3 33  1  0
 33 34  1  0
 33 35  1  0
 33 36  1  0
 23  5  1  0
M  END
>  <UniqueID>  (461) 
460

>  <SMILES>  (461) 
CCO[C@@H]1O[C@H](CO)[C@@H](O)[C@@H](O)[C@H]1/N=C(\C)O

>  <Energy>  (461) 
29.440132002117547

>  <Genealogy>  (461) 
CCO[C@@H]1O[C@H](CO)[C@@H](O)[C@@H](O)[C@H]1N=C(C)O (tautomer)
CCO[C@@H]1O[C@H](CO)[C@@H](O)[C@@H](O)[C@H]1/N=C(\C)O (cis-trans isomerization)
CCO[C@@H]1O[C@H](CO)[C@@H](O)[C@@H](O)[C@H]1/N=C(\C)O (3D coordinates assigned)
CCO[C@@H]1O[C@H](CO)[C@@H](O)[C@@H](O)[C@H]1/N=C(\C)O (nonaromatic ring conformer: 29.440132002117547 kcal/mol)

$$$$
ZINC000616582813
     RDKit          3D

 36 36  0  0  0  0  0  0  0  0999 V2000
    0.9405    3.2342   -3.0932 C   0  0  0  0  0  0  0  0  0  0  0  0
   -0.1414    2.7817   -2.1257 C   0  0  0  0  0  0  0  0  0  0  0  0
    0.4589    2.0952   -1.0474 O   0  0  0  0  0  0  0  0  0  0  0  0
   -0.5184    1.5613   -0.1685 C   0  0  2  0  0  0  0  0  0  0  0  0
   -0.2296    2.0355    1.1359 O   0  0  0  0  0  0  0  0  0  0  0  0
   -1.2033    1.5957    2.0706 C   0  0  2  0  0  0  0  0  0  0  0  0
   -0.9155    2.2868    3.4107 C   0  0  0  0  0  0  0  0  0  0  0  0
   -1.9938    2.1193    4.2896 O   0  0  0  0  0  0  0  0  0  0  0  0
   -1.1536    0.0511    2.2041 C   0  0  1  0  0  0  0  0  0  0  0  0
   -2.1398   -0.4044    3.0971 O   0  0  0  0  0  0  0  0  0  0  0  0
   -1.3781   -0.5986    0.8262 C   0  0  1  0  0  0  0  0  0  0  0  0
   -2.7094   -0.4076    0.4109 O   0  0  0  0  0  0  0  0  0  0  0  0
   -0.4107    0.0223   -0.1989 C   0  0  1  0  0  0  0  0  0  0  0  0
   -0.6916   -0.4835   -1.5477 N   0  0  0  0  0  0  0  0  0  0  0  0
    0.3455   -0.8015   -2.4873 C   0  0  0  0  0  0  0  0  0  0  0  0
   -0.0064   -1.1245   -3.9025 C   0  0  0  0  0  0  0  0  0  0  0  0
    1.5573   -0.7702   -2.1410 O   0  0  0  0  0  0  0  0  0  0  0  0
    1.4901    2.3522   -3.4859 H   0  0  0  0  0  0  0  0  0  0  0  0
    0.4797    3.7795   -3.9437 H   0  0  0  0  0  0  0  0  0  0  0  0
    1.6550    3.9092   -2.5762 H   0  0  0  0  0  0  0  0  0  0  0  0
   -0.6862    3.6793   -1.7557 H   0  0  0  0  0  0  0  0  0  0  0  0
   -0.8450    2.1184   -2.6788 H   0  0  0  0  0  0  0  0  0  0  0  0
   -1.5634    1.8565   -0.4486 H   0  0  0  0  0  0  0  0  0  0  0  0
   -2.2213    1.9169    1.7459 H   0  0  0  0  0  0  0  0  0  0  0  0
    0.0150    1.8735    3.8614 H   0  0  0  0  0  0  0  0  0  0  0  0
   -0.7626    3.3747    3.2302 H   0  0  0  0  0  0  0  0  0  0  0  0
   -1.7331    2.5697    5.1346 H   0  0  0  0  0  0  0  0  0  0  0  0
   -0.1371   -0.2488    2.5589 H   0  0  0  0  0  0  0  0  0  0  0  0
   -1.7021   -0.5329    3.9789 H   0  0  0  0  0  0  0  0  0  0  0  0
   -1.1544   -1.6897    0.8978 H   0  0  0  0  0  0  0  0  0  0  0  0
   -3.2492   -1.1325    0.8217 H   0  0  0  0  0  0  0  0  0  0  0  0
    0.6227   -0.2623    0.1030 H   0  0  0  0  0  0  0  0  0  0  0  0
   -1.6738   -0.4449   -1.9033 H   0  0  0  0  0  0  0  0  0  0  0  0
   -0.2896   -0.1915   -4.4329 H   0  0  0  0  0  0  0  0  0  0  0  0
   -0.8608   -1.8327   -3.9257 H   0  0  0  0  0  0  0  0  0  0  0  0
    0.8578   -1.5902   -4.4221 H   0  0  0  0  0  0  0  0  0  0  0  0
  1  2  1  0
  2  3  1  0
  3  4  1  0
  4  5  1  0
  5  6  1  0
  6  7  1  0
  7  8  1  0
  6  9  1  0
  9 10  1  0
  9 11  1  0
 11 12  1  0
 11 13  1  0
 13 14  1  0
 14 15  1  0
 15 16  1  0
 15 17  2  0
 13  4  1  0
  1 18  1  0
  1 19  1  0
  1 20  1  0
  2 21  1  0
  2 22  1  0
  4 23  1  6
  6 24  1  6
  7 25  1  0
  7 26  1  0
  8 27  1  0
  9 28  1  1
 10 29  1  0
 11 30  1  1
 12 31  1  0
 13 32  1  1
 14 33  1  0
 16 34  1  0
 16 35  1  0
 16 36  1  0
M  END
>  <UniqueID>  (462) 
461

>  <SMILES>  (462) 
CCO[C@@H]1O[C@H](CO)[C@@H](O)[C@@H](O)[C@H]1NC(C)=O

>  <Energy>  (462) 
30.314055542279814

>  <Genealogy>  (462) 
CCO[C@@H]1O[C@H](CO)[C@@H](O)[C@@H](O)[C@H]1NC(C)=O (3D coordinates assigned)
CCO[C@@H]1O[C@H](CO)[C@@H](O)[C@@H](O)[C@H]1NC(C)=O (nonaromatic ring conformer: 30.314055542279814 kcal/mol)

$$$$
ZINC000616582813
     RDKit          3D

 36 36  0  0  0  0  0  0  0  0999 V2000
   -4.1833   -0.9320   -3.0859 H   0  0  0  0  0  0  0  0  0  0  0  0
   -3.3805   -1.2034   -3.6417 O   0  0  0  0  0  0  0  0  0  0  0  0
   -2.0882   -1.1079   -3.1334 C   0  0  0  0  0  0  0  0  0  0  0  0
   -1.9154   -0.6507   -1.9251 N   0  0  0  0  0  0  0  0  0  0  0  0
   -0.6387   -0.4981   -1.2187 C   0  0  2  0  0  0  0  0  0  0  0  0
    0.1688   -0.2237   -1.9337 H   0  0  0  0  0  0  0  0  0  0  0  0
   -0.2616   -1.8081   -0.4996 C   0  0  2  0  0  0  0  0  0  0  0  0
   -0.0065   -2.5746   -1.2664 H   0  0  0  0  0  0  0  0  0  0  0  0
   -1.3491   -2.2534    0.2750 O   0  0  0  0  0  0  0  0  0  0  0  0
   -1.2452   -3.2345    0.3860 H   0  0  0  0  0  0  0  0  0  0  0  0
    0.9744   -1.5781    0.3946 C   0  0  2  0  0  0  0  0  0  0  0  0
    1.8561   -1.3824   -0.2613 H   0  0  0  0  0  0  0  0  0  0  0  0
    1.2165   -2.7156    1.1825 O   0  0  0  0  0  0  0  0  0  0  0  0
    1.6005   -3.4045    0.5793 H   0  0  0  0  0  0  0  0  0  0  0  0
    0.7528   -0.3384    1.2961 C   0  0  1  0  0  0  0  0  0  0  0  0
   -0.0887   -0.5282    2.0036 H   0  0  0  0  0  0  0  0  0  0  0  0
    2.0006   -0.0257    2.1390 C   0  0  0  0  0  0  0  0  0  0  0  0
    1.8718    0.9569    2.6484 H   0  0  0  0  0  0  0  0  0  0  0  0
    2.8909    0.0591    1.4797 H   0  0  0  0  0  0  0  0  0  0  0  0
    2.2355   -1.0265    3.0931 O   0  0  0  0  0  0  0  0  0  0  0  0
    1.5621   -0.8987    3.8114 H   0  0  0  0  0  0  0  0  0  0  0  0
    0.4737    0.7988    0.4964 O   0  0  0  0  0  0  0  0  0  0  0  0
   -0.7574    0.6439   -0.1921 C   0  0  1  0  0  0  0  0  0  0  0  0
   -1.5872    0.3967    0.5177 H   0  0  0  0  0  0  0  0  0  0  0  0
   -1.0471    1.8394   -0.8921 O   0  0  0  0  0  0  0  0  0  0  0  0
   -1.5126    2.8291    0.0022 C   0  0  0  0  0  0  0  0  0  0  0  0
   -0.7791    3.0112    0.8204 H   0  0  0  0  0  0  0  0  0  0  0  0
   -2.4912    2.5295    0.4409 H   0  0  0  0  0  0  0  0  0  0  0  0
   -1.7109    4.1321   -0.7564 C   0  0  0  0  0  0  0  0  0  0  0  0
   -0.7472    4.4657   -1.1964 H   0  0  0  0  0  0  0  0  0  0  0  0
   -2.0821    4.9173   -0.0643 H   0  0  0  0  0  0  0  0  0  0  0  0
   -2.4532    3.9888   -1.5702 H   0  0  0  0  0  0  0  0  0  0  0  0
   -0.9439   -1.5166   -4.0143 C   0  0  0  0  0  0  0  0  0  0  0  0
   -0.3527   -2.3236   -3.5380 H   0  0  0  0  0  0  0  0  0  0  0  0
   -0.2925   -0.6425   -4.2221 H   0  0  0  0  0  0  0  0  0  0  0  0
   -1.3307   -1.8983   -4.9824 H   0  0  0  0  0  0  0  0  0  0  0  0
  1  2  1  0
  2  3  1  0
  3  4  2  0
  4  5  1  0
  5  6  1  6
  5  7  1  0
  7  8  1  6
  7  9  1  0
  9 10  1  0
  7 11  1  0
 11 12  1  6
 11 13  1  0
 13 14  1  0
 11 15  1  0
 15 16  1  1
 15 17  1  0
 17 18  1  0
 17 19  1  0
 17 20  1  0
 20 21  1  0
 15 22  1  0
 22 23  1  0
 23 24  1  1
 23 25  1  0
 25 26  1  0
 26 27  1  0
 26 28  1  0
 26 29  1  0
 29 30  1  0
 29 31  1  0
 29 32  1  0
  3 33  1  0
 33 34  1  0
 33 35  1  0
 33 36  1  0
 23  5  1  0
M  END
>  <UniqueID>  (463) 
462

>  <SMILES>  (463) 
CCO[C@@H]1O[C@H](CO)[C@@H](O)[C@@H](O)[C@H]1/N=C(/C)O

>  <Energy>  (463) 
31.071406788152498

>  <Genealogy>  (463) 
CCO[C@@H]1O[C@H](CO)[C@@H](O)[C@@H](O)[C@H]1N=C(C)O (tautomer)
CCO[C@@H]1O[C@H](CO)[C@@H](O)[C@@H](O)[C@H]1/N=C(/C)O (cis-trans isomerization)
CCO[C@@H]1O[C@H](CO)[C@@H](O)[C@@H](O)[C@H]1/N=C(/C)O (3D coordinates assigned)
CCO[C@@H]1O[C@H](CO)[C@@H](O)[C@@H](O)[C@H]1/N=C(/C)O (nonaromatic ring conformer: 31.071406788152498 kcal/mol)

$$$$
ZINC000616582904
     RDKit          3D

 35 35  0  0  0  0  0  0  0  0999 V2000
   -3.3213   -3.8953   -3.7429 H   0  0  0  0  0  0  0  0  0  0  0  0
   -3.0584   -2.9815   -3.2784 C   0  0  0  0  0  0  0  0  0  0  0  0
   -2.7588   -1.9406   -2.7492 C   0  0  0  0  0  0  0  0  0  0  0  0
   -2.3952   -0.6773   -2.1068 C   0  0  0  0  0  0  0  0  0  0  0  0
   -1.9078   -0.0315   -2.8709 H   0  0  0  0  0  0  0  0  0  0  0  0
   -3.3301   -0.1946   -1.7454 H   0  0  0  0  0  0  0  0  0  0  0  0
   -1.5244   -0.9481   -1.0294 O   0  0  0  0  0  0  0  0  0  0  0  0
   -1.0780    0.2616   -0.4456 C   0  0  2  0  0  0  0  0  0  0  0  0
   -1.9391    0.9603   -0.2907 H   0  0  0  0  0  0  0  0  0  0  0  0
   -0.0936    0.8442   -1.2856 O   0  0  0  0  0  0  0  0  0  0  0  0
    0.3069    2.1103   -0.7883 C   0  0  2  0  0  0  0  0  0  0  0  0
   -0.5757    2.7826   -0.6703 H   0  0  0  0  0  0  0  0  0  0  0  0
    1.2421    2.7618   -1.8177 C   0  0  0  0  0  0  0  0  0  0  0  0
    1.5768    3.7639   -1.4649 H   0  0  0  0  0  0  0  0  0  0  0  0
    2.1462    2.1300   -1.9526 H   0  0  0  0  0  0  0  0  0  0  0  0
    0.5973    2.8831   -3.0570 O   0  0  0  0  0  0  0  0  0  0  0  0
   -0.0412    3.6387   -2.9725 H   0  0  0  0  0  0  0  0  0  0  0  0
    1.0206    1.9463    0.5732 C   0  0  1  0  0  0  0  0  0  0  0  0
    1.9327    1.3213    0.4199 H   0  0  0  0  0  0  0  0  0  0  0  0
    1.3907    3.2045    1.0770 O   0  0  0  0  0  0  0  0  0  0  0  0
    2.0503    3.0394    1.8005 H   0  0  0  0  0  0  0  0  0  0  0  0
    0.0916    1.2247    1.5710 C   0  0  1  0  0  0  0  0  0  0  0  0
    0.6846    0.9490    2.4733 H   0  0  0  0  0  0  0  0  0  0  0  0
   -0.9744    2.0653    1.9422 O   0  0  0  0  0  0  0  0  0  0  0  0
   -0.6423    2.6525    2.6705 H   0  0  0  0  0  0  0  0  0  0  0  0
   -0.4629   -0.0642    0.9292 C   0  0  1  0  0  0  0  0  0  0  0  0
    0.3656   -0.7880    0.7598 H   0  0  0  0  0  0  0  0  0  0  0  0
   -1.4856   -0.6688    1.7867 N   0  0  0  0  0  0  0  0  0  0  0  0
   -1.2792   -1.3545    2.8747 C   0  0  0  0  0  0  0  0  0  0  0  0
    0.0044   -1.6364    3.3506 O   0  0  0  0  0  0  0  0  0  0  0  0
    0.8515   -1.3496    2.8794 H   0  0  0  0  0  0  0  0  0  0  0  0
   -2.4545   -1.8814    3.6270 C   0  0  0  0  0  0  0  0  0  0  0  0
   -3.1903   -1.0674    3.7982 H   0  0  0  0  0  0  0  0  0  0  0  0
   -2.9354   -2.6943    3.0439 H   0  0  0  0  0  0  0  0  0  0  0  0
   -2.1317   -2.2838    4.6101 H   0  0  0  0  0  0  0  0  0  0  0  0
  1  2  1  0
  2  3  3  0
  3  4  1  0
  4  5  1  0
  4  6  1  0
  4  7  1  0
  7  8  1  0
  8  9  1  1
  8 10  1  0
 10 11  1  0
 11 12  1  1
 11 13  1  0
 13 14  1  0
 13 15  1  0
 13 16  1  0
 16 17  1  0
 11 18  1  0
 18 19  1  6
 18 20  1  0
 20 21  1  0
 18 22  1  0
 22 23  1  1
 22 24  1  0
 24 25  1  0
 22 26  1  0
 26 27  1  6
 26 28  1  0
 28 29  2  0
 29 30  1  0
 30 31  1  0
 29 32  1  0
 32 33  1  0
 32 34  1  0
 32 35  1  0
 26  8  1  0
M  END
>  <UniqueID>  (464) 
463

>  <SMILES>  (464) 
C#CCO[C@@H]1O[C@H](CO)[C@@H](O)[C@@H](O)[C@H]1/N=C(\C)O

>  <Energy>  (464) 
29.268838003104793

>  <Genealogy>  (464) 
C#CCO[C@@H]1O[C@H](CO)[C@@H](O)[C@@H](O)[C@H]1N=C(C)O (tautomer)
C#CCO[C@@H]1O[C@H](CO)[C@@H](O)[C@@H](O)[C@H]1/N=C(\C)O (cis-trans isomerization)
C#CCO[C@@H]1O[C@H](CO)[C@@H](O)[C@@H](O)[C@H]1/N=C(\C)O (3D coordinates assigned)
C#CCO[C@@H]1O[C@H](CO)[C@@H](O)[C@@H](O)[C@H]1/N=C(\C)O (nonaromatic ring conformer: 29.268838003104793 kcal/mol)

$$$$
ZINC000616582904
     RDKit          3D

 35 35  0  0  0  0  0  0  0  0999 V2000
   -0.4071   -2.8262   -3.4932 C   0  0  0  0  0  0  0  0  0  0  0  0
    0.4195   -2.2082   -2.8705 C   0  0  0  0  0  0  0  0  0  0  0  0
    1.4216   -1.4546   -2.1079 C   0  0  0  0  0  0  0  0  0  0  0  0
    0.9557   -1.2262   -0.7926 O   0  0  0  0  0  0  0  0  0  0  0  0
    0.2329   -0.0107   -0.7133 C   0  0  2  0  0  0  0  0  0  0  0  0
    1.1561    1.0612   -0.5966 O   0  0  0  0  0  0  0  0  0  0  0  0
    0.4833    2.3100   -0.5925 C   0  0  2  0  0  0  0  0  0  0  0  0
    1.5313    3.4291   -0.6364 C   0  0  0  0  0  0  0  0  0  0  0  0
    2.3904    3.3392    0.4674 O   0  0  0  0  0  0  0  0  0  0  0  0
   -0.4226    2.4293    0.6633 C   0  0  1  0  0  0  0  0  0  0  0  0
   -1.0887    3.6680    0.7176 O   0  0  0  0  0  0  0  0  0  0  0  0
   -1.4290    1.2635    0.7086 C   0  0  1  0  0  0  0  0  0  0  0  0
   -2.3873    1.4232   -0.3103 O   0  0  0  0  0  0  0  0  0  0  0  0
   -0.6713   -0.0690    0.5342 C   0  0  1  0  0  0  0  0  0  0  0  0
   -1.6113   -1.1909    0.4228 N   0  0  0  0  0  0  0  0  0  0  0  0
   -1.4581   -2.4137    1.1577 C   0  0  0  0  0  0  0  0  0  0  0  0
   -2.3702   -3.5643    0.8823 C   0  0  0  0  0  0  0  0  0  0  0  0
   -0.5425   -2.5380    2.0153 O   0  0  0  0  0  0  0  0  0  0  0  0
   -1.1334   -3.3686   -4.0391 H   0  0  0  0  0  0  0  0  0  0  0  0
    2.3422   -2.0707   -2.0489 H   0  0  0  0  0  0  0  0  0  0  0  0
    1.6906   -0.5185   -2.6502 H   0  0  0  0  0  0  0  0  0  0  0  0
   -0.4208    0.1216   -1.6128 H   0  0  0  0  0  0  0  0  0  0  0  0
   -0.1361    2.4149   -1.5143 H   0  0  0  0  0  0  0  0  0  0  0  0
    2.1220    3.3317   -1.5749 H   0  0  0  0  0  0  0  0  0  0  0  0
    1.0282    4.4218   -0.6467 H   0  0  0  0  0  0  0  0  0  0  0  0
    3.0353    4.0878    0.3757 H   0  0  0  0  0  0  0  0  0  0  0  0
    0.2200    2.3543    1.5684 H   0  0  0  0  0  0  0  0  0  0  0  0
   -1.5606    3.7999   -0.1457 H   0  0  0  0  0  0  0  0  0  0  0  0
   -1.9226    1.2704    1.7102 H   0  0  0  0  0  0  0  0  0  0  0  0
   -3.2501    1.0806    0.0415 H   0  0  0  0  0  0  0  0  0  0  0  0
   -0.0211   -0.2029    1.4278 H   0  0  0  0  0  0  0  0  0  0  0  0
   -2.3365   -1.1636   -0.3296 H   0  0  0  0  0  0  0  0  0  0  0  0
   -3.4249   -3.2190    0.9032 H   0  0  0  0  0  0  0  0  0  0  0  0
   -2.1424   -3.9835   -0.1198 H   0  0  0  0  0  0  0  0  0  0  0  0
   -2.2386   -4.3592    1.6469 H   0  0  0  0  0  0  0  0  0  0  0  0
  1  2  3  0
  2  3  1  0
  3  4  1  0
  4  5  1  0
  5  6  1  0
  6  7  1  0
  7  8  1  0
  8  9  1  0
  7 10  1  0
 10 11  1  0
 10 12  1  0
 12 13  1  0
 12 14  1  0
 14 15  1  0
 15 16  1  0
 16 17  1  0
 16 18  2  0
 14  5  1  0
  1 19  1  0
  3 20  1  0
  3 21  1  0
  5 22  1  6
  7 23  1  6
  8 24  1  0
  8 25  1  0
  9 26  1  0
 10 27  1  1
 11 28  1  0
 12 29  1  1
 13 30  1  0
 14 31  1  1
 15 32  1  0
 17 33  1  0
 17 34  1  0
 17 35  1  0
M  END
>  <UniqueID>  (465) 
464

>  <SMILES>  (465) 
C#CCO[C@@H]1O[C@H](CO)[C@@H](O)[C@@H](O)[C@H]1NC(C)=O

>  <Energy>  (465) 
30.435826132098807

>  <Genealogy>  (465) 
C#CCO[C@@H]1O[C@H](CO)[C@@H](O)[C@@H](O)[C@H]1NC(C)=O (3D coordinates assigned)
C#CCO[C@@H]1O[C@H](CO)[C@@H](O)[C@@H](O)[C@H]1NC(C)=O (nonaromatic ring conformer: 30.435826132098807 kcal/mol)

$$$$
ZINC000616582904
     RDKit          3D

 35 35  0  0  0  0  0  0  0  0999 V2000
   -2.4227    4.6204   -3.7667 H   0  0  0  0  0  0  0  0  0  0  0  0
   -1.8603    3.7993   -3.4069 C   0  0  0  0  0  0  0  0  0  0  0  0
   -1.2197    2.8640   -2.9969 C   0  0  0  0  0  0  0  0  0  0  0  0
   -0.4421    1.7288   -2.4993 C   0  0  0  0  0  0  0  0  0  0  0  0
    0.6327    1.9355   -2.6983 H   0  0  0  0  0  0  0  0  0  0  0  0
   -0.7624    0.8218   -3.0587 H   0  0  0  0  0  0  0  0  0  0  0  0
   -0.6755    1.5891   -1.1142 O   0  0  0  0  0  0  0  0  0  0  0  0
   -0.0120    0.4408   -0.6198 C   0  0  2  0  0  0  0  0  0  0  0  0
    1.0386    0.4015   -1.0051 H   0  0  0  0  0  0  0  0  0  0  0  0
   -0.7399   -0.7151   -1.0051 O   0  0  0  0  0  0  0  0  0  0  0  0
   -0.0565   -1.8958   -0.6181 C   0  0  2  0  0  0  0  0  0  0  0  0
    0.9752   -1.9000   -1.0427 H   0  0  0  0  0  0  0  0  0  0  0  0
   -0.8074   -3.0937   -1.2234 C   0  0  0  0  0  0  0  0  0  0  0  0
   -1.7887   -3.2206   -0.7181 H   0  0  0  0  0  0  0  0  0  0  0  0
   -1.0136   -2.9011   -2.3013 H   0  0  0  0  0  0  0  0  0  0  0  0
   -0.0688   -4.2785   -1.0884 O   0  0  0  0  0  0  0  0  0  0  0  0
    0.6611   -4.2375   -1.7602 H   0  0  0  0  0  0  0  0  0  0  0  0
    0.0078   -1.9850    0.9279 C   0  0  1  0  0  0  0  0  0  0  0  0
   -1.0343   -2.0114    1.3312 H   0  0  0  0  0  0  0  0  0  0  0  0
    0.7215   -3.1276    1.3313 O   0  0  0  0  0  0  0  0  0  0  0  0
    0.0547   -3.8278    1.5563 H   0  0  0  0  0  0  0  0  0  0  0  0
    0.6951   -0.7299    1.4978 C   0  0  1  0  0  0  0  0  0  0  0  0
    0.5625   -0.7265    2.6038 H   0  0  0  0  0  0  0  0  0  0  0  0
    2.0671   -0.7372    1.1828 O   0  0  0  0  0  0  0  0  0  0  0  0
    2.5219   -1.2878    1.8724 H   0  0  0  0  0  0  0  0  0  0  0  0
    0.0366    0.5370    0.9168 C   0  0  1  0  0  0  0  0  0  0  0  0
   -1.0123    0.6087    1.2817 H   0  0  0  0  0  0  0  0  0  0  0  0
    0.7943    1.7319    1.3047 N   0  0  0  0  0  0  0  0  0  0  0  0
    0.6516    2.4241    2.3999 C   0  0  0  0  0  0  0  0  0  0  0  0
    1.4751    3.5255    2.6155 O   0  0  0  0  0  0  0  0  0  0  0  0
    2.1841    3.7893    1.9413 H   0  0  0  0  0  0  0  0  0  0  0  0
   -0.3851    2.0959    3.4343 C   0  0  0  0  0  0  0  0  0  0  0  0
   -0.2399    1.0678    3.8209 H   0  0  0  0  0  0  0  0  0  0  0  0
   -0.3019    2.8002    4.2885 H   0  0  0  0  0  0  0  0  0  0  0  0
   -1.4014    2.1968    2.9999 H   0  0  0  0  0  0  0  0  0  0  0  0
  1  2  1  0
  2  3  3  0
  3  4  1  0
  4  5  1  0
  4  6  1  0
  4  7  1  0
  7  8  1  0
  8  9  1  6
  8 10  1  0
 10 11  1  0
 11 12  1  6
 11 13  1  0
 13 14  1  0
 13 15  1  0
 13 16  1  0
 16 17  1  0
 11 18  1  0
 18 19  1  1
 18 20  1  0
 20 21  1  0
 18 22  1  0
 22 23  1  1
 22 24  1  0
 24 25  1  0
 22 26  1  0
 26 27  1  1
 26 28  1  0
 28 29  2  0
 29 30  1  0
 30 31  1  0
 29 32  1  0
 32 33  1  0
 32 34  1  0
 32 35  1  0
 26  8  1  0
M  END
>  <UniqueID>  (466) 
465

>  <SMILES>  (466) 
C#CCO[C@@H]1O[C@H](CO)[C@@H](O)[C@@H](O)[C@H]1/N=C(/C)O

>  <Energy>  (466) 
31.06655928874912

>  <Genealogy>  (466) 
C#CCO[C@@H]1O[C@H](CO)[C@@H](O)[C@@H](O)[C@H]1N=C(C)O (tautomer)
C#CCO[C@@H]1O[C@H](CO)[C@@H](O)[C@@H](O)[C@H]1/N=C(/C)O (cis-trans isomerization)
C#CCO[C@@H]1O[C@H](CO)[C@@H](O)[C@@H](O)[C@H]1/N=C(/C)O (3D coordinates assigned)
C#CCO[C@@H]1O[C@H](CO)[C@@H](O)[C@@H](O)[C@H]1/N=C(/C)O (nonaromatic ring conformer: 31.06655928874912 kcal/mol)

$$$$
ZINC000616583702
     RDKit          3D

 45 45  0  0  0  0  0  0  0  0999 V2000
   -0.3099    3.8845    5.2821 C   0  0  0  0  0  0  0  0  0  0  0  0
   -0.3330    3.7364    3.7641 C   0  0  0  0  0  0  0  0  0  0  0  0
   -0.1461    2.2721    3.3437 C   0  0  0  0  0  0  0  0  0  0  0  0
   -0.1185    2.1432    1.8168 C   0  0  0  0  0  0  0  0  0  0  0  0
    0.0042    0.6839    1.3775 C   0  0  0  0  0  0  0  0  0  0  0  0
    0.0069    0.6375   -0.0339 O   0  0  0  0  0  0  0  0  0  0  0  0
    0.1258   -0.6976   -0.4872 C   0  0  2  0  0  0  0  0  0  0  0  0
    1.4609   -1.1404   -0.2914 O   0  0  0  0  0  0  0  0  0  0  0  0
    1.5973   -2.5043   -0.6575 C   0  0  2  0  0  0  0  0  0  0  0  0
    2.9973   -2.9839   -0.2549 C   0  0  0  0  0  0  0  0  0  0  0  0
    3.9812   -2.2155   -0.8910 O   0  0  0  0  0  0  0  0  0  0  0  0
    1.3527   -2.6765   -2.1803 C   0  0  1  0  0  0  0  0  0  0  0  0
    1.5042   -4.0139   -2.5923 O   0  0  0  0  0  0  0  0  0  0  0  0
   -0.0412   -2.1425   -2.5606 C   0  0  1  0  0  0  0  0  0  0  0  0
   -1.0342   -3.0018   -2.0558 O   0  0  0  0  0  0  0  0  0  0  0  0
   -0.2198   -0.7218   -1.9907 C   0  0  1  0  0  0  0  0  0  0  0  0
   -1.5932   -0.2525   -2.2025 N   0  0  0  0  0  0  0  0  0  0  0  0
   -1.9615    0.6153   -3.2919 C   0  0  0  0  0  0  0  0  0  0  0  0
   -3.3927    1.0013   -3.4800 C   0  0  0  0  0  0  0  0  0  0  0  0
   -1.0949    1.0185   -4.1236 O   0  0  0  0  0  0  0  0  0  0  0  0
   -1.1314    3.2898    5.7412 H   0  0  0  0  0  0  0  0  0  0  0  0
   -0.4569    4.9506    5.5535 H   0  0  0  0  0  0  0  0  0  0  0  0
    0.6650    3.5409    5.6888 H   0  0  0  0  0  0  0  0  0  0  0  0
    0.4762    4.3601    3.3273 H   0  0  0  0  0  0  0  0  0  0  0  0
   -1.3097    4.1120    3.3874 H   0  0  0  0  0  0  0  0  0  0  0  0
    0.8091    1.8815    3.7606 H   0  0  0  0  0  0  0  0  0  0  0  0
   -0.9830    1.6646    3.7549 H   0  0  0  0  0  0  0  0  0  0  0  0
   -1.0524    2.5733    1.3894 H   0  0  0  0  0  0  0  0  0  0  0  0
    0.7448    2.7157    1.4125 H   0  0  0  0  0  0  0  0  0  0  0  0
    0.9515    0.2633    1.7868 H   0  0  0  0  0  0  0  0  0  0  0  0
   -0.8637    0.1170    1.7856 H   0  0  0  0  0  0  0  0  0  0  0  0
   -0.5976   -1.3579    0.0537 H   0  0  0  0  0  0  0  0  0  0  0  0
    0.8709   -3.1297   -0.0880 H   0  0  0  0  0  0  0  0  0  0  0  0
    3.1078   -2.8851    0.8475 H   0  0  0  0  0  0  0  0  0  0  0  0
    3.1212   -4.0584   -0.5195 H   0  0  0  0  0  0  0  0  0  0  0  0
    4.8529   -2.6082   -0.6198 H   0  0  0  0  0  0  0  0  0  0  0  0
    2.1059   -2.0685   -2.7277 H   0  0  0  0  0  0  0  0  0  0  0  0
    0.9460   -4.5811   -1.9995 H   0  0  0  0  0  0  0  0  0  0  0  0
   -0.1037   -2.0980   -3.6736 H   0  0  0  0  0  0  0  0  0  0  0  0
   -1.8153   -2.9337   -2.6640 H   0  0  0  0  0  0  0  0  0  0  0  0
    0.4949   -0.0438   -2.5090 H   0  0  0  0  0  0  0  0  0  0  0  0
   -2.3538   -0.6415   -1.5948 H   0  0  0  0  0  0  0  0  0  0  0  0
   -3.8858    1.1346   -2.4921 H   0  0  0  0  0  0  0  0  0  0  0  0
   -3.9171    0.2040   -4.0469 H   0  0  0  0  0  0  0  0  0  0  0  0
   -3.4611    1.9564   -4.0447 H   0  0  0  0  0  0  0  0  0  0  0  0
  1  2  1  0
  2  3  1  0
  3  4  1  0
  4  5  1  0
  5  6  1  0
  6  7  1  0
  7  8  1  0
  8  9  1  0
  9 10  1  0
 10 11  1  0
  9 12  1  0
 12 13  1  0
 12 14  1  0
 14 15  1  0
 14 16  1  0
 16 17  1  0
 17 18  1  0
 18 19  1  0
 18 20  2  0
 16  7  1  0
  1 21  1  0
  1 22  1  0
  1 23  1  0
  2 24  1  0
  2 25  1  0
  3 26  1  0
  3 27  1  0
  4 28  1  0
  4 29  1  0
  5 30  1  0
  5 31  1  0
  7 32  1  1
  9 33  1  1
 10 34  1  0
 10 35  1  0
 11 36  1  0
 12 37  1  6
 13 38  1  0
 14 39  1  6
 15 40  1  0
 16 41  1  6
 17 42  1  0
 19 43  1  0
 19 44  1  0
 19 45  1  0
M  END
>  <UniqueID>  (467) 
466

>  <SMILES>  (467) 
CCCCCO[C@@H]1O[C@H](CO)[C@@H](O)[C@@H](O)[C@H]1NC(C)=O

>  <Energy>  (467) 
31.877409293436973

>  <Genealogy>  (467) 
CCCCCO[C@@H]1O[C@H](CO)[C@@H](O)[C@@H](O)[C@H]1NC(C)=O (3D coordinates assigned)
CCCCCO[C@@H]1O[C@H](CO)[C@@H](O)[C@@H](O)[C@H]1NC(C)=O (nonaromatic ring conformer: 31.877409293436973 kcal/mol)

$$$$
ZINC000616583702
     RDKit          3D

 45 45  0  0  0  0  0  0  0  0999 V2000
   -3.2651    4.1283   -1.8930 H   0  0  0  0  0  0  0  0  0  0  0  0
   -2.8225    3.3055   -1.5020 O   0  0  0  0  0  0  0  0  0  0  0  0
   -2.0044    3.3912   -0.3773 C   0  0  0  0  0  0  0  0  0  0  0  0
   -1.4172    2.3331    0.0960 N   0  0  0  0  0  0  0  0  0  0  0  0
   -1.5629    0.9872   -0.4644 C   0  0  2  0  0  0  0  0  0  0  0  0
   -1.4498    1.0344   -1.5720 H   0  0  0  0  0  0  0  0  0  0  0  0
   -2.9449    0.3968   -0.1202 C   0  0  2  0  0  0  0  0  0  0  0  0
   -3.7197    0.9639   -0.6895 H   0  0  0  0  0  0  0  0  0  0  0  0
   -3.1834    0.5140    1.2623 O   0  0  0  0  0  0  0  0  0  0  0  0
   -4.1685    0.5458    1.3806 H   0  0  0  0  0  0  0  0  0  0  0  0
   -3.0076   -1.0832   -0.5541 C   0  0  2  0  0  0  0  0  0  0  0  0
   -2.9944   -1.1243   -1.6688 H   0  0  0  0  0  0  0  0  0  0  0  0
   -4.1884   -1.6783   -0.0794 O   0  0  0  0  0  0  0  0  0  0  0  0
   -4.9366   -1.2895   -0.6064 H   0  0  0  0  0  0  0  0  0  0  0  0
   -1.7716   -1.8506   -0.0222 C   0  0  1  0  0  0  0  0  0  0  0  0
   -1.7950   -1.8874    1.0927 H   0  0  0  0  0  0  0  0  0  0  0  0
   -1.7570   -3.3013   -0.5284 C   0  0  0  0  0  0  0  0  0  0  0  0
   -1.8925   -3.3207   -1.6347 H   0  0  0  0  0  0  0  0  0  0  0  0
   -0.7706   -3.7601   -0.2907 H   0  0  0  0  0  0  0  0  0  0  0  0
   -2.7639   -4.0476    0.0982 O   0  0  0  0  0  0  0  0  0  0  0  0
   -2.7868   -4.9246   -0.3687 H   0  0  0  0  0  0  0  0  0  0  0  0
   -0.5799   -1.2226   -0.4666 O   0  0  0  0  0  0  0  0  0  0  0  0
   -0.4522    0.0761    0.0882 C   0  0  1  0  0  0  0  0  0  0  0  0
   -0.5447    0.0485    1.2034 H   0  0  0  0  0  0  0  0  0  0  0  0
    0.7987    0.6152   -0.2987 O   0  0  0  0  0  0  0  0  0  0  0  0
    1.8265    0.1127    0.5313 C   0  0  0  0  0  0  0  0  0  0  0  0
    1.7000    0.5033    1.5669 H   0  0  0  0  0  0  0  0  0  0  0  0
    1.8109   -1.0010    0.5468 H   0  0  0  0  0  0  0  0  0  0  0  0
    3.1782    0.5820   -0.0130 C   0  0  0  0  0  0  0  0  0  0  0  0
    3.1266    1.6813   -0.1823 H   0  0  0  0  0  0  0  0  0  0  0  0
    3.3706    0.1095   -1.0004 H   0  0  0  0  0  0  0  0  0  0  0  0
    4.3474    0.3065    0.9538 C   0  0  0  0  0  0  0  0  0  0  0  0
    5.2709    0.7586    0.5321 H   0  0  0  0  0  0  0  0  0  0  0  0
    4.1470    0.8237    1.9187 H   0  0  0  0  0  0  0  0  0  0  0  0
    4.6086   -1.1839    1.2404 C   0  0  0  0  0  0  0  0  0  0  0  0
    3.7218   -1.6521    1.7143 H   0  0  0  0  0  0  0  0  0  0  0  0
    5.4440   -1.2522    1.9734 H   0  0  0  0  0  0  0  0  0  0  0  0
    5.0033   -1.9738   -0.0074 C   0  0  0  0  0  0  0  0  0  0  0  0
    4.1371   -2.0812   -0.6921 H   0  0  0  0  0  0  0  0  0  0  0  0
    5.3348   -2.9910    0.2878 H   0  0  0  0  0  0  0  0  0  0  0  0
    5.8389   -1.4721   -0.5384 H   0  0  0  0  0  0  0  0  0  0  0  0
   -1.7670    4.7168    0.2707 C   0  0  0  0  0  0  0  0  0  0  0  0
   -1.0167    5.2844   -0.3198 H   0  0  0  0  0  0  0  0  0  0  0  0
   -1.3866    4.5858    1.3054 H   0  0  0  0  0  0  0  0  0  0  0  0
   -2.7156    5.2929    0.3094 H   0  0  0  0  0  0  0  0  0  0  0  0
  1  2  1  0
  2  3  1  0
  3  4  2  0
  4  5  1  0
  5  6  1  6
  5  7  1  0
  7  8  1  6
  7  9  1  0
  9 10  1  0
  7 11  1  0
 11 12  1  6
 11 13  1  0
 13 14  1  0
 11 15  1  0
 15 16  1  1
 15 17  1  0
 17 18  1  0
 17 19  1  0
 17 20  1  0
 20 21  1  0
 15 22  1  0
 22 23  1  0
 23 24  1  1
 23 25  1  0
 25 26  1  0
 26 27  1  0
 26 28  1  0
 26 29  1  0
 29 30  1  0
 29 31  1  0
 29 32  1  0
 32 33  1  0
 32 34  1  0
 32 35  1  0
 35 36  1  0
 35 37  1  0
 35 38  1  0
 38 39  1  0
 38 40  1  0
 38 41  1  0
  3 42  1  0
 42 43  1  0
 42 44  1  0
 42 45  1  0
 23  5  1  0
M  END
>  <UniqueID>  (468) 
467

>  <SMILES>  (468) 
CCCCCO[C@@H]1O[C@H](CO)[C@@H](O)[C@@H](O)[C@H]1/N=C(\C)O

>  <Energy>  (468) 
33.09147412749163

>  <Genealogy>  (468) 
CCCCCO[C@@H]1O[C@H](CO)[C@@H](O)[C@@H](O)[C@H]1N=C(C)O (tautomer)
CCCCCO[C@@H]1O[C@H](CO)[C@@H](O)[C@@H](O)[C@H]1/N=C(\C)O (cis-trans isomerization)
CCCCCO[C@@H]1O[C@H](CO)[C@@H](O)[C@@H](O)[C@H]1/N=C(\C)O (3D coordinates assigned)
CCCCCO[C@@H]1O[C@H](CO)[C@@H](O)[C@@H](O)[C@H]1/N=C(\C)O (nonaromatic ring conformer: 33.09147412749163 kcal/mol)

$$$$
ZINC000616583702
     RDKit          3D

 45 45  0  0  0  0  0  0  0  0999 V2000
   -1.7872   -3.9245    2.4449 H   0  0  0  0  0  0  0  0  0  0  0  0
   -1.6489   -3.0581    1.9388 O   0  0  0  0  0  0  0  0  0  0  0  0
   -0.7136   -2.9653    0.9085 C   0  0  0  0  0  0  0  0  0  0  0  0
   -0.5280   -1.8427    0.2817 N   0  0  0  0  0  0  0  0  0  0  0  0
   -1.2689   -0.6090    0.5552 C   0  0  2  0  0  0  0  0  0  0  0  0
   -1.3242   -0.4483    1.6567 H   0  0  0  0  0  0  0  0  0  0  0  0
   -2.7082   -0.6934   -0.0062 C   0  0  2  0  0  0  0  0  0  0  0  0
   -3.2948   -1.3648    0.6577 H   0  0  0  0  0  0  0  0  0  0  0  0
   -2.7327   -1.2684   -1.2925 O   0  0  0  0  0  0  0  0  0  0  0  0
   -2.2439   -0.6699   -1.9121 H   0  0  0  0  0  0  0  0  0  0  0  0
   -3.3915    0.6941    0.0248 C   0  0  2  0  0  0  0  0  0  0  0  0
   -3.6075    0.9291    1.0910 H   0  0  0  0  0  0  0  0  0  0  0  0
   -4.6214    0.6593   -0.6575 O   0  0  0  0  0  0  0  0  0  0  0  0
   -4.4291    0.5874   -1.6285 H   0  0  0  0  0  0  0  0  0  0  0  0
   -2.4481    1.8024   -0.5198 C   0  0  1  0  0  0  0  0  0  0  0  0
   -2.2589    1.6547   -1.6083 H   0  0  0  0  0  0  0  0  0  0  0  0
   -3.0711    3.1986   -0.3537 C   0  0  0  0  0  0  0  0  0  0  0  0
   -3.3677    3.3572    0.7052 H   0  0  0  0  0  0  0  0  0  0  0  0
   -2.3156    3.9780   -0.6053 H   0  0  0  0  0  0  0  0  0  0  0  0
   -4.2012    3.3536   -1.1698 O   0  0  0  0  0  0  0  0  0  0  0  0
   -3.8683    3.4699   -2.0979 H   0  0  0  0  0  0  0  0  0  0  0  0
   -1.2244    1.7874    0.1953 O   0  0  0  0  0  0  0  0  0  0  0  0
   -0.5099    0.5869   -0.0500 C   0  0  1  0  0  0  0  0  0  0  0  0
   -0.3828    0.4100   -1.1467 H   0  0  0  0  0  0  0  0  0  0  0  0
    0.7517    0.6666    0.5853 O   0  0  0  0  0  0  0  0  0  0  0  0
    1.6341    1.4757   -0.1659 C   0  0  0  0  0  0  0  0  0  0  0  0
    1.7782    1.0722   -1.1930 H   0  0  0  0  0  0  0  0  0  0  0  0
    1.2368    2.5125   -0.2494 H   0  0  0  0  0  0  0  0  0  0  0  0
    2.9953    1.5445    0.5337 C   0  0  0  0  0  0  0  0  0  0  0  0
    2.8709    2.1001    1.4886 H   0  0  0  0  0  0  0  0  0  0  0  0
    3.7013    2.1322   -0.0907 H   0  0  0  0  0  0  0  0  0  0  0  0
    3.6000    0.1637    0.8580 C   0  0  0  0  0  0  0  0  0  0  0  0
    4.5763    0.3171    1.3673 H   0  0  0  0  0  0  0  0  0  0  0  0
    2.9405   -0.3608    1.5832 H   0  0  0  0  0  0  0  0  0  0  0  0
    3.8120   -0.7524   -0.3601 C   0  0  0  0  0  0  0  0  0  0  0  0
    4.2229   -1.7195    0.0026 H   0  0  0  0  0  0  0  0  0  0  0  0
    2.8430   -0.9779   -0.8534 H   0  0  0  0  0  0  0  0  0  0  0  0
    4.7901   -0.1704   -1.3795 C   0  0  0  0  0  0  0  0  0  0  0  0
    5.0074   -0.9313   -2.1584 H   0  0  0  0  0  0  0  0  0  0  0  0
    5.7437    0.1128   -0.8854 H   0  0  0  0  0  0  0  0  0  0  0  0
    4.3524    0.7186   -1.8790 H   0  0  0  0  0  0  0  0  0  0  0  0
    0.1157   -4.1548    0.5464 C   0  0  0  0  0  0  0  0  0  0  0  0
    0.5251   -4.0490   -0.4811 H   0  0  0  0  0  0  0  0  0  0  0  0
   -0.5056   -5.0737    0.5873 H   0  0  0  0  0  0  0  0  0  0  0  0
    0.9562   -4.2500    1.2646 H   0  0  0  0  0  0  0  0  0  0  0  0
  1  2  1  0
  2  3  1  0
  3  4  2  0
  4  5  1  0
  5  6  1  1
  5  7  1  0
  7  8  1  1
  7  9  1  0
  9 10  1  0
  7 11  1  0
 11 12  1  1
 11 13  1  0
 13 14  1  0
 11 15  1  0
 15 16  1  6
 15 17  1  0
 17 18  1  0
 17 19  1  0
 17 20  1  0
 20 21  1  0
 15 22  1  0
 22 23  1  0
 23 24  1  6
 23 25  1  0
 25 26  1  0
 26 27  1  0
 26 28  1  0
 26 29  1  0
 29 30  1  0
 29 31  1  0
 29 32  1  0
 32 33  1  0
 32 34  1  0
 32 35  1  0
 35 36  1  0
 35 37  1  0
 35 38  1  0
 38 39  1  0
 38 40  1  0
 38 41  1  0
  3 42  1  0
 42 43  1  0
 42 44  1  0
 42 45  1  0
 23  5  1  0
M  END
>  <UniqueID>  (469) 
468

>  <SMILES>  (469) 
CCCCCO[C@@H]1O[C@H](CO)[C@@H](O)[C@@H](O)[C@H]1/N=C(/C)O

>  <Energy>  (469) 
36.15166462378536

>  <Genealogy>  (469) 
CCCCCO[C@@H]1O[C@H](CO)[C@@H](O)[C@@H](O)[C@H]1N=C(C)O (tautomer)
CCCCCO[C@@H]1O[C@H](CO)[C@@H](O)[C@@H](O)[C@H]1/N=C(/C)O (cis-trans isomerization)
CCCCCO[C@@H]1O[C@H](CO)[C@@H](O)[C@@H](O)[C@H]1/N=C(/C)O (3D coordinates assigned)
CCCCCO[C@@H]1O[C@H](CO)[C@@H](O)[C@@H](O)[C@H]1/N=C(/C)O (nonaromatic ring conformer: 36.15166462378536 kcal/mol)

$$$$
ZINC000616583781
     RDKit          3D

 42 42  0  0  0  0  0  0  0  0999 V2000
    3.8215   -0.5335    0.4087 C   0  0  0  0  0  0  0  0  0  0  0  0
    3.6246   -1.3195    1.7045 C   0  0  0  0  0  0  0  0  0  0  0  0
    2.5201   -0.7374    2.6029 C   0  0  0  0  0  0  0  0  0  0  0  0
    1.1126   -0.9055    2.0209 C   0  0  0  0  0  0  0  0  0  0  0  0
    0.8972    0.0558    1.0077 O   0  0  0  0  0  0  0  0  0  0  0  0
   -0.3003   -0.2256    0.3097 C   0  0  2  0  0  0  0  0  0  0  0  0
   -0.0656   -1.2966   -0.5908 O   0  0  0  0  0  0  0  0  0  0  0  0
   -1.2651   -1.6777   -1.2440 C   0  0  2  0  0  0  0  0  0  0  0  0
   -0.9849   -2.9436   -2.0673 C   0  0  0  0  0  0  0  0  0  0  0  0
   -0.4696   -3.9574   -1.2468 O   0  0  0  0  0  0  0  0  0  0  0  0
   -1.7663   -0.5265   -2.1504 C   0  0  1  0  0  0  0  0  0  0  0  0
   -2.9816   -0.8756   -2.7657 O   0  0  0  0  0  0  0  0  0  0  0  0
   -1.9721    0.7482   -1.3155 C   0  0  1  0  0  0  0  0  0  0  0  0
   -3.0901    0.5870   -0.4759 O   0  0  0  0  0  0  0  0  0  0  0  0
   -0.7075    1.0369   -0.4788 C   0  0  1  0  0  0  0  0  0  0  0  0
   -0.9343    2.1676    0.4292 N   0  0  0  0  0  0  0  0  0  0  0  0
   -0.9803    3.5245   -0.0326 C   0  0  0  0  0  0  0  0  0  0  0  0
   -1.2386    4.6321    0.9358 C   0  0  0  0  0  0  0  0  0  0  0  0
   -0.7730    3.7944   -1.2466 O   0  0  0  0  0  0  0  0  0  0  0  0
    4.7381   -0.8930   -0.1046 H   0  0  0  0  0  0  0  0  0  0  0  0
    2.9634   -0.6885   -0.2774 H   0  0  0  0  0  0  0  0  0  0  0  0
    3.9383    0.5502    0.6226 H   0  0  0  0  0  0  0  0  0  0  0  0
    4.5804   -1.2985    2.2717 H   0  0  0  0  0  0  0  0  0  0  0  0
    3.4023   -2.3819    1.4643 H   0  0  0  0  0  0  0  0  0  0  0  0
    2.7196    0.3367    2.8111 H   0  0  0  0  0  0  0  0  0  0  0  0
    2.5572   -1.2730    3.5765 H   0  0  0  0  0  0  0  0  0  0  0  0
    0.3794   -0.7434    2.8428 H   0  0  0  0  0  0  0  0  0  0  0  0
    0.9956   -1.9478    1.6428 H   0  0  0  0  0  0  0  0  0  0  0  0
   -1.1219   -0.4774    1.0277 H   0  0  0  0  0  0  0  0  0  0  0  0
   -2.0524   -1.9374   -0.4974 H   0  0  0  0  0  0  0  0  0  0  0  0
   -1.9137   -3.2996   -2.5681 H   0  0  0  0  0  0  0  0  0  0  0  0
   -0.2368   -2.7169   -2.8570 H   0  0  0  0  0  0  0  0  0  0  0  0
   -1.2321   -4.3102   -0.7178 H   0  0  0  0  0  0  0  0  0  0  0  0
   -0.9881   -0.3062   -2.9216 H   0  0  0  0  0  0  0  0  0  0  0  0
   -2.7612   -1.2616   -3.6534 H   0  0  0  0  0  0  0  0  0  0  0  0
   -2.1483    1.5930   -2.0224 H   0  0  0  0  0  0  0  0  0  0  0  0
   -3.4404    1.4951   -0.2805 H   0  0  0  0  0  0  0  0  0  0  0  0
    0.1304    1.2903   -1.1677 H   0  0  0  0  0  0  0  0  0  0  0  0
   -1.0449    1.9912    1.4541 H   0  0  0  0  0  0  0  0  0  0  0  0
   -2.1207    4.3833    1.5622 H   0  0  0  0  0  0  0  0  0  0  0  0
   -1.4393    5.5826    0.3973 H   0  0  0  0  0  0  0  0  0  0  0  0
   -0.3517    4.7654    1.5895 H   0  0  0  0  0  0  0  0  0  0  0  0
  1  2  1  0
  2  3  1  0
  3  4  1  0
  4  5  1  0
  5  6  1  0
  6  7  1  0
  7  8  1  0
  8  9  1  0
  9 10  1  0
  8 11  1  0
 11 12  1  0
 11 13  1  0
 13 14  1  0
 13 15  1  0
 15 16  1  0
 16 17  1  0
 17 18  1  0
 17 19  2  0
 15  6  1  0
  1 20  1  0
  1 21  1  0
  1 22  1  0
  2 23  1  0
  2 24  1  0
  3 25  1  0
  3 26  1  0
  4 27  1  0
  4 28  1  0
  6 29  1  1
  8 30  1  1
  9 31  1  0
  9 32  1  0
 10 33  1  0
 11 34  1  6
 12 35  1  0
 13 36  1  6
 14 37  1  0
 15 38  1  6
 16 39  1  0
 18 40  1  0
 18 41  1  0
 18 42  1  0
M  END
>  <UniqueID>  (470) 
469

>  <SMILES>  (470) 
CCCCO[C@@H]1O[C@H](CO)[C@@H](O)[C@@H](O)[C@H]1NC(C)=O

>  <Energy>  (470) 
31.047069334487293

>  <Genealogy>  (470) 
CCCCO[C@@H]1O[C@H](CO)[C@@H](O)[C@@H](O)[C@H]1NC(C)=O (3D coordinates assigned)
CCCCO[C@@H]1O[C@H](CO)[C@@H](O)[C@@H](O)[C@H]1NC(C)=O (nonaromatic ring conformer: 31.047069334487293 kcal/mol)

$$$$
ZINC000616583781
     RDKit          3D

 42 42  0  0  0  0  0  0  0  0999 V2000
    0.3628    3.4617   -1.0029 H   0  0  0  0  0  0  0  0  0  0  0  0
    0.5971    2.5064   -0.7608 O   0  0  0  0  0  0  0  0  0  0  0  0
    1.4494    1.7465   -1.5617 C   0  0  0  0  0  0  0  0  0  0  0  0
    1.7247    0.5133   -1.2564 N   0  0  0  0  0  0  0  0  0  0  0  0
    1.1883   -0.1987   -0.0930 C   0  0  2  0  0  0  0  0  0  0  0  0
    1.0919    0.5037    0.7668 H   0  0  0  0  0  0  0  0  0  0  0  0
    2.1626   -1.3178    0.3228 C   0  0  2  0  0  0  0  0  0  0  0  0
    3.0949   -0.8541    0.7249 H   0  0  0  0  0  0  0  0  0  0  0  0
    2.4713   -2.1386   -0.7783 O   0  0  0  0  0  0  0  0  0  0  0  0
    3.2236   -1.7074   -1.2617 H   0  0  0  0  0  0  0  0  0  0  0  0
    1.5332   -2.1713    1.4397 C   0  0  2  0  0  0  0  0  0  0  0  0
    1.4509   -1.5497    2.3633 H   0  0  0  0  0  0  0  0  0  0  0  0
    2.3372   -3.2948    1.6957 O   0  0  0  0  0  0  0  0  0  0  0  0
    3.1304   -2.9701    2.1970 H   0  0  0  0  0  0  0  0  0  0  0  0
    0.1126   -2.6204    1.0245 C   0  0  1  0  0  0  0  0  0  0  0  0
    0.1752   -3.2982    0.1405 H   0  0  0  0  0  0  0  0  0  0  0  0
   -0.5602   -3.4114    2.1559 C   0  0  0  0  0  0  0  0  0  0  0  0
    0.0576   -4.2976    2.4137 H   0  0  0  0  0  0  0  0  0  0  0  0
   -0.6490   -2.7819    3.0716 H   0  0  0  0  0  0  0  0  0  0  0  0
   -1.8231   -3.8664    1.7493 O   0  0  0  0  0  0  0  0  0  0  0  0
   -2.4519   -3.1063    1.8614 H   0  0  0  0  0  0  0  0  0  0  0  0
   -0.6894   -1.4892    0.7291 O   0  0  0  0  0  0  0  0  0  0  0  0
   -0.1964   -0.8040   -0.4115 C   0  0  1  0  0  0  0  0  0  0  0  0
   -0.0864   -1.4981   -1.2828 H   0  0  0  0  0  0  0  0  0  0  0  0
   -1.0851    0.2472   -0.7326 O   0  0  0  0  0  0  0  0  0  0  0  0
   -2.2499   -0.2609   -1.3494 C   0  0  0  0  0  0  0  0  0  0  0  0
   -1.9920   -0.6777   -2.3491 H   0  0  0  0  0  0  0  0  0  0  0  0
   -2.7249   -1.0637   -0.7398 H   0  0  0  0  0  0  0  0  0  0  0  0
   -3.2573    0.8739   -1.5611 C   0  0  0  0  0  0  0  0  0  0  0  0
   -2.7513    1.7476   -2.0276 H   0  0  0  0  0  0  0  0  0  0  0  0
   -4.0293    0.5197   -2.2786 H   0  0  0  0  0  0  0  0  0  0  0  0
   -3.9755    1.3017   -0.2700 C   0  0  0  0  0  0  0  0  0  0  0  0
   -4.4305    0.4174    0.2268 H   0  0  0  0  0  0  0  0  0  0  0  0
   -4.8025    1.9914   -0.5460 H   0  0  0  0  0  0  0  0  0  0  0  0
   -3.0597    2.0274    0.7155 C   0  0  0  0  0  0  0  0  0  0  0  0
   -3.6716    2.4706    1.5291 H   0  0  0  0  0  0  0  0  0  0  0  0
   -2.5045    2.8438    0.2063 H   0  0  0  0  0  0  0  0  0  0  0  0
   -2.3415    1.3190    1.1775 H   0  0  0  0  0  0  0  0  0  0  0  0
    2.0357    2.3467   -2.7985 C   0  0  0  0  0  0  0  0  0  0  0  0
    2.3731    3.3832   -2.5888 H   0  0  0  0  0  0  0  0  0  0  0  0
    2.9073    1.7536   -3.1493 H   0  0  0  0  0  0  0  0  0  0  0  0
    1.2656    2.3684   -3.5972 H   0  0  0  0  0  0  0  0  0  0  0  0
  1  2  1  0
  2  3  1  0
  3  4  2  0
  4  5  1  0
  5  6  1  1
  5  7  1  0
  7  8  1  1
  7  9  1  0
  9 10  1  0
  7 11  1  0
 11 12  1  1
 11 13  1  0
 13 14  1  0
 11 15  1  0
 15 16  1  6
 15 17  1  0
 17 18  1  0
 17 19  1  0
 17 20  1  0
 20 21  1  0
 15 22  1  0
 22 23  1  0
 23 24  1  6
 23 25  1  0
 25 26  1  0
 26 27  1  0
 26 28  1  0
 26 29  1  0
 29 30  1  0
 29 31  1  0
 29 32  1  0
 32 33  1  0
 32 34  1  0
 32 35  1  0
 35 36  1  0
 35 37  1  0
 35 38  1  0
  3 39  1  0
 39 40  1  0
 39 41  1  0
 39 42  1  0
 23  5  1  0
M  END
>  <UniqueID>  (471) 
470

>  <SMILES>  (471) 
CCCCO[C@@H]1O[C@H](CO)[C@@H](O)[C@@H](O)[C@H]1/N=C(\C)O

>  <Energy>  (471) 
31.498548411213775

>  <Genealogy>  (471) 
CCCCO[C@@H]1O[C@H](CO)[C@@H](O)[C@@H](O)[C@H]1N=C(C)O (tautomer)
CCCCO[C@@H]1O[C@H](CO)[C@@H](O)[C@@H](O)[C@H]1/N=C(\C)O (cis-trans isomerization)
CCCCO[C@@H]1O[C@H](CO)[C@@H](O)[C@@H](O)[C@H]1/N=C(\C)O (3D coordinates assigned)
CCCCO[C@@H]1O[C@H](CO)[C@@H](O)[C@@H](O)[C@H]1/N=C(\C)O (nonaromatic ring conformer: 31.498548411213775 kcal/mol)

$$$$
ZINC000616583781
     RDKit          3D

 42 42  0  0  0  0  0  0  0  0999 V2000
    1.8847    0.5130   -4.7090 H   0  0  0  0  0  0  0  0  0  0  0  0
    1.3805    0.3537   -3.8452 O   0  0  0  0  0  0  0  0  0  0  0  0
    1.5328    1.2054   -2.7513 C   0  0  0  0  0  0  0  0  0  0  0  0
    0.9011    0.9749   -1.6399 N   0  0  0  0  0  0  0  0  0  0  0  0
   -0.0261   -0.1391   -1.4304 C   0  0  2  0  0  0  0  0  0  0  0  0
    0.4137   -1.0728   -1.8510 H   0  0  0  0  0  0  0  0  0  0  0  0
   -1.3765    0.1408   -2.1190 C   0  0  2  0  0  0  0  0  0  0  0  0
   -1.2223    0.1087   -3.2232 H   0  0  0  0  0  0  0  0  0  0  0  0
   -1.8485    1.4109   -1.7388 O   0  0  0  0  0  0  0  0  0  0  0  0
   -2.4564    1.7226   -2.4592 H   0  0  0  0  0  0  0  0  0  0  0  0
   -2.3958   -0.9493   -1.7299 C   0  0  2  0  0  0  0  0  0  0  0  0
   -2.0715   -1.9145   -2.1864 H   0  0  0  0  0  0  0  0  0  0  0  0
   -3.6745   -0.6104   -2.2030 O   0  0  0  0  0  0  0  0  0  0  0  0
   -3.6642   -0.7591   -3.1846 H   0  0  0  0  0  0  0  0  0  0  0  0
   -2.4271   -1.1162   -0.1917 C   0  0  1  0  0  0  0  0  0  0  0  0
   -2.8006   -0.1751    0.2766 H   0  0  0  0  0  0  0  0  0  0  0  0
   -3.3922   -2.2308    0.2331 C   0  0  0  0  0  0  0  0  0  0  0  0
   -4.4201   -2.0035   -0.1280 H   0  0  0  0  0  0  0  0  0  0  0  0
   -3.4197   -2.2774    1.3450 H   0  0  0  0  0  0  0  0  0  0  0  0
   -2.9683   -3.4662   -0.2753 O   0  0  0  0  0  0  0  0  0  0  0  0
   -3.6336   -4.1341    0.0345 H   0  0  0  0  0  0  0  0  0  0  0  0
   -1.1334   -1.4306    0.2969 O   0  0  0  0  0  0  0  0  0  0  0  0
   -0.2376   -0.3518    0.0802 C   0  0  1  0  0  0  0  0  0  0  0  0
   -0.6406    0.5963    0.5168 H   0  0  0  0  0  0  0  0  0  0  0  0
    1.0130   -0.6735    0.6603 O   0  0  0  0  0  0  0  0  0  0  0  0
    0.9946   -0.4784    2.0625 C   0  0  0  0  0  0  0  0  0  0  0  0
    1.6398   -1.2520    2.5302 H   0  0  0  0  0  0  0  0  0  0  0  0
   -0.0184   -0.6224    2.5083 H   0  0  0  0  0  0  0  0  0  0  0  0
    1.5264    0.9142    2.4367 C   0  0  0  0  0  0  0  0  0  0  0  0
    1.3224    1.0725    3.5180 H   0  0  0  0  0  0  0  0  0  0  0  0
    0.9721    1.7036    1.8851 H   0  0  0  0  0  0  0  0  0  0  0  0
    3.0411    1.0725    2.2170 C   0  0  0  0  0  0  0  0  0  0  0  0
    3.3807    1.9705    2.7776 H   0  0  0  0  0  0  0  0  0  0  0  0
    3.5872    0.1971    2.6306 H   0  0  0  0  0  0  0  0  0  0  0  0
    3.4164    1.2667    0.7483 C   0  0  0  0  0  0  0  0  0  0  0  0
    3.2519    0.3349    0.1706 H   0  0  0  0  0  0  0  0  0  0  0  0
    4.4933    1.5271    0.6748 H   0  0  0  0  0  0  0  0  0  0  0  0
    2.8248    2.0935    0.3014 H   0  0  0  0  0  0  0  0  0  0  0  0
    2.4660    2.3697   -2.8360 C   0  0  0  0  0  0  0  0  0  0  0  0
    3.4914    2.0399   -2.5689 H   0  0  0  0  0  0  0  0  0  0  0  0
    2.4708    2.7788   -3.8678 H   0  0  0  0  0  0  0  0  0  0  0  0
    2.1485    3.1739   -2.1384 H   0  0  0  0  0  0  0  0  0  0  0  0
  1  2  1  0
  2  3  1  0
  3  4  2  0
  4  5  1  0
  5  6  1  6
  5  7  1  0
  7  8  1  6
  7  9  1  0
  9 10  1  0
  7 11  1  0
 11 12  1  6
 11 13  1  0
 13 14  1  0
 11 15  1  0
 15 16  1  1
 15 17  1  0
 17 18  1  0
 17 19  1  0
 17 20  1  0
 20 21  1  0
 15 22  1  0
 22 23  1  0
 23 24  1  1
 23 25  1  0
 25 26  1  0
 26 27  1  0
 26 28  1  0
 26 29  1  0
 29 30  1  0
 29 31  1  0
 29 32  1  0
 32 33  1  0
 32 34  1  0
 32 35  1  0
 35 36  1  0
 35 37  1  0
 35 38  1  0
  3 39  1  0
 39 40  1  0
 39 41  1  0
 39 42  1  0
 23  5  1  0
M  END
>  <UniqueID>  (472) 
471

>  <SMILES>  (472) 
CCCCO[C@@H]1O[C@H](CO)[C@@H](O)[C@@H](O)[C@H]1/N=C(/C)O

>  <Energy>  (472) 
31.54185544311384

>  <Genealogy>  (472) 
CCCCO[C@@H]1O[C@H](CO)[C@@H](O)[C@@H](O)[C@H]1N=C(C)O (tautomer)
CCCCO[C@@H]1O[C@H](CO)[C@@H](O)[C@@H](O)[C@H]1/N=C(/C)O (cis-trans isomerization)
CCCCO[C@@H]1O[C@H](CO)[C@@H](O)[C@@H](O)[C@H]1/N=C(/C)O (3D coordinates assigned)
CCCCO[C@@H]1O[C@H](CO)[C@@H](O)[C@@H](O)[C@H]1/N=C(/C)O (nonaromatic ring conformer: 31.54185544311384 kcal/mol)

$$$$
ZINC000616589990
     RDKit          3D

 30 30  0  0  0  0  0  0  0  0999 V2000
    0.2696   -5.6484    0.0784 C   0  0  0  0  0  0  0  0  0  0  0  0
   -0.2948   -4.2493    0.2689 C   0  0  0  0  0  0  0  0  0  0  0  0
    0.3979   -3.6104    1.3215 O   0  0  0  0  0  0  0  0  0  0  0  0
   -0.0353   -2.2692    1.4504 C   0  0  2  0  0  0  0  0  0  0  0  0
    0.5579   -1.4952    0.4186 O   0  0  0  0  0  0  0  0  0  0  0  0
    0.0838   -0.1599    0.4539 C   0  0  2  0  0  0  0  0  0  0  0  0
    0.6211    0.5709   -0.7413 C   0  0  0  0  0  0  0  0  0  0  0  0
    1.8341    0.4609   -1.0630 O   0  0  0  0  0  0  0  0  0  0  0  0
   -0.2103    1.4060   -1.4772 O   0  0  0  0  0  1  0  0  0  0  0  0
    0.5380    0.5406    1.7526 C   0  0  1  0  0  0  0  0  0  0  0  0
    0.0415    1.8548    1.7853 O   0  0  0  0  0  0  0  0  0  0  0  0
    0.0351   -0.2464    2.9764 C   0  0  1  0  0  0  0  0  0  0  0  0
   -1.3607   -0.1008    3.0855 O   0  0  0  0  0  0  0  0  0  0  0  0
    0.4181   -1.7377    2.8310 C   0  0  1  0  0  0  0  0  0  0  0  0
   -0.1481   -2.5418    3.9235 N   0  0  0  0  0  4  0  0  0  0  0  0
   -0.2711   -6.1632   -0.7437 H   0  0  0  0  0  0  0  0  0  0  0  0
    0.1497   -6.2370    1.0127 H   0  0  0  0  0  0  0  0  0  0  0  0
    1.3482   -5.5908   -0.1803 H   0  0  0  0  0  0  0  0  0  0  0  0
   -0.1762   -3.6929   -0.6888 H   0  0  0  0  0  0  0  0  0  0  0  0
   -1.3771   -4.3410    0.5135 H   0  0  0  0  0  0  0  0  0  0  0  0
   -1.1522   -2.2114    1.4010 H   0  0  0  0  0  0  0  0  0  0  0  0
   -1.0291   -0.1419    0.3824 H   0  0  0  0  0  0  0  0  0  0  0  0
    1.6542    0.5602    1.7732 H   0  0  0  0  0  0  0  0  0  0  0  0
    0.5536    2.3359    2.4867 H   0  0  0  0  0  0  0  0  0  0  0  0
    0.5371    0.1703    3.8824 H   0  0  0  0  0  0  0  0  0  0  0  0
   -1.5848   -0.1468    4.0515 H   0  0  0  0  0  0  0  0  0  0  0  0
    1.5293   -1.8110    2.8808 H   0  0  0  0  0  0  0  0  0  0  0  0
    0.2489   -3.5088    3.8946 H   0  0  0  0  0  0  0  0  0  0  0  0
    0.1036   -2.1172    4.8457 H   0  0  0  0  0  0  0  0  0  0  0  0
   -1.1892   -2.6013    3.8429 H   0  0  0  0  0  0  0  0  0  0  0  0
  1  2  1  0
  2  3  1  0
  3  4  1  0
  4  5  1  0
  5  6  1  0
  6  7  1  0
  7  8  2  0
  7  9  1  0
  6 10  1  0
 10 11  1  0
 10 12  1  0
 12 13  1  0
 12 14  1  0
 14 15  1  0
 14  4  1  0
  1 16  1  0
  1 17  1  0
  1 18  1  0
  2 19  1  0
  2 20  1  0
  4 21  1  1
  6 22  1  6
 10 23  1  6
 11 24  1  0
 12 25  1  1
 13 26  1  0
 14 27  1  6
 15 28  1  0
 15 29  1  0
 15 30  1  0
M  CHG  2   9  -1  15   1
M  END
>  <UniqueID>  (476) 
475

>  <SMILES>  (476) 
CCO[C@@H]1O[C@H](C(=O)[O-])[C@@H](O)[C@@H](O)[C@H]1[NH3+]

>  <Energy>  (476) 
26.983182674807253

>  <Genealogy>  (476) 
CCO[C@@H]1O[C@H](C(=O)[O-])[C@@H](O)[C@@H](O)[C@H]1[NH3+] (protonated)
CCO[C@@H]1O[C@H](C(=O)[O-])[C@@H](O)[C@@H](O)[C@H]1[NH3+] (3D coordinates assigned)
CCO[C@@H]1O[C@H](C(=O)[O-])[C@@H](O)[C@@H](O)[C@H]1[NH3+] (nonaromatic ring conformer: 26.983182674807253 kcal/mol)

$$$$
ZINC000616589990
     RDKit          3D

 29 29  0  0  0  0  0  0  0  0999 V2000
    2.9732   -2.0812    2.0493 C   0  0  0  0  0  0  0  0  0  0  0  0
    2.0362   -0.8843    2.0955 C   0  0  0  0  0  0  0  0  0  0  0  0
    2.0731   -0.2191    0.8490 O   0  0  0  0  0  0  0  0  0  0  0  0
    1.1282    0.8358    0.8212 C   0  0  2  0  0  0  0  0  0  0  0  0
   -0.1729    0.2799    0.6735 O   0  0  0  0  0  0  0  0  0  0  0  0
   -1.1368    1.3085    0.5376 C   0  0  2  0  0  0  0  0  0  0  0  0
   -2.5068    0.7236    0.7157 C   0  0  0  0  0  0  0  0  0  0  0  0
   -2.7955   -0.3905    0.2035 O   0  0  0  0  0  0  0  0  0  0  0  0
   -3.4813    1.4340    1.4055 O   0  0  0  0  0  1  0  0  0  0  0  0
   -1.0144    1.9920   -0.8512 C   0  0  1  0  0  0  0  0  0  0  0  0
   -1.2816    3.3668   -0.7340 O   0  0  0  0  0  0  0  0  0  0  0  0
    0.3948    1.7741   -1.4506 C   0  0  1  0  0  0  0  0  0  0  0  0
    0.6791    2.7333   -2.4375 O   0  0  0  0  0  0  0  0  0  0  0  0
    1.4914    1.7874   -0.3660 C   0  0  1  0  0  0  0  0  0  0  0  0
    1.7439    3.1567    0.0978 N   0  0  0  0  0  0  0  0  0  0  0  0
    2.9567   -2.6094    3.0260 H   0  0  0  0  0  0  0  0  0  0  0  0
    4.0105   -1.7440    1.8394 H   0  0  0  0  0  0  0  0  0  0  0  0
    2.6506   -2.7853    1.2532 H   0  0  0  0  0  0  0  0  0  0  0  0
    1.0114   -1.2543    2.3265 H   0  0  0  0  0  0  0  0  0  0  0  0
    2.3781   -0.2060    2.9095 H   0  0  0  0  0  0  0  0  0  0  0  0
    1.1783    1.4145    1.7774 H   0  0  0  0  0  0  0  0  0  0  0  0
   -1.0047    2.0660    1.3466 H   0  0  0  0  0  0  0  0  0  0  0  0
   -1.7378    1.5428   -1.5737 H   0  0  0  0  0  0  0  0  0  0  0  0
   -2.2613    3.4566   -0.5999 H   0  0  0  0  0  0  0  0  0  0  0  0
    0.4167    0.7601   -1.9178 H   0  0  0  0  0  0  0  0  0  0  0  0
    0.1015    2.5208   -3.2167 H   0  0  0  0  0  0  0  0  0  0  0  0
    2.4262    1.4260   -0.8532 H   0  0  0  0  0  0  0  0  0  0  0  0
    0.9406    3.4909    0.6774 H   0  0  0  0  0  0  0  0  0  0  0  0
    2.5872    3.1458    0.7167 H   0  0  0  0  0  0  0  0  0  0  0  0
  1  2  1  0
  2  3  1  0
  3  4  1  0
  4  5  1  0
  5  6  1  0
  6  7  1  0
  7  8  2  0
  7  9  1  0
  6 10  1  0
 10 11  1  0
 10 12  1  0
 12 13  1  0
 12 14  1  0
 14 15  1  0
 14  4  1  0
  1 16  1  0
  1 17  1  0
  1 18  1  0
  2 19  1  0
  2 20  1  0
  4 21  1  1
  6 22  1  1
 10 23  1  6
 11 24  1  0
 12 25  1  6
 13 26  1  0
 14 27  1  6
 15 28  1  0
 15 29  1  0
M  CHG  1   9  -1
M  END
>  <UniqueID>  (477) 
476

>  <SMILES>  (477) 
CCO[C@@H]1O[C@H](C(=O)[O-])[C@@H](O)[C@@H](O)[C@H]1N

>  <Energy>  (477) 
34.90293879065313

>  <Genealogy>  (477) 
CCO[C@@H]1O[C@H](C(=O)[O-])[C@@H](O)[C@@H](O)[C@H]1N (protonated)
CCO[C@@H]1O[C@H](C(=O)[O-])[C@@H](O)[C@@H](O)[C@H]1N (3D coordinates assigned)
CCO[C@@H]1O[C@H](C(=O)[O-])[C@@H](O)[C@@H](O)[C@H]1N (nonaromatic ring conformer: 34.90293879065313 kcal/mol)

$$$$
ZINC000616589990
     RDKit          3D

 29 29  0  0  0  0  0  0  0  0999 V2000
    3.0243   -1.6771    2.4507 C   0  0  0  0  0  0  0  0  0  0  0  0
    2.0514   -0.5288    2.2325 C   0  0  0  0  0  0  0  0  0  0  0  0
    2.0351   -0.1903    0.8608 O   0  0  0  0  0  0  0  0  0  0  0  0
    1.0636    0.8091    0.6147 C   0  0  2  0  0  0  0  0  0  0  0  0
   -0.2281    0.2283    0.6447 O   0  0  0  0  0  0  0  0  0  0  0  0
   -1.2285    1.2364    0.7046 C   0  0  2  0  0  0  0  0  0  0  0  0
   -2.5648    0.5844    0.5050 C   0  0  0  0  0  0  0  0  0  0  0  0
   -2.7377   -0.2367   -0.4344 O   0  0  0  0  0  0  0  0  0  0  0  0
   -3.6322    0.9187    1.3291 O   0  0  0  0  0  1  0  0  0  0  0  0
   -1.0193    2.3729   -0.3491 C   0  0  1  0  0  0  0  0  0  0  0  0
   -0.5549    3.5379    0.2845 O   0  0  0  0  0  0  0  0  0  0  0  0
   -0.0035    1.9324   -1.4226 C   0  0  1  0  0  0  0  0  0  0  0  0
    0.2495    2.9797   -2.3255 O   0  0  0  0  0  0  0  0  0  0  0  0
    1.3183    1.4088   -0.7869 C   0  0  1  0  0  0  0  0  0  0  0  0
    2.3573    2.4413   -0.6988 N   0  0  0  0  0  0  0  0  0  0  0  0
    2.7041   -2.5631    1.8624 H   0  0  0  0  0  0  0  0  0  0  0  0
    4.0448   -1.3766    2.1312 H   0  0  0  0  0  0  0  0  0  0  0  0
    3.0493   -1.9492    3.5271 H   0  0  0  0  0  0  0  0  0  0  0  0
    1.0448   -0.8557    2.5799 H   0  0  0  0  0  0  0  0  0  0  0  0
    2.3920    0.3368    2.8444 H   0  0  0  0  0  0  0  0  0  0  0  0
    1.1505    1.6281    1.3749 H   0  0  0  0  0  0  0  0  0  0  0  0
   -1.2312    1.6714    1.7304 H   0  0  0  0  0  0  0  0  0  0  0  0
   -1.9781    2.6108   -0.8702 H   0  0  0  0  0  0  0  0  0  0  0  0
   -1.3323    3.9359    0.7570 H   0  0  0  0  0  0  0  0  0  0  0  0
   -0.4603    1.0801   -1.9811 H   0  0  0  0  0  0  0  0  0  0  0  0
   -0.5627    3.0782   -2.8882 H   0  0  0  0  0  0  0  0  0  0  0  0
    1.6995    0.5970   -1.4485 H   0  0  0  0  0  0  0  0  0  0  0  0
    1.9627    3.3071   -0.2657 H   0  0  0  0  0  0  0  0  0  0  0  0
    2.6797    2.6847   -1.6636 H   0  0  0  0  0  0  0  0  0  0  0  0
  1  2  1  0
  2  3  1  0
  3  4  1  0
  4  5  1  0
  5  6  1  0
  6  7  1  0
  7  8  2  0
  7  9  1  0
  6 10  1  0
 10 11  1  0
 10 12  1  0
 12 13  1  0
 12 14  1  0
 14 15  1  0
 14  4  1  0
  1 16  1  0
  1 17  1  0
  1 18  1  0
  2 19  1  0
  2 20  1  0
  4 21  1  1
  6 22  1  1
 10 23  1  6
 11 24  1  0
 12 25  1  6
 13 26  1  0
 14 27  1  6
 15 28  1  0
 15 29  1  0
M  CHG  1   9  -1
M  END
>  <UniqueID>  (478) 
477

>  <SMILES>  (478) 
CCO[C@@H]1O[C@H](C(=O)[O-])[C@@H](O)[C@@H](O)[C@H]1N

>  <Energy>  (478) 
35.00278840224004

>  <Genealogy>  (478) 
CCO[C@@H]1O[C@H](C(=O)[O-])[C@@H](O)[C@@H](O)[C@H]1N (protonated)
CCO[C@@H]1O[C@H](C(=O)[O-])[C@@H](O)[C@@H](O)[C@H]1N (3D coordinates assigned)
CCO[C@@H]1O[C@H](C(=O)[O-])[C@@H](O)[C@@H](O)[C@H]1N (nonaromatic ring conformer: 35.00278840224004 kcal/mol)

$$$$
ZINC000616591357
     RDKit          3D

 44 46  0  0  0  0  0  0  0  0999 V2000
   -3.7033    3.6590    1.2951 H   0  0  0  0  0  0  0  0  0  0  0  0
   -3.3658    2.7323    1.0640 O   0  0  0  0  0  0  0  0  0  0  0  0
   -3.9307    1.9976    0.0219 C   0  0  0  0  0  0  0  0  0  0  0  0
   -3.4775    0.8175   -0.2787 N   0  0  0  0  0  0  0  0  0  0  0  0
   -2.3690    0.1564    0.4138 C   0  0  2  0  0  0  0  0  0  0  0  0
   -2.5001    0.2717    1.5145 H   0  0  0  0  0  0  0  0  0  0  0  0
   -1.0169    0.7828   -0.0001 C   0  0  2  0  0  0  0  0  0  0  0  0
   -0.9559    1.8137    0.4202 H   0  0  0  0  0  0  0  0  0  0  0  0
   -0.9218    0.8327   -1.4029 O   0  0  0  0  0  0  0  0  0  0  0  0
   -0.2465    1.5265   -1.6224 H   0  0  0  0  0  0  0  0  0  0  0  0
    0.1246   -0.0595    0.5889 C   0  0  2  0  0  0  0  0  0  0  0  0
    0.0653    0.0374    1.7002 H   0  0  0  0  0  0  0  0  0  0  0  0
    1.3814    0.4007    0.1337 O   0  0  0  0  0  0  0  0  0  0  0  0
    2.4129   -0.3850    0.7162 C   0  0  2  0  0  0  0  0  0  0  0  0
    2.3674   -0.3217    1.8314 H   0  0  0  0  0  0  0  0  0  0  0  0
    3.7395    0.1639    0.2618 C   0  0  0  0  0  0  0  0  0  0  0  0
    4.6874    0.6228    1.1941 C   0  0  0  0  0  0  0  0  0  0  0  0
    4.4782    0.5902    2.2561 H   0  0  0  0  0  0  0  0  0  0  0  0
    5.9163    1.1291    0.7590 C   0  0  0  0  0  0  0  0  0  0  0  0
    6.6418    1.4813    1.4810 H   0  0  0  0  0  0  0  0  0  0  0  0
    6.2097    1.1811   -0.6061 C   0  0  0  0  0  0  0  0  0  0  0  0
    7.1615    1.5733   -0.9405 H   0  0  0  0  0  0  0  0  0  0  0  0
    5.2748    0.7264   -1.5396 C   0  0  0  0  0  0  0  0  0  0  0  0
    5.5032    0.7667   -2.5969 H   0  0  0  0  0  0  0  0  0  0  0  0
    4.0448    0.2193   -1.1098 C   0  0  0  0  0  0  0  0  0  0  0  0
    3.3292   -0.1301   -1.8442 H   0  0  0  0  0  0  0  0  0  0  0  0
    2.3232   -1.7402    0.2978 O   0  0  0  0  0  0  0  0  0  0  0  0
    1.1086   -2.3092    0.7478 C   0  0  0  0  0  0  0  0  0  0  0  0
    1.0765   -2.3406    1.8612 H   0  0  0  0  0  0  0  0  0  0  0  0
    1.0522   -3.3574    0.3854 H   0  0  0  0  0  0  0  0  0  0  0  0
   -0.0744   -1.5260    0.1864 C   0  0  1  0  0  0  0  0  0  0  0  0
   -0.0466   -1.6360   -0.9241 H   0  0  0  0  0  0  0  0  0  0  0  0
   -1.2928   -2.0153    0.7141 O   0  0  0  0  0  0  0  0  0  0  0  0
   -2.3900   -1.3570    0.0914 C   0  0  1  0  0  0  0  0  0  0  0  0
   -2.3434   -1.4737   -1.0213 H   0  0  0  0  0  0  0  0  0  0  0  0
   -3.5978   -1.8985    0.5925 O   0  0  0  0  0  0  0  0  0  0  0  0
   -3.8369   -3.1656    0.0192 C   0  0  0  0  0  0  0  0  0  0  0  0
   -4.0250   -3.0788   -1.0736 H   0  0  0  0  0  0  0  0  0  0  0  0
   -2.9973   -3.8691    0.2143 H   0  0  0  0  0  0  0  0  0  0  0  0
   -4.7484   -3.5961    0.4822 H   0  0  0  0  0  0  0  0  0  0  0  0
   -5.0519    2.5810   -0.7760 C   0  0  0  0  0  0  0  0  0  0  0  0
   -4.6438    3.3129   -1.5035 H   0  0  0  0  0  0  0  0  0  0  0  0
   -5.7649    3.0975   -0.1001 H   0  0  0  0  0  0  0  0  0  0  0  0
   -5.5980    1.7857   -1.3271 H   0  0  0  0  0  0  0  0  0  0  0  0
  1  2  1  0
  2  3  1  0
  3  4  2  0
  4  5  1  0
  5  6  1  1
  5  7  1  0
  7  8  1  1
  7  9  1  0
  9 10  1  0
  7 11  1  0
 11 12  1  1
 11 13  1  0
 13 14  1  0
 14 15  1  1
 14 16  1  0
 16 17  2  0
 17 18  1  0
 17 19  1  0
 19 20  1  0
 19 21  2  0
 21 22  1  0
 21 23  1  0
 23 24  1  0
 23 25  2  0
 25 26  1  0
 14 27  1  0
 27 28  1  0
 28 29  1  0
 28 30  1  0
 28 31  1  0
 31 32  1  6
 31 33  1  0
 33 34  1  0
 34 35  1  6
 34 36  1  0
 36 37  1  0
 37 38  1  0
 37 39  1  0
 37 40  1  0
  3 41  1  0
 41 42  1  0
 41 43  1  0
 41 44  1  0
 34  5  1  0
 31 11  1  0
 25 16  1  0
M  END
>  <UniqueID>  (479) 
478

>  <SMILES>  (479) 
CO[C@@H]1O[C@@H]2CO[C@@H](c3ccccc3)O[C@H]2[C@@H](O)[C@H]1/N=C(/C)O

>  <Energy>  (479) 
50.22793989617

>  <Genealogy>  (479) 
CO[C@@H]1O[C@@H]2CO[C@@H](c3ccccc3)O[C@H]2[C@@H](O)[C@H]1N=C(C)O (tautomer)
CO[C@@H]1O[C@@H]2CO[C@@H](c3ccccc3)O[C@H]2[C@@H](O)[C@H]1/N=C(/C)O (cis-trans isomerization)
CO[C@@H]1O[C@@H]2CO[C@@H](c3ccccc3)O[C@H]2[C@@H](O)[C@H]1/N=C(/C)O (3D coordinates assigned)
CO[C@@H]1O[C@@H]2CO[C@@H](c3ccccc3)O[C@H]2[C@@H](O)[C@H]1/N=C(/C)O (nonaromatic ring conformer: 50.22793989617 kcal/mol)

$$$$
ZINC000616591357
     RDKit          3D

 44 46  0  0  0  0  0  0  0  0999 V2000
   -0.4902    5.0741    1.1983 C   0  0  0  0  0  0  0  0  0  0  0  0
   -1.0876    3.8154    1.4214 O   0  0  0  0  0  0  0  0  0  0  0  0
   -0.3011    2.7928    0.8397 C   0  0  2  0  0  0  0  0  0  0  0  0
   -0.5045    2.7961   -0.5689 O   0  0  0  0  0  0  0  0  0  0  0  0
    0.3076    1.8092   -1.1775 C   0  0  2  0  0  0  0  0  0  0  0  0
    0.1953    1.8829   -2.6974 C   0  0  0  0  0  0  0  0  0  0  0  0
    0.9257    0.8253   -3.2886 O   0  0  0  0  0  0  0  0  0  0  0  0
    0.4246   -0.4262   -2.8390 C   0  0  1  0  0  0  0  0  0  0  0  0
    1.1932   -1.5203   -3.5317 C   0  0  0  0  0  0  0  0  0  0  0  0
    2.5821   -1.6322   -3.3423 C   0  0  0  0  0  0  0  0  0  0  0  0
    3.3030   -2.6444   -3.9831 C   0  0  0  0  0  0  0  0  0  0  0  0
    2.6456   -3.5517   -4.8178 C   0  0  0  0  0  0  0  0  0  0  0  0
    1.2659   -3.4482   -5.0135 C   0  0  0  0  0  0  0  0  0  0  0  0
    0.5402   -2.4375   -4.3747 C   0  0  0  0  0  0  0  0  0  0  0  0
    0.6017   -0.5752   -1.4365 O   0  0  0  0  0  0  0  0  0  0  0  0
   -0.1561    0.4072   -0.7589 C   0  0  1  0  0  0  0  0  0  0  0  0
   -0.0073    0.2644    0.7636 C   0  0  1  0  0  0  0  0  0  0  0  0
    1.3526    0.2652    1.1249 O   0  0  0  0  0  0  0  0  0  0  0  0
   -0.7430    1.4391    1.4464 C   0  0  1  0  0  0  0  0  0  0  0  0
   -0.4968    1.4275    2.8932 N   0  0  0  0  0  0  0  0  0  0  0  0
   -1.5419    1.5773    3.8649 C   0  0  0  0  0  0  0  0  0  0  0  0
   -1.2011    1.6475    5.3177 C   0  0  0  0  0  0  0  0  0  0  0  0
   -2.7454    1.6810    3.5038 O   0  0  0  0  0  0  0  0  0  0  0  0
   -1.1642    5.8600    1.5964 H   0  0  0  0  0  0  0  0  0  0  0  0
   -0.3464    5.2732    0.1131 H   0  0  0  0  0  0  0  0  0  0  0  0
    0.4777    5.1562    1.7401 H   0  0  0  0  0  0  0  0  0  0  0  0
    0.7809    2.9447    1.0844 H   0  0  0  0  0  0  0  0  0  0  0  0
    1.3824    1.9613   -0.9177 H   0  0  0  0  0  0  0  0  0  0  0  0
    0.6233    2.8470   -3.0446 H   0  0  0  0  0  0  0  0  0  0  0  0
   -0.8702    1.8563   -3.0223 H   0  0  0  0  0  0  0  0  0  0  0  0
   -0.6557   -0.5283   -3.1078 H   0  0  0  0  0  0  0  0  0  0  0  0
    3.1044   -0.9352   -2.6982 H   0  0  0  0  0  0  0  0  0  0  0  0
    4.3718   -2.7252   -3.8326 H   0  0  0  0  0  0  0  0  0  0  0  0
    3.2051   -4.3346   -5.3132 H   0  0  0  0  0  0  0  0  0  0  0  0
    0.7581   -4.1515   -5.6608 H   0  0  0  0  0  0  0  0  0  0  0  0
   -0.5281   -2.3729   -4.5390 H   0  0  0  0  0  0  0  0  0  0  0  0
   -1.2400    0.2812   -0.9983 H   0  0  0  0  0  0  0  0  0  0  0  0
   -0.4865   -0.6882    1.0917 H   0  0  0  0  0  0  0  0  0  0  0  0
    1.6927   -0.6548    0.9721 H   0  0  0  0  0  0  0  0  0  0  0  0
   -1.8303    1.3111    1.2445 H   0  0  0  0  0  0  0  0  0  0  0  0
    0.4918    1.4330    3.2332 H   0  0  0  0  0  0  0  0  0  0  0  0
   -2.1172    1.5534    5.9387 H   0  0  0  0  0  0  0  0  0  0  0  0
   -0.5058    0.8228    5.5797 H   0  0  0  0  0  0  0  0  0  0  0  0
   -0.7132    2.6202    5.5356 H   0  0  0  0  0  0  0  0  0  0  0  0
  1  2  1  0
  2  3  1  0
  3  4  1  0
  4  5  1  0
  5  6  1  0
  6  7  1  0
  7  8  1  0
  8  9  1  0
  9 10  2  0
 10 11  1  0
 11 12  2  0
 12 13  1  0
 13 14  2  0
  8 15  1  0
 15 16  1  0
 16 17  1  0
 17 18  1  0
 17 19  1  0
 19 20  1  0
 20 21  1  0
 21 22  1  0
 21 23  2  0
 19  3  1  0
 16  5  1  0
 14  9  1  0
  1 24  1  0
  1 25  1  0
  1 26  1  0
  3 27  1  6
  5 28  1  6
  6 29  1  0
  6 30  1  0
  8 31  1  1
 10 32  1  0
 11 33  1  0
 12 34  1  0
 13 35  1  0
 14 36  1  0
 16 37  1  1
 17 38  1  1
 18 39  1  0
 19 40  1  1
 20 41  1  0
 22 42  1  0
 22 43  1  0
 22 44  1  0
M  END
>  <UniqueID>  (480) 
479

>  <SMILES>  (480) 
CO[C@@H]1O[C@@H]2CO[C@@H](c3ccccc3)O[C@H]2[C@@H](O)[C@H]1NC(C)=O

>  <Energy>  (480) 
50.7359400316226

>  <Genealogy>  (480) 
CO[C@@H]1O[C@@H]2CO[C@@H](c3ccccc3)O[C@H]2[C@@H](O)[C@H]1NC(C)=O (3D coordinates assigned)
CO[C@@H]1O[C@@H]2CO[C@@H](c3ccccc3)O[C@H]2[C@@H](O)[C@H]1NC(C)=O (nonaromatic ring conformer: 50.7359400316226 kcal/mol)

$$$$
ZINC000616591357
     RDKit          3D

 44 46  0  0  0  0  0  0  0  0999 V2000
   -5.6155   -0.4281    2.2670 H   0  0  0  0  0  0  0  0  0  0  0  0
   -5.3305   -1.3231    1.8868 O   0  0  0  0  0  0  0  0  0  0  0  0
   -4.2365   -1.4262    1.0323 C   0  0  0  0  0  0  0  0  0  0  0  0
   -3.5793   -0.3469    0.7127 N   0  0  0  0  0  0  0  0  0  0  0  0
   -2.3966   -0.2622   -0.1509 C   0  0  2  0  0  0  0  0  0  0  0  0
   -2.4674   -1.0101   -0.9719 H   0  0  0  0  0  0  0  0  0  0  0  0
   -1.1053   -0.5258    0.6633 C   0  0  2  0  0  0  0  0  0  0  0  0
   -1.0575   -1.5979    0.9607 H   0  0  0  0  0  0  0  0  0  0  0  0
   -1.0645    0.2894    1.8094 O   0  0  0  0  0  0  0  0  0  0  0  0
   -1.5902   -0.1734    2.5129 H   0  0  0  0  0  0  0  0  0  0  0  0
    0.1107   -0.2327   -0.2236 C   0  0  2  0  0  0  0  0  0  0  0  0
    0.1066   -0.9857   -1.0489 H   0  0  0  0  0  0  0  0  0  0  0  0
    1.3105   -0.3369    0.5167 O   0  0  0  0  0  0  0  0  0  0  0  0
    2.4175   -0.0860   -0.3395 C   0  0  2  0  0  0  0  0  0  0  0  0
    2.4286   -0.8164   -1.1856 H   0  0  0  0  0  0  0  0  0  0  0  0
    3.6821   -0.2627    0.4587 C   0  0  0  0  0  0  0  0  0  0  0  0
    3.9159    0.5367    1.5917 C   0  0  0  0  0  0  0  0  0  0  0  0
    3.1901    1.2814    1.8952 H   0  0  0  0  0  0  0  0  0  0  0  0
    5.0875    0.3784    2.3383 C   0  0  0  0  0  0  0  0  0  0  0  0
    5.2612    0.9969    3.2094 H   0  0  0  0  0  0  0  0  0  0  0  0
    6.0344   -0.5774    1.9613 C   0  0  0  0  0  0  0  0  0  0  0  0
    6.9407   -0.6988    2.5404 H   0  0  0  0  0  0  0  0  0  0  0  0
    5.8114   -1.3765    0.8370 C   0  0  0  0  0  0  0  0  0  0  0  0
    6.5459   -2.1166    0.5463 H   0  0  0  0  0  0  0  0  0  0  0  0
    4.6412   -1.2220    0.0869 C   0  0  0  0  0  0  0  0  0  0  0  0
    4.4861   -1.8505   -0.7812 H   0  0  0  0  0  0  0  0  0  0  0  0
    2.3871    1.2437   -0.8408 O   0  0  0  0  0  0  0  0  0  0  0  0
    1.2339    1.4381   -1.6372 C   0  0  0  0  0  0  0  0  0  0  0  0
    1.2622    0.7836   -2.5385 H   0  0  0  0  0  0  0  0  0  0  0  0
    1.2212    2.4903   -1.9921 H   0  0  0  0  0  0  0  0  0  0  0  0
   -0.0213    1.1786   -0.8095 C   0  0  1  0  0  0  0  0  0  0  0  0
   -0.0435    1.9422    0.0045 H   0  0  0  0  0  0  0  0  0  0  0  0
   -1.1800    1.2655   -1.6169 O   0  0  0  0  0  0  0  0  0  0  0  0
   -2.3441    1.1376   -0.8084 C   0  0  1  0  0  0  0  0  0  0  0  0
   -2.3468    1.9035    0.0086 H   0  0  0  0  0  0  0  0  0  0  0  0
   -3.4909    1.2852   -1.6247 O   0  0  0  0  0  0  0  0  0  0  0  0
   -3.6840    2.6447   -1.9500 C   0  0  0  0  0  0  0  0  0  0  0  0
   -3.9336    3.2391   -1.0435 H   0  0  0  0  0  0  0  0  0  0  0  0
   -4.5429    2.7221   -2.6476 H   0  0  0  0  0  0  0  0  0  0  0  0
   -2.7951    3.0739   -2.4635 H   0  0  0  0  0  0  0  0  0  0  0  0
   -3.8745   -2.7812    0.4984 C   0  0  0  0  0  0  0  0  0  0  0  0
   -2.8402   -3.0518    0.7889 H   0  0  0  0  0  0  0  0  0  0  0  0
   -3.9737   -2.7948   -0.6068 H   0  0  0  0  0  0  0  0  0  0  0  0
   -4.5609   -3.5470    0.9166 H   0  0  0  0  0  0  0  0  0  0  0  0
  1  2  1  0
  2  3  1  0
  3  4  2  0
  4  5  1  0
  5  6  1  6
  5  7  1  0
  7  8  1  1
  7  9  1  0
  9 10  1  0
  7 11  1  0
 11 12  1  6
 11 13  1  0
 13 14  1  0
 14 15  1  6
 14 16  1  0
 16 17  2  0
 17 18  1  0
 17 19  1  0
 19 20  1  0
 19 21  2  0
 21 22  1  0
 21 23  1  0
 23 24  1  0
 23 25  2  0
 25 26  1  0
 14 27  1  0
 27 28  1  0
 28 29  1  0
 28 30  1  0
 28 31  1  0
 31 32  1  1
 31 33  1  0
 33 34  1  0
 34 35  1  1
 34 36  1  0
 36 37  1  0
 37 38  1  0
 37 39  1  0
 37 40  1  0
  3 41  1  0
 41 42  1  0
 41 43  1  0
 41 44  1  0
 34  5  1  0
 31 11  1  0
 25 16  1  0
M  END
>  <UniqueID>  (481) 
480

>  <SMILES>  (481) 
CO[C@@H]1O[C@@H]2CO[C@@H](c3ccccc3)O[C@H]2[C@@H](O)[C@H]1/N=C(\C)O

>  <Energy>  (481) 
52.53666038432924

>  <Genealogy>  (481) 
CO[C@@H]1O[C@@H]2CO[C@@H](c3ccccc3)O[C@H]2[C@@H](O)[C@H]1N=C(C)O (tautomer)
CO[C@@H]1O[C@@H]2CO[C@@H](c3ccccc3)O[C@H]2[C@@H](O)[C@H]1/N=C(\C)O (cis-trans isomerization)
CO[C@@H]1O[C@@H]2CO[C@@H](c3ccccc3)O[C@H]2[C@@H](O)[C@H]1/N=C(\C)O (3D coordinates assigned)
CO[C@@H]1O[C@@H]2CO[C@@H](c3ccccc3)O[C@H]2[C@@H](O)[C@H]1/N=C(\C)O (nonaromatic ring conformer: 52.53666038432924 kcal/mol)

$$$$
