@<TRIPOS>MOLECULE
ZINC000257347638_entry_00278_conf_01
57 60 1
SMALL
NO_CHARGES


@<TRIPOS>ATOM
      1 H          33.4384   -0.1969  -57.5995 H         1 UNL1        0.2937
      2 O          32.8323    0.6035  -57.4734 O.2       1 UNL1       -0.4922
      3 C          32.8076    1.6734  -58.3721 C.2       1 UNL1        0.2156
      4 N          31.6700    2.1300  -58.8070 N.2       1 UNL1       -0.2392
      5 C          30.3502    1.5894  -58.4598 C.3       1 UNL1        0.1359
      6 H          30.3072    1.4319  -57.3576 H         1 UNL1        0.0624
      7 C          30.1148    0.2333  -59.1680 C.3       1 UNL1        0.1430
      8 H          29.1854   -0.1718  -58.6987 H         1 UNL1        0.0670
      9 O          31.2234   -0.6180  -58.9474 O.3       1 UNL1       -0.2303
     10 S          30.9412   -2.1425  -59.6372 Du        1 UNL1        0.0797
     11 O          31.8225   -2.3637  -60.8353 O.2       1 UNL1       -0.1475
     12 O          29.4986   -2.2619  -60.0411 O.2       1 UNL1       -0.1475
     13 C          31.3092   -3.3841  -58.4205 C.3       1 UNL1        0.0817
     14 H          32.3840   -3.3299  -58.1508 H         1 UNL1        0.0489
     15 H          30.6938   -3.2080  -57.5140 H         1 UNL1        0.0489
     16 H          31.0819   -4.3887  -58.8328 H         1 UNL1        0.0489
     17 C          29.8487    0.4143  -60.6879 C.3       1 UNL1        0.1208
     18 H          28.9260   -0.1728  -60.9120 H         1 UNL1        0.0651
     19 O          30.9005   -0.0965  -61.4880 O.3       1 UNL1       -0.3385
     20 C          30.7683    0.2905  -62.8602 C.3       1 UNL1        0.1859
     21 H          31.4959    1.1120  -63.0579 H         1 UNL1        0.0964
     22 C          31.1186   -0.8902  -63.7245 C.ar      1 UNL1        0.0079
     23 C          32.4506   -1.3349  -63.7995 C.ar      1 UNL1       -0.0538
     24 H          33.2289   -0.8263  -63.2455 H         1 UNL1        0.0622
     25 C          32.7830   -2.4350  -64.5958 C.ar      1 UNL1       -0.0613
     26 H          33.8103   -2.7685  -64.6545 H         1 UNL1        0.0618
     27 C          31.7905   -3.1038  -65.3166 C.ar      1 UNL1       -0.0617
     28 H          32.0492   -3.9548  -65.9332 H         1 UNL1        0.0618
     29 C          30.4626   -2.6757  -65.2395 C.ar      1 UNL1       -0.0613
     30 H          29.6947   -3.1934  -65.7997 H         1 UNL1        0.0618
     31 C          30.1251   -1.5750  -64.4452 C.ar      1 UNL1       -0.0538
     32 H          29.0919   -1.2562  -64.3981 H         1 UNL1        0.0622
     33 O          29.4545    0.7285  -63.2043 O.3       1 UNL1       -0.3445
     34 C          29.1059    1.9127  -62.4974 C.3       1 UNL1        0.0798
     35 H          27.9989    2.0032  -62.5096 H         1 UNL1        0.0588
     36 H          29.5162    2.8003  -63.0272 H         1 UNL1        0.0588
     37 C          29.6000    1.8826  -61.0429 C.3       1 UNL1        0.1138
     38 H          30.5532    2.4613  -61.0219 H         1 UNL1        0.0647
     39 O          28.6623    2.4295  -60.1440 O.3       1 UNL1       -0.3409
     40 C          29.2399    2.6260  -58.8496 C.3       1 UNL1        0.1841
     41 H          29.7133    3.6384  -58.8274 H         1 UNL1        0.0933
     42 O          28.2095    2.5437  -57.8811 O.3       1 UNL1       -0.3523
     43 C          28.7267    2.7876  -56.5904 C.3       1 UNL1        0.0395
     44 H          29.2292    3.7785  -56.5301 H         1 UNL1        0.0525
     45 H          27.8845    2.7946  -55.8682 H         1 UNL1        0.0525
     46 H          29.4251    1.9779  -56.2828 H         1 UNL1        0.0525
     47 C          34.0657    2.2958  -58.8478 C.ar      1 UNL1        0.0360
     48 C          35.2601    2.1253  -58.1207 C.ar      1 UNL1       -0.0495
     49 H          35.2708    1.5528  -57.2012 H         1 UNL1        0.0625
     50 C          36.4503    2.7080  -58.5664 C.ar      1 UNL1       -0.0610
     51 H          37.3626    2.5762  -57.9988 H         1 UNL1        0.0618
     52 C          36.4640    3.4598  -59.7428 C.ar      1 UNL1       -0.0617
     53 H          37.3869    3.9079  -60.0877 H         1 UNL1        0.0618
     54 C          35.2877    3.6297  -60.4766 C.ar      1 UNL1       -0.0610
     55 H          35.3021    4.2050  -61.3932 H         1 UNL1        0.0618
     56 C          34.0936    3.0509  -60.0347 C.ar      1 UNL1       -0.0495
     57 H          33.2037    3.1762  -60.6371 H         1 UNL1        0.0625
@<TRIPOS>BOND
     1    1    2 1
     2    2    3 1
     3    3    4 2
     4    4    5 1
     5    5    6 1
     6    5    7 1
     7    7    8 1
     8    7    9 1
     9    9   10 1
    10   10   11 2
    11   10   12 2
    12   10   13 1
    13   13   14 1
    14   13   15 1
    15   13   16 1
    16    7   17 1
    17   17   18 1
    18   17   19 1
    19   19   20 1
    20   20   21 1
    21   20   22 1
    22   22   23 ar
    23   23   24 1
    24   23   25 ar
    25   25   26 1
    26   25   27 ar
    27   27   28 1
    28   27   29 ar
    29   29   30 1
    30   29   31 ar
    31   31   32 1
    32   20   33 1
    33   33   34 1
    34   34   35 1
    35   34   36 1
    36   34   37 1
    37   37   38 1
    38   37   39 1
    39   39   40 1
    40   40   41 1
    41   40   42 1
    42   42   43 1
    43   43   44 1
    44   43   45 1
    45   43   46 1
    46    3   47 1
    47   47   48 ar
    48   48   49 1
    49   48   50 ar
    50   50   51 1
    51   50   52 ar
    52   52   53 1
    53   52   54 ar
    54   54   55 1
    55   54   56 ar
    56   56   57 1
    57   40    5 1
    58   56   47 ar
    59   37   17 1
    60   31   22 ar
@<TRIPOS>SUBSTRUCTURE
1 UNL1 1
@<TRIPOS>COMMENT
ZINC000257347638
PLANTSproteinTorsions
3
1341 134.8282
1946 181.8708
1961 123.6828
PLANTSmolcadARTstart hb
PLANTSmolcadARTstart HB
LINES
33.4384 -0.196929 -57.5995 34.934 -1.142 -58.719 0 255 0 5
PLANTSmolcadARTstart HBCH
LINES
PLANTSmolcadARTstart HB-CHO
LINES
PLANTSmolcadARTend
PLANTSmolcadARTstart HB_WATER
LINES
PLANTSmolcadARTend

PLANTSmolcadARTend

