@<TRIPOS>MOLECULE
ZINC000257347638_entry_00417_conf_01
57 60 1
SMALL
NO_CHARGES


@<TRIPOS>ATOM
      1 C          84.5052   16.4797  -95.5370 C.3       1 LIG1        0.0395
      2 O          84.3530   16.0854  -96.8844 O.3       1 LIG1       -0.3526
      3 C          85.6016   16.1316  -97.5486 C.3       1 LIG1        0.1800
      4 O          86.1070   17.4595  -97.4891 O.3       1 LIG1       -0.3412
      5 C          87.3844   17.5221  -98.0976 C.3       1 LIG1        0.1138
      6 C          88.0089   18.9172  -97.9125 C.3       1 LIG1        0.0798
      7 O          88.3253   19.5154  -99.1566 O.3       1 LIG1       -0.3445
      8 C          89.1452   18.6386  -99.9240 C.3       1 LIG1        0.1859
      9 C          89.5404   19.3461 -101.2001 C.ar      1 LIG1        0.0079
     10 C          89.7021   18.6444 -102.4174 C.ar      1 LIG1       -0.0538
     11 C          90.0697   19.3317 -103.5784 C.ar      1 LIG1       -0.0613
     12 C          90.2559   20.7199 -103.5435 C.ar      1 LIG1       -0.0617
     13 C          90.0694   21.4263 -102.3496 C.ar      1 LIG1       -0.0613
     14 C          89.7095   20.7434 -101.1845 C.ar      1 LIG1       -0.0538
     15 O          88.5310   17.3808 -100.2198 O.3       1 LIG1       -0.3386
     16 C          87.2656   17.2472  -99.6046 C.3       1 LIG1        0.1205
     17 C          86.6891   15.8421  -99.8340 C.3       1 LIG1        0.1389
     18 O          87.6183   14.8632  -99.3989 O.3       1 LIG1       -0.2306
     19 S          88.8579   14.6693 -100.5410 Du        1 LIG1        0.0796
     20 C          88.3041   15.3302 -102.0960 C.3       1 LIG1        0.0817
     21 O          89.1828   13.2105 -100.7192 O.2       1 LIG1       -0.1475
     22 O          90.0917   15.4147 -100.1094 O.2       1 LIG1       -0.1475
     23 C          85.3804   15.7048  -99.0222 C.3       1 LIG1        0.1051
     24 N          84.8792   14.3271  -99.0952 N.am      1 LIG1       -0.3010
     25 C          84.9177   13.5657 -100.3134 C.2       1 LIG1        0.2445
     26 O          85.2007   14.1412 -101.4011 O.2       1 LIG1       -0.2702
     27 C          84.6111   12.1161 -100.3175 C.ar      1 LIG1        0.0367
     28 C          84.9698   11.3235 -101.4240 C.ar      1 LIG1       -0.0496
     29 C          84.6855    9.9543 -101.4371 C.ar      1 LIG1       -0.0610
     30 C          84.0479    9.3599 -100.3453 C.ar      1 LIG1       -0.0617
     31 C          83.7016   10.1324  -99.2343 C.ar      1 LIG1       -0.0610
     32 C          83.9838   11.5021  -99.2154 C.ar      1 LIG1       -0.0496
     33 H          83.5018   16.5127  -95.0648 H         1 LIG1        0.0525
     34 H          84.9504   17.4956  -95.4539 H         1 LIG1        0.0525
     35 H          85.1182   15.7397  -94.9726 H         1 LIG1        0.0525
     36 H          86.3214   15.4115  -97.0827 H         1 LIG1        0.0930
     37 H          88.0801   16.7841  -97.6300 H         1 LIG1        0.0647
     38 H          88.9223   18.8541  -97.2774 H         1 LIG1        0.0588
     39 H          87.2959   19.5851  -97.3802 H         1 LIG1        0.0588
     40 H          90.0878   18.4267  -99.3652 H         1 LIG1        0.0964
     41 H          89.5560   17.5688 -102.4732 H         1 LIG1        0.0622
     42 H          90.2035   18.7843 -104.5092 H         1 LIG1        0.0618
     43 H          90.5350   21.2496 -104.4458 H         1 LIG1        0.0618
     44 H          90.2023   22.5042 -102.3269 H         1 LIG1        0.0618
     45 H          89.5611   21.3032 -100.2691 H         1 LIG1        0.0622
     46 H          86.5557   17.9765 -100.0649 H         1 LIG1        0.0651
     47 H          86.4245   15.7591 -100.9143 H         1 LIG1        0.0667
     48 H          89.0966   15.1966 -102.8595 H         1 LIG1        0.0489
     49 H          87.3821   14.7969 -102.4182 H         1 LIG1        0.0489
     50 H          88.0800   16.4108 -101.9788 H         1 LIG1        0.0489
     51 H          84.6160   16.3903  -99.4541 H         1 LIG1        0.0576
     52 H          84.4264   13.9091  -98.2498 H         1 LIG1        0.1496
     53 H          85.4590   11.7642 -102.2843 H         1 LIG1        0.0625
     54 H          84.9584    9.3548 -102.2955 H         1 LIG1        0.0618
     55 H          83.8277    8.2997 -100.3578 H         1 LIG1        0.0618
     56 H          83.2184    9.6682  -98.3833 H         1 LIG1        0.0618
     57 H          83.7293   12.0685  -98.3289 H         1 LIG1        0.0625
@<TRIPOS>BOND
     1    1    2 1
     2    2    3 1
     3    3    4 1
     4    4    5 1
     5    5    6 1
     6    6    7 1
     7    7    8 1
     8    8    9 1
     9    9   10 ar
    10   10   11 ar
    11   11   12 ar
    12   12   13 ar
    13   13   14 ar
    14    8   15 1
    15   15   16 1
    16   16   17 1
    17   17   18 1
    18   18   19 1
    19   19   20 1
    20   19   21 2
    21   19   22 2
    22   17   23 1
    23   23   24 1
    24   24   25 am
    25   25   26 2
    26   25   27 1
    27   27   28 ar
    28   28   29 ar
    29   29   30 ar
    30   30   31 ar
    31   31   32 ar
    32   23    3 1
    33   32   27 ar
    34   16    5 1
    35   14    9 ar
    36    1   33 1
    37    1   34 1
    38    1   35 1
    39    3   36 1
    40    5   37 1
    41    6   38 1
    42    6   39 1
    43    8   40 1
    44   10   41 1
    45   11   42 1
    46   12   43 1
    47   13   44 1
    48   14   45 1
    49   16   46 1
    50   17   47 1
    51   20   48 1
    52   20   49 1
    53   20   50 1
    54   23   51 1
    55   24   52 1
    56   28   53 1
    57   29   54 1
    58   30   55 1
    59   31   56 1
    60   32   57 1
@<TRIPOS>SUBSTRUCTURE
1 LIG1 1
@<TRIPOS>COMMENT
ZINC000257347638
PLANTSproteinTorsions
1
5603 28.3959
PLANTSmolcadARTstart hb
PLANTSmolcadARTstart HB
LINES
84.4264 13.9091 -98.2498 83.738 13.004 -96.484 0 255 0 5
89.1828 13.2105 -100.719 91.0145 13.0589 -102.003 0 255 0 5
PLANTSmolcadARTstart HBCH
LINES
PLANTSmolcadARTstart HB-CHO
LINES
PLANTSmolcadARTend
PLANTSmolcadARTstart HB_WATER
LINES
PLANTSmolcadARTend

PLANTSmolcadARTend

