@<TRIPOS>MOLECULE
ZINC000257347638_entry_00415_conf_01
57 60 1
SMALL
NO_CHARGES


@<TRIPOS>ATOM
      1 H          33.5851    3.5248  -56.8974 H         1 LIG1        0.2937
      2 O          33.1683    4.4158  -57.1278 O.2       1 LIG1       -0.4922
      3 C          33.3818    5.0922  -58.3341 C.2       1 LIG1        0.2156
      4 N          32.8727    4.6717  -59.4586 N.2       1 LIG1       -0.2392
      5 C          32.0036    3.5120  -59.6749 C.3       1 LIG1        0.1359
      6 H          31.6538    3.1009  -58.7029 H         1 LIG1        0.0624
      7 C          32.8222    2.4005  -60.3673 C.3       1 LIG1        0.1430
      8 H          33.5319    1.9856  -59.6121 H         1 LIG1        0.0670
      9 O          33.4587    2.9266  -61.5204 O.3       1 LIG1       -0.2303
     10 S          34.9612    2.1773  -61.7638 Du        1 LIG1        0.0797
     11 O          34.9845    0.8203  -61.1160 O.2       1 LIG1       -0.1475
     12 O          35.2382    2.0427  -63.2350 O.2       1 LIG1       -0.1475
     13 C          36.2218    3.1882  -61.0244 C.3       1 LIG1        0.0817
     14 H          36.2336    4.1830  -61.5162 H         1 LIG1        0.0489
     15 H          36.0075    3.3146  -59.9428 H         1 LIG1        0.0489
     16 H          37.2112    2.7017  -61.1505 H         1 LIG1        0.0489
     17 C          31.8783    1.2614  -60.7773 C.3       1 LIG1        0.1208
     18 H          31.4812    0.8091  -59.8380 H         1 LIG1        0.0651
     19 O          32.5769    0.2892  -61.5301 O.3       1 LIG1       -0.3385
     20 C          31.7151   -0.7743  -61.9297 C.3       1 LIG1        0.1859
     21 H          32.3124   -1.4018  -62.6235 H         1 LIG1        0.0964
     22 C          31.3347   -1.7101  -60.7898 C.ar      1 LIG1        0.0079
     23 C          30.7558   -2.9652  -61.0583 C.ar      1 LIG1       -0.0538
     24 H          30.5314   -3.2637  -62.0743 H         1 LIG1        0.0622
     25 C          30.4617   -3.8481  -60.0148 C.ar      1 LIG1       -0.0613
     26 H          30.0063   -4.8059  -60.2300 H         1 LIG1        0.0618
     27 C          30.7656   -3.5013  -58.6967 C.ar      1 LIG1       -0.0617
     28 H          30.5398   -4.1872  -57.8906 H         1 LIG1        0.0618
     29 C          31.3764   -2.2760  -58.4207 C.ar      1 LIG1       -0.0613
     30 H          31.6279   -2.0153  -57.4007 H         1 LIG1        0.0618
     31 C          31.6736   -1.3903  -59.4610 C.ar      1 LIG1       -0.0538
     32 H          32.1659   -0.4550  -59.2262 H         1 LIG1        0.0622
     33 O          30.5968   -0.3161  -62.6875 O.3       1 LIG1       -0.3445
     34 C          29.8418    0.6517  -61.9832 C.3       1 LIG1        0.0798
     35 H          29.3590    0.2042  -61.0856 H         1 LIG1        0.0588
     36 H          29.0274    1.0132  -62.6461 H         1 LIG1        0.0588
     37 C          30.7207    1.8309  -61.5973 C.3       1 LIG1        0.1138
     38 H          31.0926    2.2971  -62.5408 H         1 LIG1        0.0647
     39 O          29.9848    2.7616  -60.8262 O.3       1 LIG1       -0.3409
     40 C          30.7839    3.9048  -60.5496 C.3       1 LIG1        0.1841
     41 H          31.1748    4.3544  -61.4981 H         1 LIG1        0.0933
     42 O          30.0010    4.8488  -59.8450 O.3       1 LIG1       -0.3523
     43 C          28.8829    5.2285  -60.6174 C.3       1 LIG1        0.0395
     44 H          28.2679    4.3487  -60.9105 H         1 LIG1        0.0525
     45 H          28.2421    5.8968  -60.0063 H         1 LIG1        0.0525
     46 H          29.1994    5.7983  -61.5187 H         1 LIG1        0.0525
     47 C          34.2192    6.3162  -58.3300 C.ar      1 LIG1        0.0360
     48 C          34.7725    6.8133  -57.1321 C.ar      1 LIG1       -0.0495
     49 H          34.6029    6.3096  -56.1890 H         1 LIG1        0.0625
     50 C          35.5600    7.9684  -57.1412 C.ar      1 LIG1       -0.0610
     51 H          35.9812    8.3423  -56.2169 H         1 LIG1        0.0618
     52 C          35.8057    8.6401  -58.3403 C.ar      1 LIG1       -0.0617
     53 H          36.4154    9.5344  -58.3447 H         1 LIG1        0.0618
     54 C          35.2656    8.1571  -59.5338 C.ar      1 LIG1       -0.0610
     55 H          35.4578    8.6782  -60.4628 H         1 LIG1        0.0618
     56 C          34.4774    7.0019  -59.5318 C.ar      1 LIG1       -0.0495
     57 H          34.0700    6.6492  -60.4707 H         1 LIG1        0.0625
@<TRIPOS>BOND
     1    1    2 1
     2    2    3 1
     3    3    4 2
     4    4    5 1
     5    5    6 1
     6    5    7 1
     7    7    8 1
     8    7    9 1
     9    9   10 1
    10   10   11 2
    11   10   12 2
    12   10   13 1
    13   13   14 1
    14   13   15 1
    15   13   16 1
    16    7   17 1
    17   17   18 1
    18   17   19 1
    19   19   20 1
    20   20   21 1
    21   20   22 1
    22   22   23 ar
    23   23   24 1
    24   23   25 ar
    25   25   26 1
    26   25   27 ar
    27   27   28 1
    28   27   29 ar
    29   29   30 1
    30   29   31 ar
    31   31   32 1
    32   20   33 1
    33   33   34 1
    34   34   35 1
    35   34   36 1
    36   34   37 1
    37   37   38 1
    38   37   39 1
    39   39   40 1
    40   40   41 1
    41   40   42 1
    42   42   43 1
    43   43   44 1
    44   43   45 1
    45   43   46 1
    46    3   47 1
    47   47   48 ar
    48   48   49 1
    49   48   50 ar
    50   50   51 1
    51   50   52 ar
    52   52   53 1
    53   52   54 ar
    54   54   55 1
    55   54   56 ar
    56   56   57 1
    57   40    5 1
    58   56   47 ar
    59   37   17 1
    60   31   22 ar
@<TRIPOS>SUBSTRUCTURE
1 LIG1 1
@<TRIPOS>COMMENT
ZINC000257347638
PLANTSproteinTorsions
3
1341 167.0450
1946 347.4695
1961 34.6699
PLANTSmolcadARTstart hb
PLANTSmolcadARTstart HB
LINES
33.5851 3.52482 -56.8974 33.8106 2.08718 -56.0905 0 255 0 5
PLANTSmolcadARTstart HBCH
LINES
PLANTSmolcadARTstart HB-CHO
LINES
PLANTSmolcadARTend
PLANTSmolcadARTstart HB_WATER
LINES
PLANTSmolcadARTend

PLANTSmolcadARTend

