@<TRIPOS>MOLECULE
118707521_entry_00009_conf_01
58 62 1
SMALL
NO_CHARGES


@<TRIPOS>ATOM
      1 C          30.0813    2.8129  -60.0112 C.3       1 LIG1        0.0139
      2 N          31.1235    1.9125  -60.5087 N.ar      1 LIG1       -0.3249
      3 C          32.4366    1.8967  -60.1655 C.ar      1 LIG1        0.1634
      4 C          33.0761    2.7586  -59.1542 C.ar      1 LIG1        0.1477
      5 C          32.8001    4.0782  -58.8607 C.ar      1 LIG1        0.0570
      6 N          33.6914    4.4515  -57.9228 N.ar      1 LIG1       -0.2405
      7 C          33.8139    5.7517  -57.2484 C.3       1 LIG1        0.1330
      8 C          35.3008    6.2014  -57.1242 C.3       1 LIG1        0.1818
      9 O          35.6945    6.1117  -55.7807 O.3       1 LIG1       -0.3652
     10 O          35.4760    7.5401  -57.5584 O.3       1 LIG1       -0.3411
     11 C          35.1464    7.6509  -58.9315 C.3       1 LIG1        0.1130
     12 C          35.6500    9.0097  -59.4425 C.3       1 LIG1        0.0730
     13 O          35.1983    9.2554  -60.7475 O.3       1 LIG1       -0.3924
     14 C          33.6142    7.4925  -59.1464 C.3       1 LIG1        0.1115
     15 O          33.3831    6.7446  -60.3133 O.3       1 LIG1       -0.3865
     16 C          32.9244    6.8205  -57.9292 C.3       1 LIG1        0.1105
     17 O          32.6088    7.8052  -56.9756 O.3       1 LIG1       -0.3868
     18 N          34.4732    3.4147  -57.6615 N.ar      1 LIG1       -0.0645
     19 N          34.1294    2.3742  -58.4062 N.ar      1 LIG1       -0.1264
     20 N          33.1485    0.9912  -60.8694 N.ar      1 LIG1       -0.2252
     21 C          32.2550    0.4251  -61.7046 C.ar      1 LIG1        0.0974
     22 C          32.6209   -0.6191  -62.6871 C.ar      1 LIG1        0.0026
     23 C          31.6376   -1.3962  -63.3261 C.ar      1 LIG1       -0.0498
     24 C          32.0052   -2.3797  -64.2493 C.ar      1 LIG1       -0.0258
     25 C          33.3549   -2.6037  -64.5352 C.ar      1 LIG1        0.1234
     26 F          33.7095   -3.5578  -65.4309 F         1 LIG1       -0.2055
     27 C          34.3400   -1.8490  -63.8923 C.ar      1 LIG1       -0.0258
     28 C          33.9765   -0.8657  -62.9671 C.ar      1 LIG1       -0.0498
     29 C          31.0072    0.9926  -61.4917 C.ar      1 LIG1        0.0768
     30 C          29.7869    0.7472  -62.2863 C.ar      1 LIG1        0.0035
     31 C          29.3135    1.7185  -63.1797 C.ar      1 LIG1       -0.0344
     32 C          28.1388    1.4765  -63.8961 C.ar      1 LIG1        0.0282
     33 N          27.4600    0.3101  -63.7203 N.ar      1 LIG1       -0.2632
     34 C          27.8942   -0.6445  -62.8543 C.ar      1 LIG1        0.0282
     35 C          29.0632   -0.4415  -62.1173 C.ar      1 LIG1       -0.0344
     36 H          30.1648    3.7967  -60.5182 H         1 LIG1        0.0456
     37 H          30.1773    2.9384  -58.9126 H         1 LIG1        0.0456
     38 H          29.0703    2.4052  -60.2053 H         1 LIG1        0.0456
     39 H          32.0650    4.7202  -59.3186 H         1 LIG1        0.0850
     40 H          33.4064    5.6199  -56.2192 H         1 LIG1        0.0623
     41 H          35.9653    5.5236  -57.7107 H         1 LIG1        0.0931
     42 H          36.1944    5.2585  -55.6871 H         1 LIG1        0.2125
     43 H          35.6958    6.8783  -59.5194 H         1 LIG1        0.0647
     44 H          35.2845    9.8211  -58.7775 H         1 LIG1        0.0584
     45 H          36.7636    9.0324  -59.4144 H         1 LIG1        0.0584
     46 H          35.0491    8.3679  -61.1684 H         1 LIG1        0.2095
     47 H          33.1558    8.5023  -59.2797 H         1 LIG1        0.0647
     48 H          34.1701    6.8774  -60.9055 H         1 LIG1        0.2100
     49 H          31.9775    6.3299  -58.2600 H         1 LIG1        0.0643
     50 H          33.3665    7.8416  -56.3331 H         1 LIG1        0.2100
     51 H          30.5884   -1.2616  -63.0982 H         1 LIG1        0.0625
     52 H          31.2423   -2.9732  -64.7371 H         1 LIG1        0.0646
     53 H          35.3859   -2.0240  -64.1107 H         1 LIG1        0.0646
     54 H          34.7528   -0.2862  -62.4814 H         1 LIG1        0.0625
     55 H          29.8405    2.6567  -63.3092 H         1 LIG1        0.0639
     56 H          27.7633    2.2189  -64.5879 H         1 LIG1        0.0830
     57 H          27.3301   -1.5600  -62.7350 H         1 LIG1        0.0830
     58 H          29.4007   -1.2022  -61.4230 H         1 LIG1        0.0639
@<TRIPOS>BOND
     1    1    2 1
     2    2    3 ar
     3    3    4 1
     4    4    5 ar
     5    5    6 ar
     6    6    7 1
     7    7    8 1
     8    8    9 1
     9    8   10 1
    10   10   11 1
    11   11   12 1
    12   12   13 1
    13   11   14 1
    14   14   15 1
    15   14   16 1
    16   16   17 1
    17    6   18 ar
    18   18   19 ar
    19    3   20 ar
    20   20   21 ar
    21   21   22 1
    22   22   23 ar
    23   23   24 ar
    24   24   25 ar
    25   25   26 1
    26   25   27 ar
    27   27   28 ar
    28   21   29 ar
    29   29   30 1
    30   30   31 ar
    31   31   32 ar
    32   32   33 ar
    33   33   34 ar
    34   34   35 ar
    35   29    2 ar
    36   35   30 ar
    37   19    4 ar
    38   28   22 ar
    39   16    7 1
    40    1   36 1
    41    1   37 1
    42    1   38 1
    43    5   39 1
    44    7   40 1
    45    8   41 1
    46    9   42 1
    47   11   43 1
    48   12   44 1
    49   12   45 1
    50   13   46 1
    51   14   47 1
    52   15   48 1
    53   16   49 1
    54   17   50 1
    55   23   51 1
    56   24   52 1
    57   27   53 1
    58   28   54 1
    59   31   55 1
    60   32   56 1
    61   34   57 1
    62   35   58 1
@<TRIPOS>SUBSTRUCTURE
1 LIG1 1
@<TRIPOS>COMMENT
118707521
PLANTSproteinTorsions
3
1341 50.8561
1946 226.9293
1961 313.6629
PLANTSmolcadARTstart hb
PLANTSmolcadARTstart HB
LINES
35.0491 8.3679 -61.1684 34.859 6.749 -62.479 0 255 0 5
34.1701 6.87743 -60.9055 34.859 6.749 -62.479 0 255 0 5
33.3831 6.74457 -60.3133 32.0655 6.17877 -61.6811 0 255 0 5
PLANTSmolcadARTstart HBCH
LINES
PLANTSmolcadARTstart HB-CHO
LINES
PLANTSmolcadARTend
PLANTSmolcadARTstart HB_WATER
LINES
PLANTSmolcadARTend

PLANTSmolcadARTend

