@<TRIPOS>MOLECULE
118707521_entry_00006_conf_01
58 62 1
SMALL
NO_CHARGES


@<TRIPOS>ATOM
      1 C          29.0681    1.2542  -61.2307 C.3       1 UNL1        0.0139
      2 N          30.5305    1.2087  -61.3114 N.ar      1 UNL1       -0.3249
      3 C          31.4083    2.0943  -60.7792 C.ar      1 UNL1        0.1634
      4 C          31.0480    3.3379  -60.0719 C.ar      1 UNL1        0.1477
      5 C          31.9166    4.1784  -59.4147 C.ar      1 UNL1        0.0570
      6 N          31.1719    5.1870  -58.9214 N.ar      1 UNL1       -0.2405
      7 C          31.6198    6.3977  -58.2175 C.3       1 UNL1        0.1330
      8 C          32.6063    6.0767  -57.0530 C.3       1 UNL1        0.1818
      9 O          31.9601    6.3070  -55.8297 O.3       1 UNL1       -0.3652
     10 O          33.7628    6.8961  -57.1166 O.3       1 UNL1       -0.3411
     11 C          34.4791    6.6361  -58.3113 C.3       1 UNL1        0.1130
     12 C          35.8501    7.3223  -58.2078 C.3       1 UNL1        0.0730
     13 O          35.7349    8.7099  -58.3725 O.3       1 UNL1       -0.3924
     14 C          33.6848    7.1331  -59.5564 C.3       1 UNL1        0.1115
     15 O          33.7440    6.1731  -60.5809 O.3       1 UNL1       -0.3865
     16 C          32.2053    7.4249  -59.2144 C.3       1 UNL1        0.1105
     17 O          32.0995    8.7098  -58.6492 O.3       1 UNL1       -0.3868
     18 N          29.9144    4.9788  -59.2801 N.ar      1 UNL1       -0.0645
     19 N          29.8067    3.8572  -59.9782 N.ar      1 UNL1       -0.1264
     20 N          32.6942    1.7241  -60.9576 N.ar      1 UNL1       -0.2252
     21 C          32.6276    0.5644  -61.6407 C.ar      1 UNL1        0.0974
     22 C          33.8302   -0.1883  -62.0593 C.ar      1 UNL1        0.0026
     23 C          33.7512   -1.2229  -63.0089 C.ar      1 UNL1       -0.0498
     24 C          34.9015   -1.9213  -63.3897 C.ar      1 UNL1       -0.0258
     25 C          36.1410   -1.5844  -62.8398 C.ar      1 UNL1        0.1234
     26 F          37.2550   -2.2620  -63.2117 F         1 UNL1       -0.2055
     27 C          36.2325   -0.5434  -61.9121 C.ar      1 UNL1       -0.0258
     28 C          35.0844    0.1559  -61.5267 C.ar      1 UNL1       -0.0498
     29 C          31.2962    0.2419  -61.8652 C.ar      1 UNL1        0.0768
     30 C          30.7829   -0.9863  -62.5076 C.ar      1 UNL1        0.0035
     31 C          31.1196   -2.2479  -61.9967 C.ar      1 UNL1       -0.0344
     32 C          30.6433   -3.3961  -62.6334 C.ar      1 UNL1        0.0282
     33 N          29.8606   -3.2877  -63.7394 N.ar      1 UNL1       -0.2632
     34 C          29.5227   -2.0771  -64.2573 C.ar      1 UNL1        0.0282
     35 C          29.9796   -0.9034  -63.6530 C.ar      1 UNL1       -0.0344
     36 H          28.7533    1.3805  -60.1740 H         1 UNL1        0.0456
     37 H          28.6085    0.3156  -61.5962 H         1 UNL1        0.0456
     38 H          28.6865    2.1010  -61.8396 H         1 UNL1        0.0456
     39 H          32.9871    4.0665  -59.3172 H         1 UNL1        0.0850
     40 H          30.7109    6.8701  -57.7793 H         1 UNL1        0.0623
     41 H          32.9060    5.0040  -57.0686 H         1 UNL1        0.0931
     42 H          31.8569    5.4214  -55.3923 H         1 UNL1        0.2125
     43 H          34.6824    5.5424  -58.4014 H         1 UNL1        0.0647
     44 H          36.5385    6.9057  -58.9776 H         1 UNL1        0.0584
     45 H          36.2977    7.1151  -57.2126 H         1 UNL1        0.0584
     46 H          36.2886    9.1284  -57.6634 H         1 UNL1        0.2095
     47 H          34.1227    8.0855  -59.9413 H         1 UNL1        0.0647
     48 H          34.4798    6.4441  -61.1896 H         1 UNL1        0.2100
     49 H          31.5974    7.3957  -60.1509 H         1 UNL1        0.0643
     50 H          33.0061    8.9630  -58.3312 H         1 UNL1        0.2100
     51 H          32.8079   -1.4788  -63.4729 H         1 UNL1        0.0625
     52 H          34.8315   -2.7180  -64.1190 H         1 UNL1        0.0646
     53 H          37.1929   -0.2779  -61.4895 H         1 UNL1        0.0646
     54 H          35.1730    0.9561  -60.8020 H         1 UNL1        0.0625
     55 H          31.7408   -2.3406  -61.1145 H         1 UNL1        0.0639
     56 H          30.8949   -4.3742  -62.2466 H         1 UNL1        0.0830
     57 H          28.9012   -2.0252  -65.1408 H         1 UNL1        0.0830
     58 H          29.7170    0.0584  -64.0772 H         1 UNL1        0.0639
@<TRIPOS>BOND
     1    1    2 1
     2    2    3 ar
     3    3    4 1
     4    4    5 ar
     5    5    6 ar
     6    6    7 1
     7    7    8 1
     8    8    9 1
     9    8   10 1
    10   10   11 1
    11   11   12 1
    12   12   13 1
    13   11   14 1
    14   14   15 1
    15   14   16 1
    16   16   17 1
    17    6   18 ar
    18   18   19 ar
    19    3   20 ar
    20   20   21 ar
    21   21   22 1
    22   22   23 ar
    23   23   24 ar
    24   24   25 ar
    25   25   26 1
    26   25   27 ar
    27   27   28 ar
    28   21   29 ar
    29   29   30 1
    30   30   31 ar
    31   31   32 ar
    32   32   33 ar
    33   33   34 ar
    34   34   35 ar
    35   29    2 ar
    36   35   30 ar
    37   19    4 ar
    38   28   22 ar
    39   16    7 1
    40    1   36 1
    41    1   37 1
    42    1   38 1
    43    5   39 1
    44    7   40 1
    45    8   41 1
    46    9   42 1
    47   11   43 1
    48   12   44 1
    49   12   45 1
    50   13   46 1
    51   14   47 1
    52   15   48 1
    53   16   49 1
    54   17   50 1
    55   23   51 1
    56   24   52 1
    57   27   53 1
    58   28   54 1
    59   31   55 1
    60   32   56 1
    61   34   57 1
    62   35   58 1
@<TRIPOS>SUBSTRUCTURE
1 UNL1 1
@<TRIPOS>COMMENT
118707521
PLANTSproteinTorsions
3
1341 65.0161
1946 225.9519
1961 60.6634
PLANTSmolcadARTstart hb
PLANTSmolcadARTstart HB
LINES
31.8569 5.42137 -55.3923 31.681 3.781 -55.47 0 255 0 5
34.4798 6.4441 -61.1896 34.859 6.749 -62.479 0 255 0 5
33.744 6.17315 -60.5809 32.2974 6.15731 -61.8008 0 255 0 5
PLANTSmolcadARTstart HBCH
LINES
PLANTSmolcadARTstart HB-CHO
LINES
PLANTSmolcadARTend
PLANTSmolcadARTstart HB_WATER
LINES
PLANTSmolcadARTend

PLANTSmolcadARTend

