@<TRIPOS>MOLECULE
118707521_entry_00009_conf_01
58 62 1
SMALL
NO_CHARGES


@<TRIPOS>ATOM
      1 C          87.4727   17.5425  -98.1859 C.3       1 LIG1        0.0139
      2 N          87.9192   17.0448  -99.4887 N.ar      1 LIG1       -0.3249
      3 C          87.8868   15.7658  -99.9416 C.ar      1 LIG1        0.1634
      4 C          87.3243   14.6080  -99.2219 C.ar      1 LIG1        0.1477
      5 C          86.6044   13.5505  -99.7385 C.ar      1 LIG1        0.0570
      6 N          86.2447   12.7888  -98.6878 N.ar      1 LIG1       -0.2405
      7 C          85.4873   11.5291  -98.6925 C.3       1 LIG1        0.1330
      8 C          84.3479   11.5429  -99.7555 C.3       1 LIG1        0.1818
      9 O          83.1108   11.6194  -99.0984 O.3       1 LIG1       -0.3652
     10 O          84.3659   10.3686 -100.5507 O.3       1 LIG1       -0.3411
     11 C          85.5794   10.2945 -101.2775 C.3       1 LIG1        0.1130
     12 C          85.4334    9.2083 -102.3545 C.3       1 LIG1        0.0730
     13 O          86.6266    9.0501 -103.0747 O.3       1 LIG1       -0.3924
     14 C          86.7751    9.9995 -100.3278 C.3       1 LIG1        0.1115
     15 O          87.8905   10.7496 -100.7374 O.3       1 LIG1       -0.3865
     16 C          86.4298   10.3107  -98.8469 C.3       1 LIG1        0.1105
     17 O          85.8011    9.1903  -98.2741 O.3       1 LIG1       -0.3868
     18 N          86.7168   13.3551  -97.5875 N.ar      1 LIG1       -0.0645
     19 N          87.3674   14.4711  -97.8817 N.ar      1 LIG1       -0.1264
     20 N          88.4511   15.6298 -101.1603 N.ar      1 LIG1       -0.2252
     21 C          88.8747   16.8678 -101.4833 C.ar      1 LIG1        0.0974
     22 C          89.5836   17.1720 -102.7460 C.ar      1 LIG1        0.0026
     23 C          89.7955   18.4991 -103.1622 C.ar      1 LIG1       -0.0498
     24 C          90.4653   18.7643 -104.3605 C.ar      1 LIG1       -0.0258
     25 C          90.9197   17.7103 -105.1581 C.ar      1 LIG1        0.1234
     26 F          91.5691   17.9696 -106.3197 F         1 LIG1       -0.2055
     27 C          90.6982   16.3885 -104.7620 C.ar      1 LIG1       -0.0258
     28 C          90.0273   16.1190 -103.5652 C.ar      1 LIG1       -0.0498
     29 C          88.5556   17.7427 -100.4552 C.ar      1 LIG1        0.0768
     30 C          88.9577   19.1601 -100.3555 C.ar      1 LIG1        0.0035
     31 C          90.3129   19.5182 -100.3864 C.ar      1 LIG1       -0.0344
     32 C          90.6700   20.8627 -100.2576 C.ar      1 LIG1        0.0282
     33 N          89.7081   21.8120 -100.0971 N.ar      1 LIG1       -0.2632
     34 C          88.3874   21.4897 -100.0562 C.ar      1 LIG1        0.0282
     35 C          87.9879   20.1571 -100.1796 C.ar      1 LIG1       -0.0344
     36 H          88.2388   17.3130  -97.4162 H         1 LIG1        0.0456
     37 H          86.5027   17.0781  -97.9115 H         1 LIG1        0.0456
     38 H          87.3153   18.6383  -98.2055 H         1 LIG1        0.0456
     39 H          86.3218   13.3781 -100.7645 H         1 LIG1        0.0850
     40 H          85.0183   11.4320  -97.6858 H         1 LIG1        0.0623
     41 H          84.4328   12.4433 -100.4090 H         1 LIG1        0.0931
     42 H          82.8308   12.5719  -99.1292 H         1 LIG1        0.2125
     43 H          85.7547   11.2499 -101.8260 H         1 LIG1        0.0647
     44 H          85.1702    8.2394 -101.8790 H         1 LIG1        0.0584
     45 H          84.6029    9.4756 -103.0475 H         1 LIG1        0.0584
     46 H          87.0359    9.9524 -103.1481 H         1 LIG1        0.2095
     47 H          87.0373    8.9157 -100.3932 H         1 LIG1        0.0647
     48 H          87.7309   11.0180 -101.6809 H         1 LIG1        0.2100
     49 H          87.3689   10.5194  -98.2800 H         1 LIG1        0.0643
     50 H          84.8260    9.3825  -98.2538 H         1 LIG1        0.2100
     51 H          89.4262   19.3305 -102.5766 H         1 LIG1        0.0625
     52 H          90.6248   19.7885 -104.6734 H         1 LIG1        0.0646
     53 H          91.0470   15.5713 -105.3808 H         1 LIG1        0.0646
     54 H          89.8684   15.0883 -103.2706 H         1 LIG1        0.0625
     55 H          91.0835   18.7636 -100.4953 H         1 LIG1        0.0639
     56 H          91.7126   21.1509 -100.2793 H         1 LIG1        0.0830
     57 H          87.6472   22.2677  -99.9244 H         1 LIG1        0.0830
     58 H          86.9346   19.9049 -100.1389 H         1 LIG1        0.0639
@<TRIPOS>BOND
     1    1    2 1
     2    2    3 ar
     3    3    4 1
     4    4    5 ar
     5    5    6 ar
     6    6    7 1
     7    7    8 1
     8    8    9 1
     9    8   10 1
    10   10   11 1
    11   11   12 1
    12   12   13 1
    13   11   14 1
    14   14   15 1
    15   14   16 1
    16   16   17 1
    17    6   18 ar
    18   18   19 ar
    19    3   20 ar
    20   20   21 ar
    21   21   22 1
    22   22   23 ar
    23   23   24 ar
    24   24   25 ar
    25   25   26 1
    26   25   27 ar
    27   27   28 ar
    28   21   29 ar
    29   29   30 1
    30   30   31 ar
    31   31   32 ar
    32   32   33 ar
    33   33   34 ar
    34   34   35 ar
    35   29    2 ar
    36   35   30 ar
    37   19    4 ar
    38   28   22 ar
    39   16    7 1
    40    1   36 1
    41    1   37 1
    42    1   38 1
    43    5   39 1
    44    7   40 1
    45    8   41 1
    46    9   42 1
    47   11   43 1
    48   12   44 1
    49   12   45 1
    50   13   46 1
    51   14   47 1
    52   15   48 1
    53   16   49 1
    54   17   50 1
    55   23   51 1
    56   24   52 1
    57   27   53 1
    58   28   54 1
    59   31   55 1
    60   32   56 1
    61   34   57 1
    62   35   58 1
@<TRIPOS>SUBSTRUCTURE
1 LIG1 1
@<TRIPOS>COMMENT
118707521
PLANTSproteinTorsions
1
5603 348.9104
PLANTSmolcadARTstart hb
PLANTSmolcadARTstart HB
LINES
82.8308 12.5719 -99.1292 81.507 14.163 -98.656 0 255 0 5
87.0359 9.95242 -103.148 87.564 11.946 -103.544 0 255 0 5
87.7309 11.018 -101.681 87.564 11.946 -103.544 0 255 0 5
PLANTSmolcadARTstart HBCH
LINES
PLANTSmolcadARTstart HB-CHO
LINES
PLANTSmolcadARTend
PLANTSmolcadARTstart HB_WATER
LINES
PLANTSmolcadARTend

PLANTSmolcadARTend

