@<TRIPOS>MOLECULE
76325328_entry_00017_conf_01
58 62 1
SMALL
NO_CHARGES


@<TRIPOS>ATOM
      1 C          31.2937    5.1476  -59.5415 C.3       1 LIG1        0.0139
      2 N          32.1762    4.0380  -59.1728 N.ar      1 LIG1       -0.3249
      3 C          31.9249    2.7121  -59.3047 C.ar      1 LIG1        0.1634
      4 C          30.7290    2.1275  -59.9415 C.ar      1 LIG1        0.1477
      5 C          30.6615    0.9073  -60.5793 C.ar      1 LIG1        0.0570
      6 N          29.4019    0.7929  -61.0342 N.ar      1 LIG1       -0.2405
      7 C          28.8480   -0.3256  -61.8041 C.3       1 LIG1        0.1330
      8 C          29.1106   -0.1442  -63.3222 C.3       1 LIG1        0.1818
      9 O          29.0444    1.2112  -63.6812 O.3       1 LIG1       -0.3652
     10 O          30.3924   -0.6415  -63.6570 O.3       1 LIG1       -0.3411
     11 C          30.4609   -2.0642  -63.5695 C.3       1 LIG1        0.1130
     12 C          30.1603   -2.6899  -64.9400 C.3       1 LIG1        0.0730
     13 O          31.0644   -2.2110  -65.8975 O.3       1 LIG1       -0.3924
     14 C          29.5851   -2.6811  -62.4363 C.3       1 LIG1        0.1115
     15 O          30.1887   -3.8592  -61.9648 O.3       1 LIG1       -0.3865
     16 C          29.4434   -1.6624  -61.2891 C.3       1 LIG1        0.1105
     17 O          28.6690   -2.1804  -60.2354 O.3       1 LIG1       -0.3868
     18 N          28.7347    1.8875  -60.7015 N.ar      1 LIG1       -0.0645
     19 N          29.5206    2.7202  -60.0346 N.ar      1 LIG1       -0.1264
     20 N          32.9092    1.9425  -58.7935 N.ar      1 LIG1       -0.2252
     21 C          33.8268    2.8168  -58.3349 C.ar      1 LIG1        0.0974
     22 C          35.0986    2.3899  -57.7111 C.ar      1 LIG1        0.0026
     23 C          35.1894    1.1190  -57.1181 C.ar      1 LIG1       -0.0498
     24 C          36.3855    0.6970  -56.5289 C.ar      1 LIG1       -0.0258
     25 C          37.5047    1.5335  -56.5388 C.ar      1 LIG1        0.1234
     26 F          38.6634    1.1227  -55.9668 F         1 LIG1       -0.2055
     27 C          37.4311    2.7901  -57.1457 C.ar      1 LIG1       -0.0258
     28 C          36.2366    3.2162  -57.7352 C.ar      1 LIG1       -0.0498
     29 C          33.3833    4.1112  -58.5696 C.ar      1 LIG1        0.0768
     30 C          34.0541    5.3628  -58.1581 C.ar      1 LIG1        0.0035
     31 C          34.1317    5.7136  -56.8035 C.ar      1 LIG1       -0.0344
     32 C          34.7543    6.9094  -56.4376 C.ar      1 LIG1        0.0282
     33 N          35.2752    7.7268  -57.3903 N.ar      1 LIG1       -0.2632
     34 C          35.2088    7.4131  -58.7112 C.ar      1 LIG1        0.0282
     35 C          34.5964    6.2262  -59.1202 C.ar      1 LIG1       -0.0344
     36 H          31.2623    5.2491  -60.6463 H         1 LIG1        0.0456
     37 H          30.2711    4.9629  -59.1517 H         1 LIG1        0.0456
     38 H          31.6389    6.1044  -59.1003 H         1 LIG1        0.0456
     39 H          31.4508    0.1784  -60.7102 H         1 LIG1        0.0850
     40 H          27.7422   -0.3410  -61.6714 H         1 LIG1        0.0623
     41 H          28.3283   -0.6921  -63.9017 H         1 LIG1        0.0931
     42 H          29.8593    1.4065  -64.2147 H         1 LIG1        0.2125
     43 H          31.5221   -2.3016  -63.3331 H         1 LIG1        0.0647
     44 H          30.2269   -3.7991  -64.8797 H         1 LIG1        0.0584
     45 H          29.1243   -2.4165  -65.2427 H         1 LIG1        0.0584
     46 H          31.9119   -2.7050  -65.7474 H         1 LIG1        0.2095
     47 H          28.5693   -2.9116  -62.8394 H         1 LIG1        0.0647
     48 H          29.4774   -4.5501  -61.9153 H         1 LIG1        0.2100
     49 H          30.4661   -1.4783  -60.8904 H         1 LIG1        0.0643
     50 H          28.9929   -1.7672  -59.3922 H         1 LIG1        0.2100
     51 H          34.3303    0.4594  -57.0977 H         1 LIG1        0.0625
     52 H          36.4434   -0.2791  -56.0644 H         1 LIG1        0.0646
     53 H          38.3012    3.4331  -57.1662 H         1 LIG1        0.0646
     54 H          36.2118    4.1802  -58.2256 H         1 LIG1        0.0625
     55 H          33.7071    5.0729  -56.0407 H         1 LIG1        0.0639
     56 H          34.8200    7.1893  -55.3950 H         1 LIG1        0.0830
     57 H          35.6312    8.0860  -59.4449 H         1 LIG1        0.0830
     58 H          34.5478    5.9814  -60.1737 H         1 LIG1        0.0639
@<TRIPOS>BOND
     1    1    2 1
     2    2    3 ar
     3    3    4 1
     4    4    5 ar
     5    5    6 ar
     6    6    7 1
     7    7    8 1
     8    8    9 1
     9    8   10 1
    10   10   11 1
    11   11   12 1
    12   12   13 1
    13   11   14 1
    14   14   15 1
    15   14   16 1
    16   16   17 1
    17    6   18 ar
    18   18   19 ar
    19    3   20 ar
    20   20   21 ar
    21   21   22 1
    22   22   23 ar
    23   23   24 ar
    24   24   25 ar
    25   25   26 1
    26   25   27 ar
    27   27   28 ar
    28   21   29 ar
    29   29   30 1
    30   30   31 ar
    31   31   32 ar
    32   32   33 ar
    33   33   34 ar
    34   34   35 ar
    35   29    2 ar
    36   35   30 ar
    37   19    4 ar
    38   28   22 ar
    39   16    7 1
    40    1   36 1
    41    1   37 1
    42    1   38 1
    43    5   39 1
    44    7   40 1
    45    8   41 1
    46    9   42 1
    47   11   43 1
    48   12   44 1
    49   12   45 1
    50   13   46 1
    51   14   47 1
    52   15   48 1
    53   16   49 1
    54   17   50 1
    55   23   51 1
    56   24   52 1
    57   27   53 1
    58   28   54 1
    59   31   55 1
    60   32   56 1
    61   34   57 1
    62   35   58 1
@<TRIPOS>SUBSTRUCTURE
1 LIG1 1
@<TRIPOS>COMMENT
76325328
PLANTSproteinTorsions
3
1341 267.5211
1946 226.0125
1961 182.1929
PLANTSmolcadARTstart hb
PLANTSmolcadARTstart HB
LINES
PLANTSmolcadARTstart HBCH
LINES
PLANTSmolcadARTstart HB-CHO
LINES
PLANTSmolcadARTend
PLANTSmolcadARTstart HB_WATER
LINES
PLANTSmolcadARTend

PLANTSmolcadARTend

