@<TRIPOS>MOLECULE
76325328_entry_00012_conf_01
58 62 1
SMALL
NO_CHARGES


@<TRIPOS>ATOM
      1 C          30.1298    1.2163  -60.8568 C.3       1 UNL1        0.0139
      2 N          31.5076    0.7385  -61.0015 N.ar      1 UNL1       -0.3249
      3 C          32.6101    1.2250  -60.3810 C.ar      1 UNL1        0.1634
      4 C          32.6146    2.2841  -59.3536 C.ar      1 UNL1        0.1477
      5 C          32.8679    3.6224  -59.5648 C.ar      1 UNL1        0.0570
      6 N          32.7736    4.2160  -58.3600 N.ar      1 UNL1       -0.2405
      7 C          32.9793    5.6336  -58.0412 C.3       1 UNL1        0.1330
      8 C          34.4878    5.9794  -57.9229 C.3       1 UNL1        0.1818
      9 O          35.2044    4.8734  -57.4417 O.3       1 UNL1       -0.3652
     10 O          35.0079    6.3642  -59.1840 O.3       1 UNL1       -0.3411
     11 C          34.4977    7.6241  -59.6152 C.3       1 UNL1        0.1130
     12 C          35.4224    8.7613  -59.1432 C.3       1 UNL1        0.0730
     13 O          36.4490    8.9891  -60.0714 O.3       1 UNL1       -0.3924
     14 C          33.0069    7.8735  -59.2196 C.3       1 UNL1        0.1115
     15 O          32.3695    8.7158  -60.1498 O.3       1 UNL1       -0.3865
     16 C          32.2680    6.5292  -59.0868 C.3       1 UNL1        0.1105
     17 O          30.9373    6.7420  -58.6890 O.3       1 UNL1       -0.3868
     18 N          32.4817    3.2897  -57.4606 N.ar      1 UNL1       -0.0645
     19 N          32.3792    2.1016  -58.0384 N.ar      1 UNL1       -0.1264
     20 N          33.7489    0.6409  -60.8100 N.ar      1 UNL1       -0.2252
     21 C          33.3487   -0.2572  -61.7315 C.ar      1 UNL1        0.0974
     22 C          34.2898   -1.1324  -62.4626 C.ar      1 UNL1        0.0026
     23 C          35.5628   -1.4284  -61.9411 C.ar      1 UNL1       -0.0498
     24 C          36.4410   -2.2536  -62.6500 C.ar      1 UNL1       -0.0258
     25 C          36.0583   -2.7881  -63.8846 C.ar      1 UNL1        0.1234
     26 F          36.9110   -3.5888  -64.5704 F         1 UNL1       -0.2055
     27 C          34.8019   -2.4867  -64.4172 C.ar      1 UNL1       -0.0258
     28 C          33.9239   -1.6553  -63.7140 C.ar      1 UNL1       -0.0498
     29 C          31.9677   -0.2051  -61.8526 C.ar      1 UNL1        0.0768
     30 C          31.1396   -0.9638  -62.8124 C.ar      1 UNL1        0.0035
     31 C          30.3153   -0.2896  -63.7243 C.ar      1 UNL1       -0.0344
     32 C          29.5272   -1.0260  -64.6107 C.ar      1 UNL1        0.0282
     33 N          29.5596   -2.3856  -64.5835 N.ar      1 UNL1       -0.2632
     34 C          30.3472   -3.0642  -63.7065 C.ar      1 UNL1        0.0282
     35 C          31.1488   -2.3659  -62.8016 C.ar      1 UNL1       -0.0344
     36 H          30.0891    2.3086  -61.0537 H         1 UNL1        0.0456
     37 H          29.7670    1.0061  -59.8286 H         1 UNL1        0.0456
     38 H          29.4492    0.7256  -61.5803 H         1 UNL1        0.0456
     39 H          33.1076    4.1159  -60.4983 H         1 UNL1        0.0850
     40 H          32.5283    5.8350  -57.0418 H         1 UNL1        0.0623
     41 H          34.6063    6.8078  -57.1837 H         1 UNL1        0.0931
     42 H          34.9777    4.1121  -58.0368 H         1 UNL1        0.2125
     43 H          34.5542    7.6044  -60.7256 H         1 UNL1        0.0647
     44 H          35.8584    8.5056  -58.1507 H         1 UNL1        0.0584
     45 H          34.8446    9.6994  -59.0188 H         1 UNL1        0.0584
     46 H          36.4745    8.1923  -60.6638 H         1 UNL1        0.2095
     47 H          32.9672    8.3783  -58.2286 H         1 UNL1        0.0647
     48 H          32.2287    9.5976  -59.7167 H         1 UNL1        0.2100
     49 H          32.2867    6.0242  -60.0814 H         1 UNL1        0.0643
     50 H          30.5275    5.8471  -58.5557 H         1 UNL1        0.2100
     51 H          35.8873   -1.0094  -60.9975 H         1 UNL1        0.0625
     52 H          37.4203   -2.4743  -62.2453 H         1 UNL1        0.0646
     53 H          34.5069   -2.8974  -65.3748 H         1 UNL1        0.0646
     54 H          32.9512   -1.4370  -64.1371 H         1 UNL1        0.0625
     55 H          30.2783    0.7929  -63.7417 H         1 UNL1        0.0639
     56 H          28.8851   -0.5167  -65.3173 H         1 UNL1        0.0830
     57 H          30.3489   -4.1466  -63.7091 H         1 UNL1        0.0830
     58 H          31.7739   -2.9107  -62.1041 H         1 UNL1        0.0639
@<TRIPOS>BOND
     1    1    2 1
     2    2    3 ar
     3    3    4 1
     4    4    5 ar
     5    5    6 ar
     6    6    7 1
     7    7    8 1
     8    8    9 1
     9    8   10 1
    10   10   11 1
    11   11   12 1
    12   12   13 1
    13   11   14 1
    14   14   15 1
    15   14   16 1
    16   16   17 1
    17    6   18 ar
    18   18   19 ar
    19    3   20 ar
    20   20   21 ar
    21   21   22 1
    22   22   23 ar
    23   23   24 ar
    24   24   25 ar
    25   25   26 1
    26   25   27 ar
    27   27   28 ar
    28   21   29 ar
    29   29   30 1
    30   30   31 ar
    31   31   32 ar
    32   32   33 ar
    33   33   34 ar
    34   34   35 ar
    35   29    2 ar
    36   35   30 ar
    37   19    4 ar
    38   28   22 ar
    39   16    7 1
    40    1   36 1
    41    1   37 1
    42    1   38 1
    43    5   39 1
    44    7   40 1
    45    8   41 1
    46    9   42 1
    47   11   43 1
    48   12   44 1
    49   12   45 1
    50   13   46 1
    51   14   47 1
    52   15   48 1
    53   16   49 1
    54   17   50 1
    55   23   51 1
    56   24   52 1
    57   27   53 1
    58   28   54 1
    59   31   55 1
    60   32   56 1
    61   34   57 1
    62   35   58 1
@<TRIPOS>SUBSTRUCTURE
1 UNL1 1
@<TRIPOS>COMMENT
76325328
PLANTSproteinTorsions
3
1341 172.8648
1946 82.3965
1961 133.8175
PLANTSmolcadARTstart hb
PLANTSmolcadARTstart HB
LINES
PLANTSmolcadARTstart HBCH
LINES
PLANTSmolcadARTstart HB-CHO
LINES
PLANTSmolcadARTend
PLANTSmolcadARTstart HB_WATER
LINES
PLANTSmolcadARTend

PLANTSmolcadARTend

