@<TRIPOS>MOLECULE
76325328_entry_00018_conf_01
58 62 1
SMALL
NO_CHARGES


@<TRIPOS>ATOM
      1 C          87.6734   17.2027  -98.0116 C.3       1 LIG1        0.0139
      2 N          88.1247   16.7628  -99.3340 N.ar      1 LIG1       -0.3249
      3 C          88.1463   15.4944  -99.8125 C.ar      1 LIG1        0.1634
      4 C          87.6288   14.3055  -99.1080 C.ar      1 LIG1        0.1477
      5 C          87.1614   13.1505  -99.6969 C.ar      1 LIG1        0.0570
      6 N          86.7773   12.3452  -98.6917 N.ar      1 LIG1       -0.2405
      7 C          86.2814   10.9694  -98.8228 C.3       1 LIG1        0.1330
      8 C          84.7379   10.9294  -98.7318 C.3       1 LIG1        0.1818
      9 O          84.1528   12.0893  -99.2754 O.3       1 LIG1       -0.3652
     10 O          84.2371    9.7585  -99.3539 O.3       1 LIG1       -0.3411
     11 C          84.3594    9.8170 -100.7703 C.3       1 LIG1        0.1130
     12 C          84.0205    8.4324 -101.3436 C.3       1 LIG1        0.0730
     13 O          84.1922    8.4201 -102.7356 O.3       1 LIG1       -0.3924
     14 C          85.7709   10.2887 -101.2571 C.3       1 LIG1        0.1115
     15 O          85.6806   11.5855 -101.7903 O.3       1 LIG1       -0.3865
     16 C          86.8119   10.2877 -100.1170 C.3       1 LIG1        0.1105
     17 O          87.2443    8.9738  -99.8534 O.3       1 LIG1       -0.3868
     18 N          87.0119   12.9680  -97.5465 N.ar      1 LIG1       -0.0645
     19 N          87.5230   14.1699  -97.7707 N.ar      1 LIG1       -0.1264
     20 N          88.7017   15.4110 -101.0401 N.ar      1 LIG1       -0.2252
     21 C          89.0302   16.6793 -101.3570 C.ar      1 LIG1        0.0974
     22 C          89.6523   17.0467 -102.6482 C.ar      1 LIG1        0.0026
     23 C          89.7947   18.3920 -103.0340 C.ar      1 LIG1       -0.0498
     24 C          90.3766   18.7162 -104.2632 C.ar      1 LIG1       -0.0258
     25 C          90.8089   17.7034 -105.1232 C.ar      1 LIG1        0.1234
     26 F          91.3718   18.0200 -106.3152 F         1 LIG1       -0.2055
     27 C          90.6527   16.3640 -104.7579 C.ar      1 LIG1       -0.0258
     28 C          90.0712   16.0354 -103.5295 C.ar      1 LIG1       -0.0498
     29 C          88.6736   17.5192 -100.3107 C.ar      1 LIG1        0.0768
     30 C          88.9324   18.9718 -100.2169 C.ar      1 LIG1        0.0035
     31 C          87.8675   19.8759 -100.1014 C.ar      1 LIG1       -0.0344
     32 C          88.1335   21.2456 -100.0302 C.ar      1 LIG1        0.0282
     33 N          89.4159   21.6948 -100.0769 N.ar      1 LIG1       -0.2632
     34 C          90.4667   20.8397 -100.1929 C.ar      1 LIG1        0.0282
     35 C          90.2448   19.4625 -100.2661 C.ar      1 LIG1       -0.0344
     36 H          87.9951   18.2417  -97.7981 H         1 LIG1        0.0456
     37 H          86.5661   17.1481  -97.9571 H         1 LIG1        0.0456
     38 H          88.1204   16.5590  -97.2257 H         1 LIG1        0.0456
     39 H          87.1139   12.9124 -100.7518 H         1 LIG1        0.0850
     40 H          86.6775   10.3860  -97.9596 H         1 LIG1        0.0623
     41 H          84.4716   10.8824  -97.6511 H         1 LIG1        0.0931
     42 H          83.9206   12.6731  -98.5068 H         1 LIG1        0.2125
     43 H          83.5832   10.5113 -101.1669 H         1 LIG1        0.0647
     44 H          84.6633    7.6521 -100.8746 H         1 LIG1        0.0584
     45 H          82.9628    8.1813 -101.1177 H         1 LIG1        0.0584
     46 H          83.4685    7.8504 -103.1065 H         1 LIG1        0.2095
     47 H          86.1599    9.6126 -102.0560 H         1 LIG1        0.0647
     48 H          86.3024   11.6226 -102.5639 H         1 LIG1        0.2100
     49 H          87.7094   10.8393 -100.4745 H         1 LIG1        0.0643
     50 H          87.8560    9.0016  -99.0729 H         1 LIG1        0.2100
     51 H          89.4381   19.1920 -102.3992 H         1 LIG1        0.0625
     52 H          90.4847   19.7541 -104.5515 H         1 LIG1        0.0646
     53 H          90.9815   15.5785 -105.4263 H         1 LIG1        0.0646
     54 H          89.9604   14.9918 -103.2609 H         1 LIG1        0.0625
     55 H          86.8432   19.5250 -100.0757 H         1 LIG1        0.0639
     56 H          87.3192   21.9521  -99.9407 H         1 LIG1        0.0830
     57 H          91.4752   21.2290 -100.2285 H         1 LIG1        0.0830
     58 H          91.0862   18.7866 -100.3575 H         1 LIG1        0.0639
@<TRIPOS>BOND
     1    1    2 1
     2    2    3 ar
     3    3    4 1
     4    4    5 ar
     5    5    6 ar
     6    6    7 1
     7    7    8 1
     8    8    9 1
     9    8   10 1
    10   10   11 1
    11   11   12 1
    12   12   13 1
    13   11   14 1
    14   14   15 1
    15   14   16 1
    16   16   17 1
    17    6   18 ar
    18   18   19 ar
    19    3   20 ar
    20   20   21 ar
    21   21   22 1
    22   22   23 ar
    23   23   24 ar
    24   24   25 ar
    25   25   26 1
    26   25   27 ar
    27   27   28 ar
    28   21   29 ar
    29   29   30 1
    30   30   31 ar
    31   31   32 ar
    32   32   33 ar
    33   33   34 ar
    34   34   35 ar
    35   29    2 ar
    36   35   30 ar
    37   19    4 ar
    38   28   22 ar
    39   16    7 1
    40    1   36 1
    41    1   37 1
    42    1   38 1
    43    5   39 1
    44    7   40 1
    45    8   41 1
    46    9   42 1
    47   11   43 1
    48   12   44 1
    49   12   45 1
    50   13   46 1
    51   14   47 1
    52   15   48 1
    53   16   49 1
    54   17   50 1
    55   23   51 1
    56   24   52 1
    57   27   53 1
    58   28   54 1
    59   31   55 1
    60   32   56 1
    61   34   57 1
    62   35   58 1
@<TRIPOS>SUBSTRUCTURE
1 LIG1 1
@<TRIPOS>COMMENT
76325328
PLANTSproteinTorsions
1
5603 47.1643
PLANTSmolcadARTstart hb
PLANTSmolcadARTstart HB
LINES
83.9206 12.6731 -98.5068 83.738 13.004 -96.484 0 255 0 5
86.3024 11.6226 -102.564 87.564 11.946 -103.544 0 255 0 5
PLANTSmolcadARTstart HBCH
LINES
PLANTSmolcadARTstart HB-CHO
LINES
PLANTSmolcadARTend
PLANTSmolcadARTstart HB_WATER
LINES
PLANTSmolcadARTend

PLANTSmolcadARTend

