@<TRIPOS>MOLECULE
76325328_entry_00012_conf_01
58 62 1
SMALL
NO_CHARGES


@<TRIPOS>ATOM
      1 C          87.9699   16.9672  -97.9854 C.3       1 UNL1        0.0139
      2 N          88.3400   16.7645  -99.3887 N.ar      1 UNL1       -0.3249
      3 C          88.5560   15.5812 -100.0137 C.ar      1 UNL1        0.1634
      4 C          88.3625   14.2487  -99.4101 C.ar      1 UNL1        0.1477
      5 C          87.6908   13.1874  -99.9777 C.ar      1 UNL1        0.0570
      6 N          87.7545   12.1827  -99.0836 N.ar      1 UNL1       -0.2405
      7 C          87.1716   10.8410  -99.2008 C.3       1 UNL1        0.1330
      8 C          85.9379   10.6714  -98.2743 C.3       1 UNL1        0.1818
      9 O          86.0879   11.4496  -97.1166 O.3       1 UNL1       -0.3652
     10 O          84.7539   11.0581  -98.9508 O.3       1 UNL1       -0.3411
     11 C          84.4080   10.1488  -99.9935 C.3       1 UNL1        0.1130
     12 C          83.4691    9.0542  -99.4539 C.3       1 UNL1        0.0730
     13 O          82.3522    9.6201  -98.8216 O.3       1 UNL1       -0.3924
     14 C          85.6388    9.5510 -100.7477 C.3       1 UNL1        0.1115
     15 O          85.3134    9.2374 -102.0807 O.3       1 UNL1       -0.3865
     16 C          86.8231   10.5327 -100.6789 C.3       1 UNL1        0.1105
     17 O          87.9480    9.9843 -101.3177 O.3       1 UNL1       -0.3868
     18 N          88.4261   12.6083  -98.0254 N.ar      1 UNL1       -0.0645
     19 N          88.8088   13.8653  -98.1968 N.ar      1 UNL1       -0.1264
     20 N          88.9913   15.7346 -101.2821 N.ar      1 UNL1       -0.2252
     21 C          89.0431   17.0682 -101.4689 C.ar      1 UNL1        0.0974
     22 C          89.4719   17.6853 -102.7423 C.ar      1 UNL1        0.0026
     23 C          90.2459   16.9688 -103.6738 C.ar      1 UNL1       -0.0498
     24 C          90.6465   17.5716 -104.8700 C.ar      1 UNL1       -0.0258
     25 C          90.2811   18.8932 -105.1459 C.ar      1 UNL1        0.1234
     26 F          90.6700   19.4759 -106.3068 F         1 UNL1       -0.2055
     27 C          89.5258   19.6172 -104.2194 C.ar      1 UNL1       -0.0258
     28 C          89.1298   19.0195 -103.0184 C.ar      1 UNL1       -0.0498
     29 C          88.6398   17.7097 -100.3069 C.ar      1 UNL1        0.0768
     30 C          88.6343   19.1668 -100.0631 C.ar      1 UNL1        0.0035
     31 C          89.8084   19.9160 -100.2228 C.ar      1 UNL1       -0.0344
     32 C          89.7856   21.2888  -99.9698 C.ar      1 UNL1        0.0282
     33 N          88.6327   21.8889  -99.5686 N.ar      1 UNL1       -0.2632
     34 C          87.4810   21.1847  -99.4022 C.ar      1 UNL1        0.0282
     35 C          87.4613   19.8096  -99.6422 C.ar      1 UNL1       -0.0344
     36 H          88.6952   16.4438  -97.3269 H         1 UNL1        0.0456
     37 H          86.9476   16.5717  -97.8073 H         1 UNL1        0.0456
     38 H          87.9884   18.0399  -97.7089 H         1 UNL1        0.0456
     39 H          87.1952   13.1502 -100.9398 H         1 UNL1        0.0850
     40 H          87.9306   10.1002  -98.8573 H         1 UNL1        0.0623
     41 H          85.8742    9.6024  -97.9583 H         1 UNL1        0.0931
     42 H          85.2640   11.9975  -97.0386 H         1 UNL1        0.2125
     43 H          83.8195   10.7443 -100.7253 H         1 UNL1        0.0647
     44 H          84.0208    8.4033  -98.7378 H         1 UNL1        0.0584
     45 H          83.1157    8.4084 -100.2829 H         1 UNL1        0.0584
     46 H          81.7549    9.9464  -99.5449 H         1 UNL1        0.2095
     47 H          85.9548    8.6074 -100.2493 H         1 UNL1        0.0647
     48 H          84.4503    8.7476 -102.0770 H         1 UNL1        0.2100
     49 H          86.5213   11.4756 -101.1930 H         1 UNL1        0.0643
     50 H          88.1553   10.5693 -102.0932 H         1 UNL1        0.2100
     51 H          90.5570   15.9521 -103.4718 H         1 UNL1        0.0625
     52 H          91.2451   17.0164 -105.5806 H         1 UNL1        0.0646
     53 H          89.2459   20.6417 -104.4312 H         1 UNL1        0.0646
     54 H          88.5389   19.5918 -102.3140 H         1 UNL1        0.0625
     55 H          90.7313   19.4401 -100.5315 H         1 UNL1        0.0639
     56 H          90.6862   21.8772 -100.0872 H         1 UNL1        0.0830
     57 H          86.5806   21.6917  -99.0800 H         1 UNL1        0.0830
     58 H          86.5418   19.2525  -99.5073 H         1 UNL1        0.0639
@<TRIPOS>BOND
     1    1    2 1
     2    2    3 ar
     3    3    4 1
     4    4    5 ar
     5    5    6 ar
     6    6    7 1
     7    7    8 1
     8    8    9 1
     9    8   10 1
    10   10   11 1
    11   11   12 1
    12   12   13 1
    13   11   14 1
    14   14   15 1
    15   14   16 1
    16   16   17 1
    17    6   18 ar
    18   18   19 ar
    19    3   20 ar
    20   20   21 ar
    21   21   22 1
    22   22   23 ar
    23   23   24 ar
    24   24   25 ar
    25   25   26 1
    26   25   27 ar
    27   27   28 ar
    28   21   29 ar
    29   29   30 1
    30   30   31 ar
    31   31   32 ar
    32   32   33 ar
    33   33   34 ar
    34   34   35 ar
    35   29    2 ar
    36   35   30 ar
    37   19    4 ar
    38   28   22 ar
    39   16    7 1
    40    1   36 1
    41    1   37 1
    42    1   38 1
    43    5   39 1
    44    7   40 1
    45    8   41 1
    46    9   42 1
    47   11   43 1
    48   12   44 1
    49   12   45 1
    50   13   46 1
    51   14   47 1
    52   15   48 1
    53   16   49 1
    54   17   50 1
    55   23   51 1
    56   24   52 1
    57   27   53 1
    58   28   54 1
    59   31   55 1
    60   32   56 1
    61   34   57 1
    62   35   58 1
@<TRIPOS>SUBSTRUCTURE
1 UNL1 1
@<TRIPOS>COMMENT
76325328
PLANTSproteinTorsions
1
5603 258.1221
PLANTSmolcadARTstart hb
PLANTSmolcadARTstart HB
LINES
85.264 11.9975 -97.0386 83.738 13.004 -96.484 0 255 0 5
88.1553 10.5693 -102.093 87.564 11.946 -103.544 0 255 0 5
PLANTSmolcadARTstart HBCH
LINES
PLANTSmolcadARTstart HB-CHO
LINES
PLANTSmolcadARTend
PLANTSmolcadARTstart HB_WATER
LINES
PLANTSmolcadARTend

PLANTSmolcadARTend

