REMARK  Name = 11908605
REMARK  7 active torsions:
REMARK  status: ('A' for Active; 'I' for Inactive)
REMARK    1  A    between atoms: C_1  and  C_2
REMARK    2  A    between atoms: N_4  and  C_5
REMARK    3  A    between atoms: C_6  and  O_7
REMARK    4  A    between atoms: C_8  and  O_9
REMARK    5  A    between atoms: C_10  and  C_11
REMARK    6  A    between atoms: C_11  and  O_12
REMARK    7  A    between atoms: C_14  and  O_15
REMARK                            x       y       z     vdW  Elec       q    Type
REMARK                         _______ _______ _______ _____ _____    ______ ____
ROOT
ATOM      1  C   UNL     1      -0.428  -0.338   1.026  0.00  0.00    +0.000 C 
ATOM      2  C   UNL     1      -1.186   0.961   0.694  0.00  0.00    +0.000 C 
ATOM      3  C   UNL     1      -0.802   1.458  -0.718  0.00  0.00    +0.000 C 
ATOM      4  C   UNL     1      -0.931   0.303  -1.744  0.00  0.00    +0.000 C 
ATOM      5  O   UNL     1      -0.131  -0.798  -1.346  0.00  0.00    +0.000 OA
ATOM      6  C   UNL     1      -0.604  -1.348  -0.128  0.00  0.00    +0.000 C 
ENDROOT
BRANCH   1  10
ATOM      7  C   UNL     1       2.925   0.829   2.645  0.00  0.00    +0.000 C 
ATOM      8  C   UNL     1       1.470   0.535   2.478  0.00  0.00    +0.000 C 
ATOM      9  O   UNL     1       0.672   0.779   3.424  0.00  0.00    +0.000 OA
ATOM     10  N   UNL     1       0.995  -0.054   1.259  0.00  0.00    +0.000 N 
ATOM     11  H   UNL     1       1.699  -0.301   0.527  0.00  0.00    +0.000 HD
ENDBRANCH   1  10
BRANCH   2  12
ATOM     12  O   UNL     1      -2.570   0.717   0.767  0.00  0.00    +0.000 OA
ATOM     13  H   UNL     1      -3.011   1.590   0.937  0.00  0.00    +0.000 HD
ENDBRANCH   2  12
BRANCH   3  14
ATOM     14  O   UNL     1      -1.628   2.532  -1.090  0.00  0.00    +0.000 OA
ATOM     15  H   UNL     1      -1.323   3.320  -0.568  0.00  0.00    +0.000 HD
ENDBRANCH   3  14
BRANCH   6  16
ATOM     16  O   UNL     1       0.123  -2.511   0.165  0.00  0.00    +0.000 OA
ATOM     17  H   UNL     1      -0.091  -3.164  -0.551  0.00  0.00    +0.000 HD
ENDBRANCH   6  16
BRANCH   4  18
ATOM     18  C   UNL     1      -0.466   0.741  -3.143  0.00  0.00    +0.000 C 
BRANCH  18  19
ATOM     19  O   UNL     1      -1.327   1.704  -3.689  0.00  0.00    +0.000 OA
ATOM     20  H   UNL     1      -2.148   1.222  -3.974  0.00  0.00    +0.000 HD
ENDBRANCH  18  19
ENDBRANCH   4  18
TORSDOF 6
