REMARK  Name = 644170
REMARK  8 active torsions:
REMARK  status: ('A' for Active; 'I' for Inactive)
REMARK    1  A    between atoms: O_2  and  C_3
REMARK    2  A    between atoms: C_3  and  C_27
REMARK    3  A    between atoms: N_4  and  C_5
REMARK    4  A    between atoms: C_7  and  O_9
REMARK    5  A    between atoms: C_12  and  C_14
REMARK    6  A    between atoms: C_14  and  O_17
REMARK    7  A    between atoms: C_19  and  O_21
REMARK    8  A    between atoms: C_23  and  O_25
REMARK                            x       y       z     vdW  Elec       q    Type
REMARK                         _______ _______ _______ _____ _____    ______ ____
ROOT
ATOM      1  C   UNL     1      -1.751  -1.155  -0.318  0.00  0.00    +0.000 C 
ATOM      2  C   UNL     1      -3.084  -0.458  -0.678  0.00  0.00    +0.000 C 
ATOM      3  O   UNL     1      -2.858   0.776  -1.341  0.00  0.00    +0.000 OA
ATOM      4  C   UNL     1      -2.152   1.696  -0.521  0.00  0.00    +0.000 C 
ATOM      5  C   UNL     1      -0.746   1.160  -0.164  0.00  0.00    +0.000 C 
ATOM      6  C   UNL     1      -0.879  -0.211   0.526  0.00  0.00    +0.000 C 
ENDROOT
BRANCH   1   8
ATOM      7  C   UNL     1      -1.167  -2.633  -2.218  0.00  0.00    +0.000 C 
ATOM      8  N   UNL     1      -1.035  -1.527  -1.544  0.00  0.00    +0.000 NA
ATOM      9  C   UNL     1      -2.082  -3.742  -1.772  0.00  0.00    +0.000 C 
BRANCH   7  11
ATOM     10  H   UNL     1      -0.458  -3.644  -3.928  0.00  0.00    +0.000 HD
ATOM     11  O   UNL     1      -0.406  -2.798  -3.373  0.00  0.00    +0.000 OA
ENDBRANCH   7  11
ENDBRANCH   1   8
BRANCH   2  12
ATOM     12  O   UNL     1      -3.887  -0.270   0.462  0.00  0.00    +0.000 OA
ATOM     13  H   UNL     1      -4.219  -1.167   0.730  0.00  0.00    +0.000 HD
ENDBRANCH   2  12
BRANCH   5  14
ATOM     14  O   UNL     1      -0.105   2.064   0.700  0.00  0.00    +0.000 OA
ATOM     15  H   UNL     1       0.872   1.934   0.582  0.00  0.00    +0.000 HD
ENDBRANCH   5  14
BRANCH   6  16
ATOM     16  O   UNL     1       0.388  -0.788   0.715  0.00  0.00    +0.000 OA
ATOM     17  H   UNL     1       0.768  -0.390   1.542  0.00  0.00    +0.000 HD
ENDBRANCH   6  16
BRANCH   4  18
ATOM     18  C   UNL     1      -2.067   3.042  -1.258  0.00  0.00    +0.000 C 
BRANCH  18  19
ATOM     19  O   UNL     1      -1.350   2.921  -2.459  0.00  0.00    +0.000 OA
ATOM     20  H   UNL     1      -1.972   2.525  -3.124  0.00  0.00    +0.000 HD
ENDBRANCH  18  19
ENDBRANCH   4  18
TORSDOF 7
