REMARK  Name = 76325328
REMARK  10 active torsions:
REMARK  status: ('A' for Active; 'I' for Inactive)
REMARK    1  A    between atoms: C_1  and  N_2
REMARK    2  A    between atoms: C_3  and  C_4
REMARK    3  A    between atoms: N_6  and  C_7
REMARK    4  A    between atoms: C_8  and  O_9
REMARK    5  A    between atoms: C_11  and  C_12
REMARK    6  A    between atoms: C_12  and  O_13
REMARK    7  A    between atoms: C_14  and  O_15
REMARK    8  A    between atoms: C_16  and  O_17
REMARK    9  A    between atoms: C_21  and  C_22
REMARK   10  A    between atoms: C_29  and  C_30
REMARK                            x       y       z     vdW  Elec       q    Type
REMARK                         _______ _______ _______ _____ _____    ______ ____
ROOT
ATOM      1  C   UNL     1      -0.554   0.801  -0.355  0.00  0.00    +0.000 A 
ATOM      2  C   UNL     1       0.076   0.398  -1.513  0.00  0.00    +0.000 A 
ATOM      3  N   UNL     1       0.672   1.492  -2.016  0.00  0.00    +0.000 N 
ATOM      4  N   UNL     1       0.410   2.515  -1.216  0.00  0.00    +0.000 NA
ATOM      5  N   UNL     1      -0.336   2.122  -0.194  0.00  0.00    +0.000 NA
ENDROOT
BRANCH   1   8
ATOM      6  C   UNL     1      -1.769   1.638   2.373  0.00  0.00    +0.000 C 
ATOM      7  N   UNL     1      -1.909   0.337   1.716  0.00  0.00    +0.000 N 
ATOM      8  C   UNL     1      -1.358  -0.054   0.540  0.00  0.00    +0.000 A 
ATOM      9  N   UNL     1      -1.624  -1.343   0.244  0.00  0.00    +0.000 NA
ATOM     10  C   UNL     1      -2.389  -1.781   1.265  0.00  0.00    +0.000 A 
ATOM     11  C   UNL     1      -2.572  -0.748   2.174  0.00  0.00    +0.000 A 
BRANCH  10  12
ATOM     12  C   UNL     1      -2.935  -3.155   1.324  0.00  0.00    +0.000 A 
ATOM     13  C   UNL     1      -4.222  -3.409   1.832  0.00  0.00    +0.000 A 
ATOM     14  C   UNL     1      -4.722  -4.714   1.869  0.00  0.00    +0.000 A 
ATOM     15  C   UNL     1      -3.951  -5.775   1.387  0.00  0.00    +0.000 A 
ATOM     16  F   UNL     1      -4.439  -7.039   1.421  0.00  0.00    +0.000 F 
ATOM     17  C   UNL     1      -2.679  -5.530   0.862  0.00  0.00    +0.000 A 
ATOM     18  C   UNL     1      -2.175  -4.226   0.824  0.00  0.00    +0.000 A 
ENDBRANCH  10  12
BRANCH  11  19
ATOM     19  C   UNL     1      -3.283  -0.826   3.468  0.00  0.00    +0.000 A 
ATOM     20  C   UNL     1      -4.321   0.070   3.762  0.00  0.00    +0.000 A 
ATOM     21  C   UNL     1      -5.000  -0.041   4.978  0.00  0.00    +0.000 A 
ATOM     22  N   UNL     1      -4.657  -1.013   5.864  0.00  0.00    +0.000 NA
ATOM     23  C   UNL     1      -3.655  -1.894   5.604  0.00  0.00    +0.000 A 
ATOM     24  C   UNL     1      -2.950  -1.819   4.400  0.00  0.00    +0.000 A 
ENDBRANCH  11  19
ENDBRANCH   1   8
BRANCH   3  25
ATOM     25  C   UNL     1       1.443   1.570  -3.260  0.00  0.00    +0.000 C 
ATOM     26  C   UNL     1       0.650   2.323  -4.347  0.00  0.00    +0.000 C 
ATOM     27  O   UNL     1       1.396   2.409  -5.553  0.00  0.00    +0.000 OA
ATOM     28  C   UNL     1       2.604   3.137  -5.373  0.00  0.00    +0.000 C 
ATOM     29  C   UNL     1       3.535   2.418  -4.366  0.00  0.00    +0.000 C 
ATOM     30  C   UNL     1       2.809   2.242  -3.025  0.00  0.00    +0.000 C 
BRANCH  26  31
ATOM     31  O   UNL     1       0.258   3.599  -3.902  0.00  0.00    +0.000 OA
ATOM     32  H   UNL     1      -0.339   3.969  -4.604  0.00  0.00    +0.000 HD
ENDBRANCH  26  31
BRANCH  29  33
ATOM     33  O   UNL     1       4.701   3.176  -4.153  0.00  0.00    +0.000 OA
ATOM     34  H   UNL     1       5.396   2.824  -4.769  0.00  0.00    +0.000 HD
ENDBRANCH  29  33
BRANCH  30  35
ATOM     35  O   UNL     1       3.598   1.447  -2.176  0.00  0.00    +0.000 OA
ATOM     36  H   UNL     1       3.295   1.626  -1.248  0.00  0.00    +0.000 HD
ENDBRANCH  30  35
BRANCH  28  37
ATOM     37  C   UNL     1       3.286   3.280  -6.742  0.00  0.00    +0.000 C 
BRANCH  37  38
ATOM     38  O   UNL     1       2.418   3.888  -7.662  0.00  0.00    +0.000 OA
ATOM     39  H   UNL     1       2.386   4.854  -7.428  0.00  0.00    +0.000 HD
ENDBRANCH  37  38
ENDBRANCH  28  37
ENDBRANCH   3  25
TORSDOF 9
