REMARK  Name = 2733787
REMARK  9 active torsions:
REMARK  status: ('A' for Active; 'I' for Inactive)
REMARK    1  A    between atoms: C_1  and  C_2
REMARK    2  A    between atoms: N_4  and  C_5
REMARK    3  A    between atoms: C_6  and  O_7
REMARK    4  A    between atoms: O_7  and  C_8
REMARK    5  A    between atoms: C_12  and  C_13
REMARK    6  A    between atoms: C_21  and  C_22
REMARK    7  A    between atoms: C_22  and  O_23
REMARK    8  A    between atoms: C_24  and  O_25
REMARK    9  A    between atoms: C_26  and  O_27
REMARK                            x       y       z     vdW  Elec       q    Type
REMARK                         _______ _______ _______ _____ _____    ______ ____
ROOT
ATOM      1  C   UNL     1      -0.067  -0.102   1.515  0.00  0.00    +0.000 C 
ATOM      2  C   UNL     1      -1.332   0.660   1.057  0.00  0.00    +0.000 C 
ATOM      3  O   UNL     1      -1.943   1.281   2.175  0.00  0.00    +0.000 OA
ATOM      4  C   UNL     1      -2.443   0.314   3.085  0.00  0.00    +0.000 C 
ATOM      5  C   UNL     1      -1.274  -0.482   3.710  0.00  0.00    +0.000 C 
ATOM      6  C   UNL     1      -0.449  -1.139   2.590  0.00  0.00    +0.000 C 
ENDROOT
BRANCH   1  10
ATOM      7  C   UNL     1       2.350  -1.023  -1.412  0.00  0.00    +0.000 C 
ATOM      8  C   UNL     1       1.809  -0.339  -0.199  0.00  0.00    +0.000 C 
ATOM      9  O   UNL     1       2.419   0.659   0.271  0.00  0.00    +0.000 OA
ATOM     10  N   UNL     1       0.574  -0.781   0.384  0.00  0.00    +0.000 N 
ATOM     11  H   UNL     1       0.073  -1.583  -0.062  0.00  0.00    +0.000 HD
ENDBRANCH   1  10
BRANCH   5  12
ATOM     12  O   UNL     1      -1.767  -1.487   4.560  0.00  0.00    +0.000 OA
ATOM     13  H   UNL     1      -1.771  -1.117   5.481  0.00  0.00    +0.000 HD
ENDBRANCH   5  12
BRANCH   6  14
ATOM     14  O   UNL     1       0.695  -1.768   3.113  0.00  0.00    +0.000 OA
ATOM     15  H   UNL     1       1.261  -1.067   3.530  0.00  0.00    +0.000 HD
ENDBRANCH   6  14
BRANCH   2  16
ATOM     16  O   UNL     1      -0.969   1.695   0.138  0.00  0.00    +0.000 OA
BRANCH  16  17
ATOM     17  C   UNL     1      -0.723   1.550  -1.238  0.00  0.00    +0.000 A 
ATOM     18  C   UNL     1      -0.075   2.599  -1.899  0.00  0.00    +0.000 A 
ATOM     19  C   UNL     1       0.225   2.514  -3.260  0.00  0.00    +0.000 A 
ATOM     20  C   UNL     1      -0.129   1.367  -3.995  0.00  0.00    +0.000 A 
ATOM     21  C   UNL     1       0.157   1.222  -5.372  0.00  0.00    +0.000 A 
ATOM     22  C   UNL     1       0.871   2.291  -6.157  0.00  0.00    +0.000 C 
ATOM     23  C   UNL     1      -0.236   0.042  -6.019  0.00  0.00    +0.000 A 
ATOM     24  C   UNL     1      -0.898  -0.951  -5.293  0.00  0.00    +0.000 A 
ATOM     25  O   UNL     1      -1.256  -2.014  -5.866  0.00  0.00    +0.000 OA
ATOM     26  O   UNL     1      -1.152  -0.785  -4.001  0.00  0.00    +0.000 OA
ATOM     27  C   UNL     1      -0.801   0.311  -3.335  0.00  0.00    +0.000 A 
ATOM     28  C   UNL     1      -1.099   0.408  -1.972  0.00  0.00    +0.000 A 
ENDBRANCH  16  17
ENDBRANCH   2  16
BRANCH   4  29
ATOM     29  C   UNL     1      -3.253   1.042   4.168  0.00  0.00    +0.000 C 
BRANCH  29  30
ATOM     30  O   UNL     1      -4.276   1.804   3.585  0.00  0.00    +0.000 OA
ATOM     31  H   UNL     1      -4.982   1.165   3.304  0.00  0.00    +0.000 HD
ENDBRANCH  29  30
ENDBRANCH   4  29
TORSDOF 7
