REMARK  Name = 12600646
REMARK  9 active torsions:
REMARK  status: ('A' for Active; 'I' for Inactive)
REMARK    1  A    between atoms: N_2  and  N_3
REMARK    2  A    between atoms: N_3  and  C_4
REMARK    3  A    between atoms: C_4  and  C_5
REMARK    4  A    between atoms: N_9  and  C_10
REMARK    5  A    between atoms: C_11  and  O_12
REMARK    6  A    between atoms: C_14  and  C_15
REMARK    7  A    between atoms: C_15  and  O_16
REMARK    8  A    between atoms: C_17  and  O_18
REMARK    9  A    between atoms: C_19  and  O_20
REMARK                            x       y       z     vdW  Elec       q    Type
REMARK                         _______ _______ _______ _____ _____    ______ ____
ROOT
ATOM      1  C   UNL     1      -0.340   0.277  -0.254  0.00  0.00    +0.000 C 
ATOM      2  C   UNL     1      -0.830  -1.034   0.418  0.00  0.00    +0.000 C 
ATOM      3  O   UNL     1      -2.246  -1.116   0.469  0.00  0.00    +0.000 OA
ATOM      4  C   UNL     1      -2.823  -0.042   1.195  0.00  0.00    +0.000 C 
ATOM      5  C   UNL     1      -2.535   1.305   0.491  0.00  0.00    +0.000 C 
ATOM      6  C   UNL     1      -1.014   1.513   0.381  0.00  0.00    +0.000 C 
ENDROOT
BRANCH   1  10
ATOM      7  N   UNL     1       3.410  -0.487  -0.674  0.00  0.00    +0.000 N 
ATOM      8  C   UNL     1       1.995  -0.457  -0.944  0.00  0.00    +0.000 C 
ATOM      9  O   UNL     1       1.526  -1.141  -1.895  0.00  0.00    +0.000 OA
ATOM     10  N   UNL     1       1.123   0.381  -0.171  0.00  0.00    +0.000 N 
ATOM     11  H   UNL     1       1.550   1.132   0.417  0.00  0.00    +0.000 HD
BRANCH   7  13
ATOM     12  O   UNL     1       3.168  -0.363   1.632  0.00  0.00    +0.000 OA
ATOM     13  N   UNL     1       3.913  -0.329   0.631  0.00  0.00    +0.000 NA
ENDBRANCH   7  13
BRANCH   7  14
ATOM     14  C   UNL     1       4.362  -0.757  -1.754  0.00  0.00    +0.000 C 
BRANCH  14  15
ATOM     15  C   UNL     1       4.600  -2.259  -1.918  0.00  0.00    +0.000 C 
ATOM     16 CL   UNL     1       5.460  -2.935  -0.509  0.00  0.00    +0.000 Cl
ENDBRANCH  14  15
ENDBRANCH   7  14
ENDBRANCH   1  10
BRANCH   2  17
ATOM     17  O   UNL     1      -0.256  -1.283   1.681  0.00  0.00    +0.000 OA
ATOM     18  H   UNL     1      -0.183  -0.429   2.177  0.00  0.00    +0.000 HD
ENDBRANCH   2  17
BRANCH   5  19
ATOM     19  O   UNL     1      -3.098   2.361   1.227  0.00  0.00    +0.000 OA
ATOM     20  H   UNL     1      -3.203   3.125   0.601  0.00  0.00    +0.000 HD
ENDBRANCH   5  19
BRANCH   6  21
ATOM     21  O   UNL     1      -0.718   2.674  -0.358  0.00  0.00    +0.000 OA
ATOM     22  H   UNL     1      -1.097   2.560  -1.268  0.00  0.00    +0.000 HD
ENDBRANCH   6  21
BRANCH   4  23
ATOM     23  C   UNL     1      -4.332  -0.307   1.296  0.00  0.00    +0.000 C 
BRANCH  23  24
ATOM     24  O   UNL     1      -4.927   0.578   2.205  0.00  0.00    +0.000 OA
ATOM     25  H   UNL     1      -5.896   0.361   2.208  0.00  0.00    +0.000 HD
ENDBRANCH  23  24
ENDBRANCH   4  23
TORSDOF 9
