REMARK  Name = 6713972
REMARK  8 active torsions:
REMARK  status: ('A' for Active; 'I' for Inactive)
REMARK    1  A    between atoms: O_2  and  N_3
REMARK    2  A    between atoms: N_4  and  C_31
REMARK    3  A    between atoms: N_7  and  C_9
REMARK    4  A    between atoms: C_11  and  O_13
REMARK    5  A    between atoms: C_16  and  C_18
REMARK    6  A    between atoms: C_18  and  O_21
REMARK    7  A    between atoms: C_23  and  O_25
REMARK    8  A    between atoms: C_27  and  O_29
REMARK                            x       y       z     vdW  Elec       q    Type
REMARK                         _______ _______ _______ _____ _____    ______ ____
ROOT
ATOM      1  C   UNL     1       0.016   1.966   0.915  0.00  0.00    +0.000 C 
ATOM      2  C   UNL     1       0.682   2.277  -0.439  0.00  0.00    +0.000 C 
ATOM      3  O   UNL     1       1.016   1.086  -1.138  0.00  0.00    +0.000 OA
ATOM      4  C   UNL     1      -0.125   0.297  -1.456  0.00  0.00    +0.000 C 
ATOM      5  C   UNL     1      -0.939  -0.104  -0.199  0.00  0.00    +0.000 C 
ATOM      6  C   UNL     1      -1.251   1.124   0.676  0.00  0.00    +0.000 C 
ENDROOT
BRANCH   1  11
ATOM      7  N   UNL     1       2.431  -0.357   3.550  0.00  0.00    +0.000 NA
ATOM      8  N   UNL     1       1.736   0.574   4.081  0.00  0.00    +0.000 N 
ATOM      9  C   UNL     1       0.870   1.363   3.243  0.00  0.00    +0.000 C 
ATOM     10  O   UNL     1       0.024   2.139   3.769  0.00  0.00    +0.000 OA
ATOM     11  N   UNL     1       0.956   1.273   1.809  0.00  0.00    +0.000 N 
ATOM     12  H   UNL     1       1.714   0.692   1.387  0.00  0.00    +0.000 HD
ATOM     13  C   UNL     1       1.741   0.770   5.536  0.00  0.00    +0.000 C 
BRANCH   7  15
ATOM     14  H   UNL     1       3.773  -1.915   3.844  0.00  0.00    +0.000 HD
ATOM     15  O   UNL     1       3.236  -1.188   4.298  0.00  0.00    +0.000 OA
ENDBRANCH   7  15
ENDBRANCH   1  11
BRANCH   2  16
ATOM     16  O   UNL     1       1.853   3.014  -0.209  0.00  0.00    +0.000 OA
ATOM     17  H   UNL     1       2.199   3.278  -1.101  0.00  0.00    +0.000 HD
ENDBRANCH   2  16
BRANCH   5  18
ATOM     18  O   UNL     1      -0.218  -1.048   0.553  0.00  0.00    +0.000 OA
ATOM     19  H   UNL     1      -0.317  -1.922   0.093  0.00  0.00    +0.000 HD
ENDBRANCH   5  18
BRANCH   6  20
ATOM     20  O   UNL     1      -1.809   0.727   1.903  0.00  0.00    +0.000 OA
ATOM     21  H   UNL     1      -2.730   0.409   1.710  0.00  0.00    +0.000 HD
ENDBRANCH   6  20
BRANCH   4  22
ATOM     22  C   UNL     1      -0.995   0.923  -2.565  0.00  0.00    +0.000 C 
BRANCH  22  23
ATOM     23  O   UNL     1      -0.183   1.325  -3.634  0.00  0.00    +0.000 OA
ATOM     24  H   UNL     1      -0.794   1.712  -4.314  0.00  0.00    +0.000 HD
ENDBRANCH  22  23
ENDBRANCH   4  22
TORSDOF 7
