REMARK  Name = 440552
REMARK  8 active torsions:
REMARK  status: ('A' for Active; 'I' for Inactive)
REMARK    1  A    between atoms: O_2  and  C_3
REMARK    2  A    between atoms: C_3  and  C_27
REMARK    3  A    between atoms: N_4  and  C_5
REMARK    4  A    between atoms: C_7  and  O_9
REMARK    5  A    between atoms: C_12  and  C_14
REMARK    6  A    between atoms: C_14  and  O_17
REMARK    7  A    between atoms: C_19  and  O_21
REMARK    8  A    between atoms: C_23  and  O_25
REMARK                            x       y       z     vdW  Elec       q    Type
REMARK                         _______ _______ _______ _____ _____    ______ ____
ROOT
ATOM      1  C   UNL     1       0.510   0.021  -0.254  0.00  0.00    +0.000 C 
ATOM      2  C   UNL     1      -0.424   1.249  -0.126  0.00  0.00    +0.000 C 
ATOM      3  O   UNL     1       0.296   2.370   0.358  0.00  0.00    +0.000 OA
ATOM      4  C   UNL     1       0.760   2.136   1.677  0.00  0.00    +0.000 C 
ATOM      5  C   UNL     1       1.808   1.003   1.682  0.00  0.00    +0.000 C 
ATOM      6  C   UNL     1       1.164  -0.275   1.107  0.00  0.00    +0.000 C 
ENDROOT
BRANCH   1   8
ATOM      7  C   UNL     1      -0.485  -1.478  -1.918  0.00  0.00    +0.000 C 
ATOM      8  N   UNL     1      -0.246  -1.159  -0.681  0.00  0.00    +0.000 NA
ATOM      9  C   UNL     1      -1.269  -2.714  -2.221  0.00  0.00    +0.000 C 
BRANCH   7  11
ATOM     10  H   UNL     1      -0.155  -0.951  -3.930  0.00  0.00    +0.000 HD
ATOM     11  O   UNL     1       0.013  -0.700  -2.963  0.00  0.00    +0.000 OA
ENDBRANCH   7  11
ENDBRANCH   1   8
BRANCH   2  12
ATOM     12  O   UNL     1      -0.943   1.583  -1.387  0.00  0.00    +0.000 OA
ATOM     13  H   UNL     1      -1.784   1.068  -1.506  0.00  0.00    +0.000 HD
ENDBRANCH   2  12
BRANCH   5  14
ATOM     14  O   UNL     1       2.920   1.378   0.907  0.00  0.00    +0.000 OA
ATOM     15  H   UNL     1       3.691   0.842   1.229  0.00  0.00    +0.000 HD
ENDBRANCH   5  14
BRANCH   6  16
ATOM     16  O   UNL     1       2.127  -1.286   0.957  0.00  0.00    +0.000 OA
ATOM     17  H   UNL     1       2.343  -1.612   1.869  0.00  0.00    +0.000 HD
ENDBRANCH   6  16
BRANCH   4  18
ATOM     18  C   UNL     1       1.352   3.437   2.240  0.00  0.00    +0.000 C 
BRANCH  18  19
ATOM     19  O   UNL     1       0.372   4.439   2.286  0.00  0.00    +0.000 OA
ATOM     20  H   UNL     1      -0.205   4.236   3.068  0.00  0.00    +0.000 HD
ENDBRANCH  18  19
ENDBRANCH   4  18
TORSDOF 7
