REMARK  Name = 9816401
REMARK  9 active torsions:
REMARK  status: ('A' for Active; 'I' for Inactive)
REMARK    1  A    between atoms: C_1  and  C_2
REMARK    2  A    between atoms: C_2  and  O_3
REMARK    3  A    between atoms: C_2  and  C_15
REMARK    4  A    between atoms: O_3  and  C_4
REMARK    5  A    between atoms: C_5  and  O_6
REMARK    6  A    between atoms: C_7  and  C_8
REMARK    7  A    between atoms: C_8  and  O_9
REMARK    8  A    between atoms: C_11  and  O_12
REMARK    9  A    between atoms: C_13  and  N_14
REMARK                            x       y       z     vdW  Elec       q    Type
REMARK                         _______ _______ _______ _____ _____    ______ ____
ROOT
ATOM      1  C   UNL     1       0.393  -0.062   0.107  0.00  0.00    +0.000 C 
ATOM      2  C   UNL     1      -0.245  -1.402  -0.300  0.00  0.00    +0.000 C 
ATOM      3  C   UNL     1      -1.547  -1.129  -1.111  0.00  0.00    +0.000 C 
ATOM      4  O   UNL     1      -2.213   0.084  -0.762  0.00  0.00    +0.000 OA
ATOM      5  C   UNL     1      -2.080   0.388   0.615  0.00  0.00    +0.000 C 
ATOM      6  C   UNL     1      -0.610   0.774   0.942  0.00  0.00    +0.000 C 
ENDROOT
BRANCH   6   7
ATOM      7  N   UNL     1      -0.350   2.201   0.722  0.00  0.00    +0.000 NA
ATOM      8  H   UNL     1      -0.853   2.758   1.451  0.00  0.00    +0.000 HD
ATOM      9  H   UNL     1      -0.724   2.485  -0.213  0.00  0.00    +0.000 HD
ENDBRANCH   6   7
BRANCH   2  10
ATOM     10  O   UNL     1       0.645  -2.150  -1.088  0.00  0.00    +0.000 OA
ATOM     11  H   UNL     1       1.262  -2.617  -0.465  0.00  0.00    +0.000 HD
ENDBRANCH   2  10
BRANCH   5  12
ATOM     12  O   UNL     1      -2.950   1.437   0.946  0.00  0.00    +0.000 OA
ATOM     13  H   UNL     1      -3.871   1.095   0.800  0.00  0.00    +0.000 HD
ENDBRANCH   5  12
BRANCH   1  14
ATOM     14  O   UNL     1       1.552  -0.304   0.893  0.00  0.00    +0.000 OA
BRANCH  14  16
ATOM     15  C   UNL     1       3.901  -0.759   0.845  0.00  0.00    +0.000 C 
ATOM     16  C   UNL     1       2.746  -0.009   0.188  0.00  0.00    +0.000 C 
BRANCH  16  17
ATOM     17  C   UNL     1       3.021   1.469   0.217  0.00  0.00    +0.000 C 
ATOM     18  O   UNL     1       2.917   2.115   1.294  0.00  0.00    +0.000 OA
ATOM     19  O   UNL     1       3.418   2.124  -0.941  0.00  0.00    +0.000 OA
ENDBRANCH  16  17
ENDBRANCH  14  16
ENDBRANCH   1  14
BRANCH   3  20
ATOM     20  C   UNL     1      -2.518  -2.315  -1.038  0.00  0.00    +0.000 C 
BRANCH  20  21
ATOM     21  O   UNL     1      -3.627  -2.070  -1.857  0.00  0.00    +0.000 OA
ATOM     22  H   UNL     1      -4.215  -2.864  -1.770  0.00  0.00    +0.000 HD
ENDBRANCH  20  21
ENDBRANCH   3  20
TORSDOF 8
