REMARK  Name = 440552
REMARK  7 active torsions:
REMARK  status: ('A' for Active; 'I' for Inactive)
REMARK    1  A    between atoms: C_1  and  C_2
REMARK    2  A    between atoms: N_4  and  C_5
REMARK    3  A    between atoms: C_6  and  O_7
REMARK    4  A    between atoms: C_9  and  C_10
REMARK    5  A    between atoms: C_10  and  O_11
REMARK    6  A    between atoms: C_12  and  O_13
REMARK    7  A    between atoms: C_14  and  O_15
REMARK                            x       y       z     vdW  Elec       q    Type
REMARK                         _______ _______ _______ _____ _____    ______ ____
ROOT
ATOM      1  C   UNL     1      -0.033  -0.706  -0.571  0.00  0.00    +0.000 C 
ATOM      2  C   UNL     1       0.317  -1.227  -1.980  0.00  0.00    +0.000 C 
ATOM      3  O   UNL     1       1.583  -1.866  -1.973  0.00  0.00    +0.000 OA
ATOM      4  C   UNL     1       2.611  -0.929  -1.697  0.00  0.00    +0.000 C 
ATOM      5  C   UNL     1       2.468  -0.371  -0.258  0.00  0.00    +0.000 C 
ATOM      6  C   UNL     1       1.067   0.251  -0.072  0.00  0.00    +0.000 C 
ENDROOT
BRANCH   1  10
ATOM      7  C   UNL     1      -3.832   0.143  -0.287  0.00  0.00    +0.000 C 
ATOM      8  C   UNL     1      -2.545  -0.601  -0.145  0.00  0.00    +0.000 C 
ATOM      9  O   UNL     1      -2.549  -1.760   0.351  0.00  0.00    +0.000 OA
ATOM     10  N   UNL     1      -1.322  -0.006  -0.604  0.00  0.00    +0.000 N 
ATOM     11  H   UNL     1      -1.376   0.918  -1.090  0.00  0.00    +0.000 HD
ENDBRANCH   1  10
BRANCH   2  12
ATOM     12  O   UNL     1      -0.656  -2.156  -2.374  0.00  0.00    +0.000 OA
ATOM     13  H   UNL     1      -0.460  -2.383  -3.320  0.00  0.00    +0.000 HD
ENDBRANCH   2  12
BRANCH   5  14
ATOM     14  O   UNL     1       2.724  -1.354   0.718  0.00  0.00    +0.000 OA
ATOM     15  H   UNL     1       2.135  -2.131   0.539  0.00  0.00    +0.000 HD
ENDBRANCH   5  14
BRANCH   6  16
ATOM     16  O   UNL     1       0.843   0.560   1.279  0.00  0.00    +0.000 OA
ATOM     17  H   UNL     1       1.403   1.353   1.488  0.00  0.00    +0.000 HD
ENDBRANCH   6  16
BRANCH   4  18
ATOM     18  C   UNL     1       3.973  -1.602  -1.898  0.00  0.00    +0.000 C 
BRANCH  18  19
ATOM     19  O   UNL     1       4.111  -1.993  -3.236  0.00  0.00    +0.000 OA
ATOM     20  H   UNL     1       5.005  -2.419  -3.308  0.00  0.00    +0.000 HD
ENDBRANCH  18  19
ENDBRANCH   4  18
TORSDOF 6
