REMARK  Name = 439281
REMARK  8 active torsions:
REMARK  status: ('A' for Active; 'I' for Inactive)
REMARK    1  A    between atoms: C_1  and  C_2
REMARK    2  A    between atoms: C_2  and  O_3
REMARK    3  A    between atoms: N_4  and  C_5
REMARK    4  A    between atoms: C_6  and  O_7
REMARK    5  A    between atoms: C_9  and  C_10
REMARK    6  A    between atoms: C_10  and  O_11
REMARK    7  A    between atoms: C_12  and  O_13
REMARK    8  A    between atoms: C_14  and  O_15
REMARK                            x       y       z     vdW  Elec       q    Type
REMARK                         _______ _______ _______ _____ _____    ______ ____
ROOT
ATOM      1  C   UNL     1      -0.484  -0.167   0.767  0.00  0.00    +0.000 C 
ATOM      2  C   UNL     1      -0.818   1.222   0.187  0.00  0.00    +0.000 C 
ATOM      3  O   UNL     1      -2.177   1.554   0.424  0.00  0.00    +0.000 OA
ATOM      4  C   UNL     1      -2.490   1.645   1.808  0.00  0.00    +0.000 C 
ATOM      5  C   UNL     1      -2.171   0.336   2.577  0.00  0.00    +0.000 C 
ATOM      6  C   UNL     1      -0.749  -0.177   2.283  0.00  0.00    +0.000 C 
ENDROOT
BRANCH   1   9
ATOM      7  C   UNL     1       2.818  -1.374  -0.702  0.00  0.00    +0.000 C 
ATOM      8  C   UNL     1       1.360  -1.071  -0.573  0.00  0.00    +0.000 C 
ATOM      9  N   UNL     1       0.917  -0.514   0.515  0.00  0.00    +0.000 NA
BRANCH   8  10
ATOM     10  O   UNL     1       0.485  -1.423  -1.601  0.00  0.00    +0.000 OA
ATOM     11  H   UNL     1       0.820  -1.873  -2.444  0.00  0.00    +0.000 HD
ENDBRANCH   8  10
ENDBRANCH   1   9
BRANCH   2  12
ATOM     12  O   UNL     1      -0.602   1.206  -1.197  0.00  0.00    +0.000 OA
ATOM     13  H   UNL     1      -0.717   2.140  -1.512  0.00  0.00    +0.000 HD
ENDBRANCH   2  12
BRANCH   5  14
ATOM     14  O   UNL     1      -3.109  -0.642   2.201  0.00  0.00    +0.000 OA
ATOM     15  H   UNL     1      -3.102  -1.339   2.909  0.00  0.00    +0.000 HD
ENDBRANCH   5  14
BRANCH   6  16
ATOM     16  O   UNL     1       0.191   0.619   2.962  0.00  0.00    +0.000 OA
ATOM     17  H   UNL     1       0.996   0.058   3.115  0.00  0.00    +0.000 HD
ENDBRANCH   6  16
BRANCH   4  18
ATOM     18  C   UNL     1      -1.914   2.922   2.455  0.00  0.00    +0.000 C 
BRANCH  18  19
ATOM     19  O   UNL     1      -2.524   3.145   3.697  0.00  0.00    +0.000 OA
ATOM     20  H   UNL     1      -2.130   3.984   4.052  0.00  0.00    +0.000 HD
ENDBRANCH  18  19
ENDBRANCH   4  18
TORSDOF 7
