REMARK  Name = 6420074
REMARK  9 active torsions:
REMARK  status: ('A' for Active; 'I' for Inactive)
REMARK    1  A    between atoms: O_2  and  C_3
REMARK    2  A    between atoms: N_4  and  C_5
REMARK    3  A    between atoms: C_7  and  O_9
REMARK    4  A    between atoms: C_11  and  O_13
REMARK    5  A    between atoms: C_15  and  C_17
REMARK    6  A    between atoms: C_17  and  O_20
REMARK    7  A    between atoms: C_23  and  O_25
REMARK    8  A    between atoms: N_27  and  N_28
REMARK    9  A    between atoms: N_27  and  C_30
REMARK                            x       y       z     vdW  Elec       q    Type
REMARK                         _______ _______ _______ _____ _____    ______ ____
ROOT
ATOM      1  C   UNL     1      -1.945  -0.315   0.491  0.00  0.00    +0.000 C 
ATOM      2  C   UNL     1      -1.856   0.258   1.926  0.00  0.00    +0.000 C 
ATOM      3  C   UNL     1      -0.948   1.508   1.977  0.00  0.00    +0.000 C 
ATOM      4  C   UNL     1      -1.276   2.486   0.817  0.00  0.00    +0.000 C 
ATOM      5  O   UNL     1      -1.209   1.821  -0.434  0.00  0.00    +0.000 OA
ATOM      6  C   UNL     1      -2.212   0.821  -0.521  0.00  0.00    +0.000 C 
ENDROOT
BRANCH   1   8
ATOM      7  C   UNL     1      -0.356  -2.180   0.554  0.00  0.00    +0.000 C 
ATOM      8  N   UNL     1      -0.693  -0.994   0.142  0.00  0.00    +0.000 NA
ATOM      9  N   UNL     1       0.916  -2.742   0.164  0.00  0.00    +0.000 N 
ATOM     10  C   UNL     1       1.503  -3.838   0.930  0.00  0.00    +0.000 C 
BRANCH   7  12
ATOM     11  H   UNL     1      -1.026  -3.837   1.696  0.00  0.00    +0.000 HD
ATOM     12  O   UNL     1      -1.225  -2.896   1.383  0.00  0.00    +0.000 OA
ENDBRANCH   7  12
BRANCH   9  13
ATOM     13  N   UNL     1       1.609  -2.299  -0.980  0.00  0.00    +0.000 NA
ATOM     14  O   UNL     1       1.126  -1.456  -1.764  0.00  0.00    +0.000 OA
ENDBRANCH   9  13
ENDBRANCH   1   8
BRANCH   2  15
ATOM     15  O   UNL     1      -3.137   0.512   2.453  0.00  0.00    +0.000 OA
ATOM     16  H   UNL     1      -3.552   1.245   1.933  0.00  0.00    +0.000 HD
ENDBRANCH   2  15
BRANCH   3  17
ATOM     17  O   UNL     1      -1.109   2.147   3.219  0.00  0.00    +0.000 OA
ATOM     18  H   UNL     1      -0.227   2.527   3.471  0.00  0.00    +0.000 HD
ENDBRANCH   3  17
BRANCH   6  19
ATOM     19  O   UNL     1      -2.256   0.304  -1.827  0.00  0.00    +0.000 OA
ATOM     20  H   UNL     1      -1.320   0.153  -2.122  0.00  0.00    +0.000 HD
ENDBRANCH   6  19
BRANCH   4  21
ATOM     21  C   UNL     1      -0.302   3.675   0.788  0.00  0.00    +0.000 C 
BRANCH  21  22
ATOM     22  O   UNL     1       1.025   3.245   0.637  0.00  0.00    +0.000 OA
ATOM     23  H   UNL     1       1.148   3.029  -0.324  0.00  0.00    +0.000 HD
ENDBRANCH  21  22
ENDBRANCH   4  21
TORSDOF 8
