REMARK  Name = 644170
REMARK  7 active torsions:
REMARK  status: ('A' for Active; 'I' for Inactive)
REMARK    1  A    between atoms: C_1  and  C_2
REMARK    2  A    between atoms: N_4  and  C_5
REMARK    3  A    between atoms: C_6  and  O_7
REMARK    4  A    between atoms: C_9  and  C_10
REMARK    5  A    between atoms: C_10  and  O_11
REMARK    6  A    between atoms: C_12  and  O_13
REMARK    7  A    between atoms: C_14  and  O_15
REMARK                            x       y       z     vdW  Elec       q    Type
REMARK                         _______ _______ _______ _____ _____    ______ ____
ROOT
ATOM      1  C   UNL     1       1.044  -0.591   0.825  0.00  0.00    +0.000 C 
ATOM      2  C   UNL     1      -0.427  -0.922   0.501  0.00  0.00    +0.000 C 
ATOM      3  O   UNL     1      -1.085   0.174  -0.121  0.00  0.00    +0.000 OA
ATOM      4  C   UNL     1      -1.131   1.311   0.728  0.00  0.00    +0.000 C 
ATOM      5  C   UNL     1       0.297   1.816   1.051  0.00  0.00    +0.000 C 
ATOM      6  C   UNL     1       1.128   0.682   1.686  0.00  0.00    +0.000 C 
ENDROOT
BRANCH   1  10
ATOM      7  C   UNL     1       3.906  -0.575  -1.831  0.00  0.00    +0.000 C 
ATOM      8  C   UNL     1       3.169  -0.848  -0.560  0.00  0.00    +0.000 C 
ATOM      9  O   UNL     1       3.763  -1.422   0.393  0.00  0.00    +0.000 OA
ATOM     10  N   UNL     1       1.804  -0.428  -0.422  0.00  0.00    +0.000 N 
ATOM     11  H   UNL     1       1.372   0.105  -1.211  0.00  0.00    +0.000 HD
ENDBRANCH   1  10
BRANCH   2  12
ATOM     12  O   UNL     1      -1.107  -1.335   1.661  0.00  0.00    +0.000 OA
ATOM     13  H   UNL     1      -2.007  -1.631   1.366  0.00  0.00    +0.000 HD
ENDBRANCH   2  12
BRANCH   5  14
ATOM     14  O   UNL     1       0.261   2.936   1.902  0.00  0.00    +0.000 OA
ATOM     15  H   UNL     1      -0.196   2.664   2.740  0.00  0.00    +0.000 HD
ENDBRANCH   5  14
BRANCH   6  16
ATOM     16  O   UNL     1       2.469   1.077   1.825  0.00  0.00    +0.000 OA
ATOM     17  H   UNL     1       2.514   1.671   2.619  0.00  0.00    +0.000 HD
ENDBRANCH   6  16
BRANCH   4  18
ATOM     18  C   UNL     1      -1.944   2.407   0.023  0.00  0.00    +0.000 C 
BRANCH  18  19
ATOM     19  O   UNL     1      -3.232   1.944  -0.281  0.00  0.00    +0.000 OA
ATOM     20  H   UNL     1      -3.742   1.942   0.571  0.00  0.00    +0.000 HD
ENDBRANCH  18  19
ENDBRANCH   4  18
TORSDOF 6
