REMARK  Name = 6971258
REMARK  7 active torsions:
REMARK  status: ('A' for Active; 'I' for Inactive)
REMARK    1  A    between atoms: C_1  and  C_2
REMARK    2  A    between atoms: N_4  and  C_5
REMARK    3  A    between atoms: C_6  and  O_7
REMARK    4  A    between atoms: C_9  and  C_10
REMARK    5  A    between atoms: C_10  and  O_11
REMARK    6  A    between atoms: C_12  and  O_13
REMARK    7  A    between atoms: C_14  and  O_15
REMARK                            x       y       z     vdW  Elec       q    Type
REMARK                         _______ _______ _______ _____ _____    ______ ____
ROOT
ATOM      1  C   UNL     1       0.449   0.455   1.191  0.00  0.00    +0.000 C 
ATOM      2  C   UNL     1      -0.229  -0.068  -0.101  0.00  0.00    +0.000 C 
ATOM      3  O   UNL     1      -1.225  -1.035   0.199  0.00  0.00    +0.000 OA
ATOM      4  C   UNL     1      -0.677  -2.172   0.849  0.00  0.00    +0.000 C 
ATOM      5  C   UNL     1      -0.079  -1.784   2.223  0.00  0.00    +0.000 C 
ATOM      6  C   UNL     1       1.013  -0.715   2.024  0.00  0.00    +0.000 C 
ENDROOT
BRANCH   1  10
ATOM      7  C   UNL     1       2.295   3.715   0.099  0.00  0.00    +0.000 C 
ATOM      8  C   UNL     1       1.188   2.767   0.428  0.00  0.00    +0.000 C 
ATOM      9  O   UNL     1      -0.008   3.154   0.343  0.00  0.00    +0.000 OA
ATOM     10  N   UNL     1       1.494   1.440   0.880  0.00  0.00    +0.000 N 
ATOM     11  H   UNL     1       2.499   1.198   1.034  0.00  0.00    +0.000 HD
ENDBRANCH   1  10
BRANCH   2  12
ATOM     12  O   UNL     1       0.712  -0.592  -1.008  0.00  0.00    +0.000 OA
ATOM     13  H   UNL     1       1.143   0.180  -1.459  0.00  0.00    +0.000 HD
ENDBRANCH   2  12
BRANCH   5  14
ATOM     14  O   UNL     1      -1.091  -1.287   3.062  0.00  0.00    +0.000 OA
ATOM     15  H   UNL     1      -0.735  -1.316   3.989  0.00  0.00    +0.000 HD
ENDBRANCH   5  14
BRANCH   6  16
ATOM     16  O   UNL     1       2.126  -1.281   1.377  0.00  0.00    +0.000 OA
ATOM     17  H   UNL     1       2.612  -1.816   2.058  0.00  0.00    +0.000 HD
ENDBRANCH   6  16
BRANCH   4  18
ATOM     18  C   UNL     1      -1.780  -3.228   0.994  0.00  0.00    +0.000 C 
BRANCH  18  19
ATOM     19  O   UNL     1      -1.256  -4.405   1.547  0.00  0.00    +0.000 OA
ATOM     20  H   UNL     1      -2.017  -5.038   1.619  0.00  0.00    +0.000 HD
ENDBRANCH  18  19
ENDBRANCH   4  18
TORSDOF 6
