REMARK  Name = 3052142
REMARK  16 active torsions:
REMARK  status: ('A' for Active; 'I' for Inactive)
REMARK    1  A    between atoms: O_2  and  C_3
REMARK    2  A    between atoms: C_3  and  N_7
REMARK    3  A    between atoms: N_7  and  C_9
REMARK    4  A    between atoms: C_11  and  O_13
REMARK    5  A    between atoms: O_13  and  C_14
REMARK    6  A    between atoms: C_14  and  C_16
REMARK    7  A    between atoms: C_21  and  C_23
REMARK    8  A    between atoms: C_23  and  O_26
REMARK    9  A    between atoms: O_26  and  C_27
REMARK   10  A    between atoms: C_27  and  C_29
REMARK   11  A    between atoms: C_33  and  O_35
REMARK   12  A    between atoms: O_35  and  C_36
REMARK   13  A    between atoms: C_36  and  C_38
REMARK   14  A    between atoms: C_42  and  O_44
REMARK   15  A    between atoms: O_44  and  C_45
REMARK   16  A    between atoms: C_45  and  C_47
REMARK                            x       y       z     vdW  Elec       q    Type
REMARK                         _______ _______ _______ _____ _____    ______ ____
ROOT
ATOM      1  C   UNL     1       0.777  -0.417  -0.827  0.00  0.00    +0.000 C 
ATOM      2  C   UNL     1       0.305  -1.519   0.142  0.00  0.00    +0.000 C 
ATOM      3  O   UNL     1      -0.402  -0.953   1.234  0.00  0.00    +0.000 OA
ATOM      4  C   UNL     1       0.457  -0.131   2.007  0.00  0.00    +0.000 C 
ATOM      5  C   UNL     1       0.914   1.097   1.186  0.00  0.00    +0.000 C 
ATOM      6  C   UNL     1       1.651   0.602  -0.074  0.00  0.00    +0.000 C 
ENDROOT
BRANCH   1   7
ATOM      7  N   UNL     1       1.539  -1.011  -1.931  0.00  0.00    +0.000 N 
ATOM      8  H   UNL     1       2.366  -1.597  -1.675  0.00  0.00    +0.000 HD
BRANCH   7   9
ATOM      9  C   UNL     1       1.558  -0.410  -3.233  0.00  0.00    +0.000 C 
ATOM     10  C   UNL     1       0.470  -0.370  -4.005  0.00  0.00    +0.000 C 
ATOM     11 CL   UNL     1      -1.049  -1.134  -3.556  0.00  0.00    +0.000 Cl
BRANCH   9  13
ATOM     12  H   UNL     1       3.590   0.115  -3.155  0.00  0.00    +0.000 HD
ATOM     13  O   UNL     1       2.748   0.124  -3.718  0.00  0.00    +0.000 OA
ENDBRANCH   9  13
ENDBRANCH   7   9
ENDBRANCH   1   7
BRANCH   2  14
ATOM     14  O   UNL     1      -0.561  -2.406  -0.559  0.00  0.00    +0.000 OA
BRANCH  14  15
ATOM     15  C   UNL     1      -1.077  -3.576   0.007  0.00  0.00    +0.000 C 
ATOM     16  O   UNL     1      -0.762  -3.919   1.179  0.00  0.00    +0.000 OA
ATOM     17  C   UNL     1      -1.969  -4.452  -0.805  0.00  0.00    +0.000 C 
ENDBRANCH  14  15
ENDBRANCH   2  14
BRANCH   4  18
ATOM     18  C   UNL     1      -0.268   0.286   3.294  0.00  0.00    +0.000 C 
BRANCH  18  19
ATOM     19  O   UNL     1      -1.510   0.913   2.986  0.00  0.00    +0.000 OA
BRANCH  19  20
ATOM     20  C   UNL     1      -2.352   1.447   3.964  0.00  0.00    +0.000 C 
ATOM     21  O   UNL     1      -2.042   1.385   5.185  0.00  0.00    +0.000 OA
ATOM     22  C   UNL     1      -3.600   2.148   3.551  0.00  0.00    +0.000 C 
ENDBRANCH  19  20
ENDBRANCH  18  19
ENDBRANCH   4  18
BRANCH   5  23
ATOM     23  O   UNL     1      -0.228   1.874   0.812  0.00  0.00    +0.000 OA
BRANCH  23  24
ATOM     24  C   UNL     1      -0.226   3.269   0.701  0.00  0.00    +0.000 C 
ATOM     25  O   UNL     1       0.811   3.940   0.953  0.00  0.00    +0.000 OA
ATOM     26  C   UNL     1      -1.463   3.965   0.246  0.00  0.00    +0.000 C 
ENDBRANCH  23  24
ENDBRANCH   5  23
BRANCH   6  27
ATOM     27  O   UNL     1       1.961   1.694  -0.942  0.00  0.00    +0.000 OA
BRANCH  27  28
ATOM     28  C   UNL     1       3.032   2.567  -0.731  0.00  0.00    +0.000 C 
ATOM     29  O   UNL     1       3.820   2.403   0.240  0.00  0.00    +0.000 OA
ATOM     30  C   UNL     1       3.273   3.675  -1.698  0.00  0.00    +0.000 C 
ENDBRANCH  27  28
ENDBRANCH   6  27
TORSDOF 12
