REMARK  Name = 2801971
REMARK  9 active torsions:
REMARK  status: ('A' for Active; 'I' for Inactive)
REMARK    1  A    between atoms: C_1  and  C_2
REMARK    2  A    between atoms: N_4  and  C_5
REMARK    3  A    between atoms: C_6  and  O_7
REMARK    4  A    between atoms: O_7  and  C_8
REMARK    5  A    between atoms: C_8  and  C_9
REMARK    6  A    between atoms: C_16  and  C_17
REMARK    7  A    between atoms: C_17  and  O_18
REMARK    8  A    between atoms: C_19  and  O_20
REMARK    9  A    between atoms: C_21  and  O_22
REMARK                            x       y       z     vdW  Elec       q    Type
REMARK                         _______ _______ _______ _____ _____    ______ ____
ROOT
ATOM      1  C   UNL     1      -1.476   0.465   0.165  0.00  0.00    +0.000 C 
ATOM      2  C   UNL     1      -0.476  -0.337  -0.694  0.00  0.00    +0.000 C 
ATOM      3  O   UNL     1      -1.150  -1.261  -1.536  0.00  0.00    +0.000 OA
ATOM      4  C   UNL     1      -1.877  -2.224  -0.788  0.00  0.00    +0.000 C 
ATOM      5  C   UNL     1      -2.993  -1.543   0.038  0.00  0.00    +0.000 C 
ATOM      6  C   UNL     1      -2.372  -0.491   0.972  0.00  0.00    +0.000 C 
ENDROOT
BRANCH   1  10
ATOM      7  C   UNL     1       0.700   3.403   1.531  0.00  0.00    +0.000 C 
ATOM      8  C   UNL     1      -0.087   2.557   0.585  0.00  0.00    +0.000 C 
ATOM      9  O   UNL     1      -0.197   2.912  -0.620  0.00  0.00    +0.000 OA
ATOM     10  N   UNL     1      -0.756   1.380   1.061  0.00  0.00    +0.000 N 
ATOM     11  H   UNL     1      -0.726   1.178   2.086  0.00  0.00    +0.000 HD
ENDBRANCH   1  10
BRANCH   5  12
ATOM     12  O   UNL     1      -3.671  -2.498   0.817  0.00  0.00    +0.000 OA
ATOM     13  H   UNL     1      -4.478  -2.771   0.308  0.00  0.00    +0.000 HD
ENDBRANCH   5  12
BRANCH   6  14
ATOM     14  O   UNL     1      -3.386   0.249   1.602  0.00  0.00    +0.000 OA
ATOM     15  H   UNL     1      -3.721  -0.304   2.356  0.00  0.00    +0.000 HD
ENDBRANCH   6  14
BRANCH   2  16
ATOM     16  O   UNL     1       0.465  -0.998   0.141  0.00  0.00    +0.000 OA
BRANCH  16  17
ATOM     17  C   UNL     1       1.708  -1.151  -0.514  0.00  0.00    +0.000 C 
BRANCH  17  18
ATOM     18  C   UNL     1       2.562   0.069  -0.292  0.00  0.00    +0.000 A 
ATOM     19  C   UNL     1       3.047   0.361   0.994  0.00  0.00    +0.000 A 
ATOM     20  C   UNL     1       3.805   1.514   1.216  0.00  0.00    +0.000 A 
ATOM     21  C   UNL     1       4.077   2.388   0.159  0.00  0.00    +0.000 A 
ATOM     22  C   UNL     1       3.591   2.108  -1.121  0.00  0.00    +0.000 A 
ATOM     23  C   UNL     1       2.836   0.954  -1.348  0.00  0.00    +0.000 A 
ENDBRANCH  17  18
ENDBRANCH  16  17
ENDBRANCH   2  16
BRANCH   4  24
ATOM     24  C   UNL     1      -2.469  -3.246  -1.770  0.00  0.00    +0.000 C 
BRANCH  24  25
ATOM     25  O   UNL     1      -1.456  -3.819  -2.552  0.00  0.00    +0.000 OA
ATOM     26  H   UNL     1      -0.973  -4.459  -1.967  0.00  0.00    +0.000 HD
ENDBRANCH  24  25
ENDBRANCH   4  24
TORSDOF 8
