REMARK  Name = 122253
REMARK  10 active torsions:
REMARK  status: ('A' for Active; 'I' for Inactive)
REMARK    1  A    between atoms: O_2  and  C_3
REMARK    2  A    between atoms: C_3  and  C_40
REMARK    3  A    between atoms: N_4  and  C_5
REMARK    4  A    between atoms: C_7  and  O_9
REMARK    5  A    between atoms: O_9  and  C_10
REMARK    6  A    between atoms: C_10  and  C_13
REMARK    7  A    between atoms: C_25  and  C_27
REMARK    8  A    between atoms: C_27  and  O_30
REMARK    9  A    between atoms: C_32  and  O_34
REMARK   10  A    between atoms: C_36  and  O_38
REMARK                            x       y       z     vdW  Elec       q    Type
REMARK                         _______ _______ _______ _____ _____    ______ ____
ROOT
ATOM      1  C   UNL     1      -1.433  -0.413  -0.170  0.00  0.00    +0.000 C 
ATOM      2  C   UNL     1      -0.305   0.510   0.351  0.00  0.00    +0.000 C 
ATOM      3  O   UNL     1      -0.819   1.559   1.162  0.00  0.00    +0.000 OA
ATOM      4  C   UNL     1      -1.715   2.391   0.442  0.00  0.00    +0.000 C 
ATOM      5  C   UNL     1      -2.965   1.600   0.001  0.00  0.00    +0.000 C 
ATOM      6  C   UNL     1      -2.512   0.426  -0.886  0.00  0.00    +0.000 C 
ENDROOT
BRANCH   1   8
ATOM      7  C   UNL     1      -0.217  -2.478  -0.842  0.00  0.00    +0.000 C 
ATOM      8  N   UNL     1      -0.898  -1.402  -1.114  0.00  0.00    +0.000 NA
ATOM      9  C   UNL     1       0.126  -2.895   0.563  0.00  0.00    +0.000 C 
BRANCH   7  11
ATOM     10  H   UNL     1       0.793  -4.088  -1.754  0.00  0.00    +0.000 HD
ATOM     11  O   UNL     1       0.234  -3.257  -1.905  0.00  0.00    +0.000 OA
ENDBRANCH   7  11
ENDBRANCH   1   8
BRANCH   5  12
ATOM     12  O   UNL     1      -3.654   1.121   1.131  0.00  0.00    +0.000 OA
ATOM     13  H   UNL     1      -4.615   1.071   0.886  0.00  0.00    +0.000 HD
ENDBRANCH   5  12
BRANCH   6  14
ATOM     14  O   UNL     1      -3.607  -0.365  -1.283  0.00  0.00    +0.000 OA
ATOM     15  H   UNL     1      -3.937  -0.857  -0.486  0.00  0.00    +0.000 HD
ENDBRANCH   6  14
BRANCH   2  16
ATOM     16  O   UNL     1       0.444   1.028  -0.740  0.00  0.00    +0.000 OA
BRANCH  16  17
ATOM     17  C   UNL     1       1.772   1.319  -0.352  0.00  0.00    +0.000 C 
BRANCH  17  18
ATOM     18  C   UNL     1       2.623   0.077  -0.416  0.00  0.00    +0.000 A 
ATOM     19  C   UNL     1       2.740  -0.632  -1.623  0.00  0.00    +0.000 A 
ATOM     20  C   UNL     1       3.495  -1.808  -1.677  0.00  0.00    +0.000 A 
ATOM     21  C   UNL     1       4.140  -2.280  -0.531  0.00  0.00    +0.000 A 
ATOM     22  C   UNL     1       4.033  -1.576   0.671  0.00  0.00    +0.000 A 
ATOM     23  C   UNL     1       3.278  -0.401   0.731  0.00  0.00    +0.000 A 
ENDBRANCH  17  18
ENDBRANCH  16  17
ENDBRANCH   2  16
BRANCH   4  24
ATOM     24  C   UNL     1      -2.081   3.607   1.305  0.00  0.00    +0.000 C 
BRANCH  24  25
ATOM     25  O   UNL     1      -2.560   3.199   2.557  0.00  0.00    +0.000 OA
ATOM     26  H   UNL     1      -2.781   4.031   3.051  0.00  0.00    +0.000 HD
ENDBRANCH  24  25
ENDBRANCH   4  24
TORSDOF 9
