REMARK  Name = 202260
REMARK  14 active torsions:
REMARK  status: ('A' for Active; 'I' for Inactive)
REMARK    1  A    between atoms: C_1  and  C_2
REMARK    2  A    between atoms: C_2  and  O_4
REMARK    3  A    between atoms: O_4  and  C_5
REMARK    4  A    between atoms: C_5  and  C_6
REMARK    5  A    between atoms: C_8  and  O_9
REMARK    6  A    between atoms: O_9  and  C_10
REMARK    7  A    between atoms: C_10  and  C_11
REMARK    8  A    between atoms: C_13  and  N_14
REMARK    9  A    between atoms: C_15  and  O_16
REMARK   10  A    between atoms: O_16  and  C_17
REMARK   11  A    between atoms: C_17  and  C_18
REMARK   12  A    between atoms: C_20  and  O_21
REMARK   13  A    between atoms: O_21  and  C_22
REMARK   14  A    between atoms: C_22  and  C_23
REMARK                            x       y       z     vdW  Elec       q    Type
REMARK                         _______ _______ _______ _____ _____    ______ ____
ROOT
ATOM      1  C   UNL     1      -1.927  -0.552  -0.782  0.00  0.00    +0.000 C 
ATOM      2  O   UNL     1      -1.145  -1.213  -1.772  0.00  0.00    +0.000 OA
ATOM      3  C   UNL     1       0.096  -0.582  -2.048  0.00  0.00    +0.000 C 
ATOM      4  C   UNL     1       0.978  -0.460  -0.785  0.00  0.00    +0.000 C 
ATOM      5  C   UNL     1       0.224   0.306   0.321  0.00  0.00    +0.000 C 
ATOM      6  C   UNL     1      -1.170  -0.310   0.548  0.00  0.00    +0.000 C 
ENDROOT
BRANCH   4   7
ATOM      7  N   UNL     1       1.360  -1.793  -0.312  0.00  0.00    +0.000 NA
ATOM      8  H   UNL     1       1.934  -2.256  -1.054  0.00  0.00    +0.000 HD
ATOM      9  H   UNL     1       1.995  -1.684   0.512  0.00  0.00    +0.000 HD
ENDBRANCH   4   7
BRANCH   1  10
ATOM     10  C   UNL     1      -2.655   0.700  -1.321  0.00  0.00    +0.000 C 
BRANCH  10  11
ATOM     11  O   UNL     1      -3.178   0.464  -2.627  0.00  0.00    +0.000 OA
BRANCH  11  13
ATOM     12  C   UNL     1      -4.744  -0.555  -4.282  0.00  0.00    +0.000 C 
ATOM     13  C   UNL     1      -4.303  -0.330  -2.876  0.00  0.00    +0.000 C 
ATOM     14  O   UNL     1      -4.976  -0.814  -1.926  0.00  0.00    +0.000 OA
ENDBRANCH  11  13
ENDBRANCH  10  11
ENDBRANCH   1  10
BRANCH   3  15
ATOM     15  O   UNL     1      -0.109   0.684  -2.678  0.00  0.00    +0.000 OA
BRANCH  15  16
ATOM     16  C   UNL     1       0.884   1.377  -3.379  0.00  0.00    +0.000 C 
ATOM     17  C   UNL     1       0.579   2.724  -3.939  0.00  0.00    +0.000 C 
ATOM     18  O   UNL     1       2.017   0.862  -3.576  0.00  0.00    +0.000 OA
ENDBRANCH  15  16
ENDBRANCH   3  15
BRANCH   5  19
ATOM     19  O   UNL     1       0.085   1.686  -0.023  0.00  0.00    +0.000 OA
BRANCH  19  20
ATOM     20  C   UNL     1       1.138   2.607   0.018  0.00  0.00    +0.000 C 
ATOM     21  C   UNL     1       0.904   4.008  -0.433  0.00  0.00    +0.000 C 
ATOM     22  O   UNL     1       2.274   2.274   0.451  0.00  0.00    +0.000 OA
ENDBRANCH  19  20
ENDBRANCH   5  19
BRANCH   6  23
ATOM     23  O   UNL     1      -1.047  -1.559   1.234  0.00  0.00    +0.000 OA
BRANCH  23  24
ATOM     24  C   UNL     1      -0.775  -1.671   2.603  0.00  0.00    +0.000 C 
ATOM     25  C   UNL     1      -0.571  -3.021   3.201  0.00  0.00    +0.000 C 
ATOM     26  O   UNL     1      -0.663  -0.644   3.326  0.00  0.00    +0.000 OA
ENDBRANCH  23  24
ENDBRANCH   6  23
TORSDOF 10
