REMARK  Name = 198515
REMARK  15 active torsions:
REMARK  status: ('A' for Active; 'I' for Inactive)
REMARK    1  A    between atoms: C_1  and  C_2
REMARK    2  A    between atoms: C_2  and  O_4
REMARK    3  A    between atoms: O_4  and  C_5
REMARK    4  A    between atoms: C_5  and  C_6
REMARK    5  A    between atoms: C_8  and  O_9
REMARK    6  A    between atoms: O_9  and  C_10
REMARK    7  A    between atoms: C_10  and  C_11
REMARK    8  A    between atoms: C_13  and  N_14
REMARK    9  A    between atoms: C_15  and  C_17
REMARK   10  A    between atoms: C_19  and  O_20
REMARK   11  A    between atoms: O_20  and  C_21
REMARK   12  A    between atoms: C_21  and  C_22
REMARK   13  A    between atoms: C_24  and  O_25
REMARK   14  A    between atoms: O_25  and  C_26
REMARK   15  A    between atoms: C_26  and  C_27
REMARK                            x       y       z     vdW  Elec       q    Type
REMARK                         _______ _______ _______ _____ _____    ______ ____
ROOT
ATOM      1  C   UNL     1      -0.067   0.457   1.668  0.00  0.00    +0.000 C 
ATOM      2  O   UNL     1       1.156   1.172   1.644  0.00  0.00    +0.000 OA
ATOM      3  C   UNL     1       1.304   1.852   0.410  0.00  0.00    +0.000 C 
ATOM      4  C   UNL     1       1.424   0.848  -0.750  0.00  0.00    +0.000 C 
ATOM      5  C   UNL     1       0.198  -0.087  -0.767  0.00  0.00    +0.000 C 
ATOM      6  C   UNL     1      -0.029  -0.690   0.635  0.00  0.00    +0.000 C 
ENDROOT
BRANCH   4   7
ATOM      7  N   UNL     1       1.531   1.574  -2.018  0.00  0.00    +0.000 N 
ATOM      8  C   UNL     1       2.647   1.436  -2.910  0.00  0.00    +0.000 C 
ATOM      9  O   UNL     1       3.615   0.684  -2.615  0.00  0.00    +0.000 OA
ATOM     10  H   UNL     1       0.751   2.217  -2.293  0.00  0.00    +0.000 HD
BRANCH   8  11
ATOM     11  C   UNL     1       2.700   2.237  -4.168  0.00  0.00    +0.000 C 
ATOM     12 BR   UNL     1       3.397   3.996  -3.767  0.00  0.00    +0.000 Br
ENDBRANCH   8  11
ENDBRANCH   4   7
BRANCH   1  13
ATOM     13  C   UNL     1      -0.309  -0.058   3.098  0.00  0.00    +0.000 C 
BRANCH  13  14
ATOM     14  O   UNL     1      -1.486  -0.862   3.177  0.00  0.00    +0.000 OA
BRANCH  14  16
ATOM     15  C   UNL     1      -3.940  -1.291   3.133  0.00  0.00    +0.000 C 
ATOM     16  C   UNL     1      -2.788  -0.347   3.108  0.00  0.00    +0.000 C 
ATOM     17  O   UNL     1      -2.998   0.893   3.019  0.00  0.00    +0.000 OA
ENDBRANCH  14  16
ENDBRANCH  13  14
ENDBRANCH   1  13
BRANCH   3  18
ATOM     18  O   UNL     1       2.487   2.646   0.449  0.00  0.00    +0.000 OA
BRANCH  18  19
ATOM     19  C   UNL     1       2.654   3.728   1.319  0.00  0.00    +0.000 C 
ATOM     20  C   UNL     1       3.854   4.602   1.169  0.00  0.00    +0.000 C 
ATOM     21  O   UNL     1       1.798   3.980   2.209  0.00  0.00    +0.000 OA
ENDBRANCH  18  19
ENDBRANCH   3  18
BRANCH   5  22
ATOM     22  O   UNL     1       0.388  -1.134  -1.720  0.00  0.00    +0.000 OA
BRANCH  22  23
ATOM     23  C   UNL     1       0.084  -1.020  -3.079  0.00  0.00    +0.000 C 
ATOM     24  C   UNL     1       0.445  -2.134  -3.998  0.00  0.00    +0.000 C 
ATOM     25  O   UNL     1      -0.496   0.002  -3.529  0.00  0.00    +0.000 OA
ENDBRANCH  22  23
ENDBRANCH   5  22
BRANCH   6  26
ATOM     26  O   UNL     1       1.019  -1.606   0.972  0.00  0.00    +0.000 OA
BRANCH  26  27
ATOM     27  C   UNL     1       1.030  -2.947   0.572  0.00  0.00    +0.000 C 
ATOM     28  C   UNL     1       2.190  -3.805   0.937  0.00  0.00    +0.000 C 
ATOM     29  O   UNL     1       0.053  -3.446  -0.050  0.00  0.00    +0.000 OA
ENDBRANCH  26  27
ENDBRANCH   6  26
TORSDOF 11
