REMARK  Name = 96523
REMARK  9 active torsions:
REMARK  status: ('A' for Active; 'I' for Inactive)
REMARK    1  A    between atoms: O_2  and  C_3
REMARK    2  A    between atoms: C_3  and  C_30
REMARK    3  A    between atoms: N_4  and  C_5
REMARK    4  A    between atoms: C_7  and  O_9
REMARK    5  A    between atoms: O_9  and  C_10
REMARK    6  A    between atoms: C_15  and  C_17
REMARK    7  A    between atoms: C_17  and  O_20
REMARK    8  A    between atoms: C_22  and  O_24
REMARK    9  A    between atoms: C_26  and  O_28
REMARK                            x       y       z     vdW  Elec       q    Type
REMARK                         _______ _______ _______ _____ _____    ______ ____
ROOT
ATOM      1  C   UNL     1       0.256   0.205  -1.033  0.00  0.00    +0.000 C 
ATOM      2  C   UNL     1       0.242  -1.315  -0.787  0.00  0.00    +0.000 C 
ATOM      3  O   UNL     1      -1.083  -1.823  -0.858  0.00  0.00    +0.000 OA
ATOM      4  C   UNL     1      -1.914  -1.275   0.155  0.00  0.00    +0.000 C 
ATOM      5  C   UNL     1      -2.055   0.256  -0.027  0.00  0.00    +0.000 C 
ATOM      6  C   UNL     1      -0.665   0.913  -0.021  0.00  0.00    +0.000 C 
ENDROOT
BRANCH   1   8
ATOM      7  C   UNL     1       2.095   1.748  -1.525  0.00  0.00    +0.000 C 
ATOM      8  N   UNL     1       1.631   0.698  -0.917  0.00  0.00    +0.000 NA
ATOM      9  C   UNL     1       3.522   2.145  -1.323  0.00  0.00    +0.000 C 
BRANCH   7  11
ATOM     10  H   UNL     1       1.647   3.295  -2.882  0.00  0.00    +0.000 HD
ATOM     11  O   UNL     1       1.288   2.485  -2.392  0.00  0.00    +0.000 OA
ENDBRANCH   7  11
ENDBRANCH   1   8
BRANCH   2  12
ATOM     12  O   UNL     1       0.855  -1.621   0.458  0.00  0.00    +0.000 OA
ATOM     13  C   UNL     1       1.168  -2.995   0.519  0.00  0.00    +0.000 C 
ENDBRANCH   2  12
BRANCH   5  14
ATOM     14  O   UNL     1      -2.828   0.791   1.017  0.00  0.00    +0.000 OA
ATOM     15  H   UNL     1      -3.193   1.655   0.692  0.00  0.00    +0.000 HD
ENDBRANCH   5  14
BRANCH   6  16
ATOM     16  O   UNL     1      -0.800   2.271  -0.357  0.00  0.00    +0.000 OA
ATOM     17  H   UNL     1      -0.081   2.763   0.120  0.00  0.00    +0.000 HD
ENDBRANCH   6  16
BRANCH   4  18
ATOM     18  C   UNL     1      -3.279  -1.977   0.070  0.00  0.00    +0.000 C 
BRANCH  18  19
ATOM     19  O   UNL     1      -4.099  -1.635   1.155  0.00  0.00    +0.000 OA
ATOM     20  H   UNL     1      -3.751  -2.130   1.942  0.00  0.00    +0.000 HD
ENDBRANCH  18  19
ENDBRANCH   4  18
TORSDOF 7
