REMARK  Name = 96523
REMARK  9 active torsions:
REMARK  status: ('A' for Active; 'I' for Inactive)
REMARK    1  A    between atoms: O_2  and  C_3
REMARK    2  A    between atoms: C_3  and  C_30
REMARK    3  A    between atoms: N_4  and  C_5
REMARK    4  A    between atoms: C_7  and  O_9
REMARK    5  A    between atoms: O_9  and  C_10
REMARK    6  A    between atoms: C_15  and  C_17
REMARK    7  A    between atoms: C_17  and  O_20
REMARK    8  A    between atoms: C_22  and  O_24
REMARK    9  A    between atoms: C_26  and  O_28
REMARK                            x       y       z     vdW  Elec       q    Type
REMARK                         _______ _______ _______ _____ _____    ______ ____
ROOT
ATOM      1  C   UNL     1      -1.139  -0.191   0.337  0.00  0.00    +0.000 C 
ATOM      2  C   UNL     1      -0.620   1.247   0.543  0.00  0.00    +0.000 C 
ATOM      3  O   UNL     1       0.333   1.583  -0.457  0.00  0.00    +0.000 OA
ATOM      4  C   UNL     1       1.484   0.754  -0.391  0.00  0.00    +0.000 C 
ATOM      5  C   UNL     1       1.106  -0.722  -0.671  0.00  0.00    +0.000 C 
ATOM      6  C   UNL     1       0.036  -1.179   0.333  0.00  0.00    +0.000 C 
ENDROOT
BRANCH   1   8
ATOM      7  C   UNL     1      -3.359  -0.351   1.428  0.00  0.00    +0.000 C 
ATOM      8  N   UNL     1      -2.073  -0.555   1.409  0.00  0.00    +0.000 NA
ATOM      9  C   UNL     1      -4.093   0.274   0.272  0.00  0.00    +0.000 C 
BRANCH   7  11
ATOM     10  H   UNL     1      -5.077  -0.629   2.619  0.00  0.00    +0.000 HD
ATOM     11  O   UNL     1      -4.074  -0.753   2.553  0.00  0.00    +0.000 OA
ENDBRANCH   7  11
ENDBRANCH   1   8
BRANCH   2  12
ATOM     12  O   UNL     1      -0.082   1.395   1.849  0.00  0.00    +0.000 OA
ATOM     13  C   UNL     1       0.052   2.763   2.167  0.00  0.00    +0.000 C 
ENDBRANCH   2  12
BRANCH   5  14
ATOM     14  O   UNL     1       2.235  -1.548  -0.537  0.00  0.00    +0.000 OA
ATOM     15  H   UNL     1       2.579  -1.727  -1.451  0.00  0.00    +0.000 HD
ENDBRANCH   5  14
BRANCH   6  16
ATOM     16  O   UNL     1      -0.436  -2.455  -0.018  0.00  0.00    +0.000 OA
ATOM     17  H   UNL     1       0.234  -3.111   0.307  0.00  0.00    +0.000 HD
ENDBRANCH   6  16
BRANCH   4  18
ATOM     18  C   UNL     1       2.498   1.279  -1.417  0.00  0.00    +0.000 C 
BRANCH  18  19
ATOM     19  O   UNL     1       3.753   0.690  -1.212  0.00  0.00    +0.000 OA
ATOM     20  H   UNL     1       4.348   1.057  -1.917  0.00  0.00    +0.000 HD
ENDBRANCH  18  19
ENDBRANCH   4  18
TORSDOF 7
