REMARK  Name = 193108
REMARK  8 active torsions:
REMARK  status: ('A' for Active; 'I' for Inactive)
REMARK    1  A    between atoms: O_2  and  C_3
REMARK    2  A    between atoms: C_3  and  C_27
REMARK    3  A    between atoms: N_4  and  C_5
REMARK    4  A    between atoms: C_7  and  O_9
REMARK    5  A    between atoms: C_12  and  C_14
REMARK    6  A    between atoms: C_14  and  O_17
REMARK    7  A    between atoms: C_19  and  O_21
REMARK    8  A    between atoms: C_23  and  O_25
REMARK                            x       y       z     vdW  Elec       q    Type
REMARK                         _______ _______ _______ _____ _____    ______ ____
ROOT
ATOM      1  C   UNL     1       0.784  -0.832   0.339  0.00  0.00    +0.000 C 
ATOM      2  C   UNL     1       0.527  -1.513  -1.027  0.00  0.00    +0.000 C 
ATOM      3  O   UNL     1      -0.816  -1.312  -1.436  0.00  0.00    +0.000 OA
ATOM      4  C   UNL     1      -1.713  -1.949  -0.541  0.00  0.00    +0.000 C 
ATOM      5  C   UNL     1      -1.649  -1.285   0.853  0.00  0.00    +0.000 C 
ATOM      6  C   UNL     1      -0.204  -1.381   1.383  0.00  0.00    +0.000 C 
ENDROOT
BRANCH   1   8
ATOM      7  C   UNL     1       3.194  -0.330   0.683  0.00  0.00    +0.000 C 
ATOM      8  N   UNL     1       2.152  -1.106   0.793  0.00  0.00    +0.000 NA
BRANCH   7  10
ATOM      9  H   UNL     1       4.511  -1.688   1.601  0.00  0.00    +0.000 HD
ATOM     10  O   UNL     1       4.418  -0.773   1.176  0.00  0.00    +0.000 OA
ENDBRANCH   7  10
BRANCH   7  11
ATOM     11  C   UNL     1       3.131   1.047   0.085  0.00  0.00    +0.000 C 
ATOM     12 BR   UNL     1       2.471   2.308   1.399  0.00  0.00    +0.000 Br
ENDBRANCH   7  11
ENDBRANCH   1   8
BRANCH   2  13
ATOM     13  O   UNL     1       1.365  -0.954  -2.003  0.00  0.00    +0.000 OA
ATOM     14  H   UNL     1       2.242  -1.413  -1.935  0.00  0.00    +0.000 HD
ENDBRANCH   2  13
BRANCH   5  15
ATOM     15  O   UNL     1      -2.041   0.063   0.764  0.00  0.00    +0.000 OA
ATOM     16  H   UNL     1      -2.353   0.334   1.667  0.00  0.00    +0.000 HD
ENDBRANCH   5  15
BRANCH   6  17
ATOM     17  O   UNL     1      -0.070  -0.661   2.581  0.00  0.00    +0.000 OA
ATOM     18  H   UNL     1      -0.534  -1.188   3.284  0.00  0.00    +0.000 HD
ENDBRANCH   6  17
BRANCH   4  19
ATOM     19  C   UNL     1      -3.134  -1.920  -1.129  0.00  0.00    +0.000 C 
BRANCH  19  20
ATOM     20  O   UNL     1      -3.543  -0.611  -1.425  0.00  0.00    +0.000 OA
ATOM     21  H   UNL     1      -3.129  -0.371  -2.295  0.00  0.00    +0.000 HD
ENDBRANCH  19  20
ENDBRANCH   4  19
TORSDOF 8
