REMARK  Name = 118328
REMARK  9 active torsions:
REMARK  status: ('A' for Active; 'I' for Inactive)
REMARK    1  A    between atoms: C_1  and  C_2
REMARK    2  A    between atoms: N_4  and  C_5
REMARK    3  A    between atoms: C_6  and  O_7
REMARK    4  A    between atoms: O_7  and  C_8
REMARK    5  A    between atoms: C_12  and  C_13
REMARK    6  A    between atoms: C_21  and  C_22
REMARK    7  A    between atoms: C_22  and  O_23
REMARK    8  A    between atoms: C_24  and  O_25
REMARK    9  A    between atoms: C_26  and  O_27
REMARK                            x       y       z     vdW  Elec       q    Type
REMARK                         _______ _______ _______ _____ _____    ______ ____
ROOT
ATOM      1  C   UNL     1       2.157   0.102  -1.545  0.00  0.00    +0.000 C 
ATOM      2  C   UNL     1       1.921  -0.109  -0.031  0.00  0.00    +0.000 C 
ATOM      3  O   UNL     1       3.048  -0.734   0.565  0.00  0.00    +0.000 OA
ATOM      4  C   UNL     1       4.231   0.050   0.475  0.00  0.00    +0.000 C 
ATOM      5  C   UNL     1       4.607   0.340  -1.002  0.00  0.00    +0.000 C 
ATOM      6  C   UNL     1       3.420   0.954  -1.760  0.00  0.00    +0.000 C 
ENDROOT
BRANCH   1  10
ATOM      7  C   UNL     1      -1.117   0.806  -3.554  0.00  0.00    +0.000 C 
ATOM      8  C   UNL     1       0.091   0.092  -3.042  0.00  0.00    +0.000 C 
ATOM      9  O   UNL     1       0.265  -1.119  -3.344  0.00  0.00    +0.000 OA
ATOM     10  N   UNL     1       1.006   0.766  -2.165  0.00  0.00    +0.000 N 
ATOM     11  H   UNL     1       0.804   1.757  -1.902  0.00  0.00    +0.000 HD
ENDBRANCH   1  10
BRANCH   5  12
ATOM     12  O   UNL     1       5.716   1.197  -1.089  0.00  0.00    +0.000 OA
ATOM     13  H   UNL     1       6.510   0.663  -0.822  0.00  0.00    +0.000 HD
ENDBRANCH   5  12
BRANCH   6  14
ATOM     14  O   UNL     1       3.714   1.079  -3.131  0.00  0.00    +0.000 OA
ATOM     15  H   UNL     1       3.862   0.168  -3.495  0.00  0.00    +0.000 HD
ENDBRANCH   6  14
BRANCH   2  16
ATOM     16  O   UNL     1       0.801  -0.979   0.162  0.00  0.00    +0.000 OA
BRANCH  16  17
ATOM     17  C   UNL     1      -0.558  -0.622   0.134  0.00  0.00    +0.000 A 
ATOM     18  C   UNL     1      -1.007   0.710   0.236  0.00  0.00    +0.000 A 
ATOM     19  C   UNL     1      -2.372   1.004   0.180  0.00  0.00    +0.000 A 
ATOM     20  C   UNL     1      -3.319  -0.027   0.027  0.00  0.00    +0.000 A 
ATOM     21  C   UNL     1      -4.709   0.216  -0.046  0.00  0.00    +0.000 A 
ATOM     22  C   UNL     1      -5.283   1.607   0.030  0.00  0.00    +0.000 C 
ATOM     23  C   UNL     1      -5.574  -0.877  -0.196  0.00  0.00    +0.000 A 
ATOM     24  C   UNL     1      -5.045  -2.167  -0.269  0.00  0.00    +0.000 A 
ATOM     25  O   UNL     1      -5.814  -3.155  -0.403  0.00  0.00    +0.000 OA
ATOM     26  O   UNL     1      -3.733  -2.362  -0.199  0.00  0.00    +0.000 OA
ATOM     27  C   UNL     1      -2.866  -1.364  -0.058  0.00  0.00    +0.000 A 
ATOM     28  C   UNL     1      -1.499  -1.648   0.003  0.00  0.00    +0.000 A 
ENDBRANCH  16  17
ENDBRANCH   2  16
BRANCH   4  29
ATOM     29  C   UNL     1       4.172   1.297   1.389  0.00  0.00    +0.000 C 
BRANCH  29  30
ATOM     30  O   UNL     1       5.468   1.730   1.715  0.00  0.00    +0.000 OA
ATOM     31  H   UNL     1       5.650   2.546   1.181  0.00  0.00    +0.000 HD
ENDBRANCH  29  30
ENDBRANCH   4  29
TORSDOF 7
