REMARK  Name = ZINC000004027857
REMARK  5 active torsions:
REMARK  status: ('A' for Active; 'I' for Inactive)
REMARK    1  A    between atoms: C_1  and  C_2
REMARK    2  A    between atoms: N_4  and  C_5
REMARK    3  A    between atoms: C_6  and  O_7
REMARK    4  A    between atoms: C_10  and  C_11
REMARK    5  A    between atoms: C_21  and  O_22
REMARK                            x       y       z     vdW  Elec       q    Type
REMARK                         _______ _______ _______ _____ _____    ______ ____
ROOT
ATOM      1  C   UNL     1      -0.619   1.093   1.725  0.00  0.00    +0.000 C 
ATOM      2  C   UNL     1       0.145   1.294   0.396  0.00  0.00    +0.000 C 
ATOM      3  C   UNL     1      -0.238   0.177  -0.583  0.00  0.00    +0.000 C 
ATOM      4  O   UNL     1       0.358   0.408  -1.847  0.00  0.00    +0.000 OA
ATOM      5  C   UNL     1      -0.196  -0.415  -2.874  0.00  0.00    +0.000 C 
ATOM      6  O   UNL     1      -0.962  -1.504  -2.373  0.00  0.00    +0.000 OA
ATOM      7  C   UNL     1      -2.113  -1.023  -1.703  0.00  0.00    +0.000 C 
ATOM      8  C   UNL     1      -1.771   0.094  -0.700  0.00  0.00    +0.000 C 
ATOM      9  O   UNL     1      -2.349  -0.181   0.565  0.00  0.00    +0.000 OA
ATOM     10  C   UNL     1      -2.131   0.907   1.450  0.00  0.00    +0.000 C 
ENDROOT
BRANCH   5  11
ATOM     11  C   UNL     1       0.931  -0.968  -3.704  0.00  0.00    +0.000 A 
ATOM     12  C   UNL     1       0.995  -0.723  -5.087  0.00  0.00    +0.000 A 
ATOM     13  C   UNL     1       2.043  -1.249  -5.848  0.00  0.00    +0.000 A 
ATOM     14  C   UNL     1       3.033  -2.024  -5.238  0.00  0.00    +0.000 A 
ATOM     15  C   UNL     1       2.975  -2.276  -3.865  0.00  0.00    +0.000 A 
ATOM     16  C   UNL     1       1.928  -1.753  -3.099  0.00  0.00    +0.000 A 
ENDBRANCH   5  11
BRANCH   1  20
ATOM     17  C   UNL     1       1.040   3.607   4.203  0.00  0.00    +0.000 C 
ATOM     18  C   UNL     1       0.853   2.417   3.320  0.00  0.00    +0.000 C 
ATOM     19  O   UNL     1       1.781   1.569   3.213  0.00  0.00    +0.000 OA
ATOM     20  N   UNL     1      -0.390   2.226   2.630  0.00  0.00    +0.000 N 
ATOM     21  H   UNL     1      -1.158   2.914   2.799  0.00  0.00    +0.000 HD
ENDBRANCH   1  20
BRANCH   2  22
ATOM     22  O   UNL     1      -0.165   2.545  -0.169  0.00  0.00    +0.000 OA
ATOM     23  H   UNL     1       0.430   3.213   0.262  0.00  0.00    +0.000 HD
ENDBRANCH   2  22
BRANCH  10  24
ATOM     24  O   UNL     1      -2.781   0.639   2.663  0.00  0.00    +0.000 OA
ATOM     25  H   UNL     1      -3.754   0.637   2.465  0.00  0.00    +0.000 HD
ENDBRANCH  10  24
TORSDOF 4
