REMARK  Name = 24154
REMARK  6 active torsions:
REMARK  status: ('A' for Active; 'I' for Inactive)
REMARK    1  A    between atoms: N_1  and  C_2
REMARK    2  A    between atoms: C_3  and  O_4
REMARK    3  A    between atoms: C_6  and  C_7
REMARK    4  A    between atoms: C_7  and  O_8
REMARK    5  A    between atoms: C_9  and  O_10
REMARK    6  A    between atoms: C_11  and  O_12
REMARK                            x       y       z     vdW  Elec       q    Type
REMARK                         _______ _______ _______ _____ _____    ______ ____
ROOT
ATOM      1  C   UNL     1       0.835  -0.350  -1.931  0.00  0.00    +0.000 C 
ATOM      2  C   UNL     1      -0.177  -1.350  -1.321  0.00  0.00    +0.000 C 
ATOM      3  O   UNL     1      -1.179  -0.680  -0.567  0.00  0.00    +0.000 OA
ATOM      4  C   UNL     1      -0.617   0.033   0.526  0.00  0.00    +0.000 C 
ATOM      5  C   UNL     1       0.310   1.160   0.024  0.00  0.00    +0.000 C 
ATOM      6  C   UNL     1       1.438   0.544  -0.827  0.00  0.00    +0.000 C 
ENDROOT
BRANCH   1   7
ATOM      7  N   UNL     1       1.889  -1.054  -2.674  0.00  0.00    +0.000 N 
ATOM      8  H   UNL     1       2.478  -1.631  -2.030  0.00  0.00    +0.000 HD
ATOM      9  H   UNL     1       2.500  -0.362  -3.166  0.00  0.00    +0.000 HD
ATOM     10  H   UNL     1       1.459  -1.677  -3.396  0.00  0.00    +0.000 HD
ENDBRANCH   1   7
BRANCH   2  11
ATOM     11  O   UNL     1       0.476  -2.323  -0.543  0.00  0.00    +0.000 OA
ATOM     12  H   UNL     1      -0.217  -2.985  -0.284  0.00  0.00    +0.000 HD
ENDBRANCH   2  11
BRANCH   5  13
ATOM     13  O   UNL     1      -0.429   2.082  -0.739  0.00  0.00    +0.000 OA
ATOM     14  H   UNL     1       0.066   2.942  -0.713  0.00  0.00    +0.000 HD
ENDBRANCH   5  13
BRANCH   6  15
ATOM     15  O   UNL     1       2.217   1.557  -1.409  0.00  0.00    +0.000 OA
ATOM     16  H   UNL     1       2.771   1.945  -0.682  0.00  0.00    +0.000 HD
ENDBRANCH   6  15
BRANCH   4  17
ATOM     17  C   UNL     1      -1.754   0.600   1.388  0.00  0.00    +0.000 C 
BRANCH  17  18
ATOM     18  O   UNL     1      -2.551  -0.439   1.891  0.00  0.00    +0.000 OA
ATOM     19  H   UNL     1      -2.042  -0.852   2.637  0.00  0.00    +0.000 HD
ENDBRANCH  17  18
ENDBRANCH   4  17
TORSDOF 6
