REMARK  Name = 122253
REMARK  9 active torsions:
REMARK  status: ('A' for Active; 'I' for Inactive)
REMARK    1  A    between atoms: C_1  and  C_2
REMARK    2  A    between atoms: N_4  and  C_5
REMARK    3  A    between atoms: C_6  and  O_7
REMARK    4  A    between atoms: O_7  and  C_8
REMARK    5  A    between atoms: C_8  and  C_9
REMARK    6  A    between atoms: C_16  and  C_17
REMARK    7  A    between atoms: C_17  and  O_18
REMARK    8  A    between atoms: C_19  and  O_20
REMARK    9  A    between atoms: C_21  and  O_22
REMARK                            x       y       z     vdW  Elec       q    Type
REMARK                         _______ _______ _______ _____ _____    ______ ____
ROOT
ATOM      1  C   UNL     1       1.961  -0.107  -0.195  0.00  0.00    +0.000 C 
ATOM      2  C   UNL     1       0.632   0.250   0.509  0.00  0.00    +0.000 C 
ATOM      3  O   UNL     1       0.569  -0.324   1.809  0.00  0.00    +0.000 OA
ATOM      4  C   UNL     1       0.623  -1.742   1.756  0.00  0.00    +0.000 C 
ATOM      5  C   UNL     1       1.979  -2.219   1.188  0.00  0.00    +0.000 C 
ATOM      6  C   UNL     1       2.164  -1.638  -0.221  0.00  0.00    +0.000 C 
ENDROOT
BRANCH   1  10
ATOM      7  C   UNL     1       2.145   2.341  -3.225  0.00  0.00    +0.000 C 
ATOM      8  C   UNL     1       2.196   1.834  -1.822  0.00  0.00    +0.000 C 
ATOM      9  O   UNL     1       2.464   2.629  -0.882  0.00  0.00    +0.000 OA
ATOM     10  N   UNL     1       1.972   0.442  -1.556  0.00  0.00    +0.000 N 
ATOM     11  H   UNL     1       1.794  -0.191  -2.369  0.00  0.00    +0.000 HD
ENDBRANCH   1  10
BRANCH   5  12
ATOM     12  O   UNL     1       3.037  -1.793   2.012  0.00  0.00    +0.000 OA
ATOM     13  H   UNL     1       3.289  -2.561   2.589  0.00  0.00    +0.000 HD
ENDBRANCH   5  12
BRANCH   6  14
ATOM     14  O   UNL     1       3.452  -1.952  -0.685  0.00  0.00    +0.000 OA
ATOM     15  H   UNL     1       3.424  -1.908  -1.677  0.00  0.00    +0.000 HD
ENDBRANCH   6  14
BRANCH   2  16
ATOM     16  O   UNL     1      -0.466  -0.156  -0.293  0.00  0.00    +0.000 OA
BRANCH  16  17
ATOM     17  C   UNL     1      -1.651   0.479   0.137  0.00  0.00    +0.000 C 
BRANCH  17  18
ATOM     18  C   UNL     1      -2.806  -0.095  -0.629  0.00  0.00    +0.000 A 
ATOM     19  C   UNL     1      -3.452  -1.255  -0.170  0.00  0.00    +0.000 A 
ATOM     20  C   UNL     1      -4.497  -1.817  -0.910  0.00  0.00    +0.000 A 
ATOM     21  C   UNL     1      -4.894  -1.235  -2.116  0.00  0.00    +0.000 A 
ATOM     22  C   UNL     1      -4.242  -0.094  -2.589  0.00  0.00    +0.000 A 
ATOM     23  C   UNL     1      -3.196   0.472  -1.853  0.00  0.00    +0.000 A 
ENDBRANCH  17  18
ENDBRANCH  16  17
ENDBRANCH   2  16
BRANCH   4  24
ATOM     24  C   UNL     1       0.349  -2.315   3.156  0.00  0.00    +0.000 C 
BRANCH  24  25
ATOM     25  O   UNL     1       1.213  -1.765   4.115  0.00  0.00    +0.000 OA
ATOM     26  H   UNL     1       0.830  -0.886   4.377  0.00  0.00    +0.000 HD
ENDBRANCH  24  25
ENDBRANCH   4  24
TORSDOF 8
