REMARK  Name = 57339290
REMARK  11 active torsions:
REMARK  status: ('A' for Active; 'I' for Inactive)
REMARK    1  A    between atoms: C_1  and  C_2
REMARK    2  A    between atoms: N_4  and  C_5
REMARK    3  A    between atoms: C_6  and  O_7
REMARK    4  A    between atoms: O_7  and  C_8
REMARK    5  A    between atoms: C_8  and  C_9
REMARK    6  A    between atoms: C_8  and  C_13
REMARK    7  A    between atoms: C_9  and  C_10
REMARK    8  A    between atoms: C_17  and  C_18
REMARK    9  A    between atoms: C_18  and  O_19
REMARK   10  A    between atoms: C_20  and  O_21
REMARK   11  A    between atoms: C_22  and  O_23
REMARK                            x       y       z     vdW  Elec       q    Type
REMARK                         _______ _______ _______ _____ _____    ______ ____
ROOT
ATOM      1  C   UNL     1      -0.442   0.503   0.680  0.00  0.00    +0.000 C 
ATOM      2  C   UNL     1       0.258   0.206  -0.659  0.00  0.00    +0.000 C 
ATOM      3  O   UNL     1       0.106  -1.162  -1.013  0.00  0.00    +0.000 OA
ATOM      4  C   UNL     1      -1.251  -1.520  -1.238  0.00  0.00    +0.000 C 
ATOM      5  C   UNL     1      -2.153  -1.246  -0.003  0.00  0.00    +0.000 C 
ATOM      6  C   UNL     1      -1.941   0.172   0.572  0.00  0.00    +0.000 C 
ENDROOT
BRANCH   1  10
ATOM      7  C   UNL     1       0.637  -0.731   4.220  0.00  0.00    +0.000 C 
ATOM      8  C   UNL     1       0.010   0.103   3.151  0.00  0.00    +0.000 C 
ATOM      9  O   UNL     1      -0.667   1.118   3.469  0.00  0.00    +0.000 OA
ATOM     10  N   UNL     1       0.180  -0.256   1.774  0.00  0.00    +0.000 N 
ATOM     11  H   UNL     1       0.793  -1.074   1.552  0.00  0.00    +0.000 HD
ENDBRANCH   1  10
BRANCH   5  12
ATOM     12  O   UNL     1      -1.869  -2.187   1.002  0.00  0.00    +0.000 OA
ATOM     13  H   UNL     1      -2.317  -3.034   0.742  0.00  0.00    +0.000 HD
ENDBRANCH   5  12
BRANCH   6  14
ATOM     14  O   UNL     1      -2.573   1.132  -0.237  0.00  0.00    +0.000 OA
ATOM     15  H   UNL     1      -3.548   1.056  -0.068  0.00  0.00    +0.000 HD
ENDBRANCH   6  14
BRANCH   2  16
ATOM     16  O   UNL     1       1.633   0.509  -0.520  0.00  0.00    +0.000 OA
BRANCH  16  17
ATOM     17  C   UNL     1       2.323   0.388  -1.756  0.00  0.00    +0.000 C 
BRANCH  17  18
ATOM     18  C   UNL     1       3.185  -0.841  -1.719  0.00  0.00    +0.000 C 
ATOM     19  O   UNL     1       3.856  -1.119  -0.689  0.00  0.00    +0.000 OA
ATOM     20  O   UNL     1       3.278  -1.657  -2.839  0.00  0.00    +0.000 OA
ENDBRANCH  17  18
BRANCH  17  21
ATOM     21  C   UNL     1       3.202   1.627  -1.965  0.00  0.00    +0.000 C 
BRANCH  21  22
ATOM     22  C   UNL     1       2.360   2.858  -2.100  0.00  0.00    +0.000 C 
ATOM     23  O   UNL     1       2.081   3.550  -1.085  0.00  0.00    +0.000 OA
ATOM     24  O   UNL     1       1.843   3.214  -3.339  0.00  0.00    +0.000 OA
ENDBRANCH  21  22
ENDBRANCH  17  21
ENDBRANCH  16  17
ENDBRANCH   2  16
BRANCH   4  25
ATOM     25  C   UNL     1      -1.800  -0.942  -2.559  0.00  0.00    +0.000 C 
BRANCH  25  26
ATOM     26  O   UNL     1      -2.970  -1.620  -2.926  0.00  0.00    +0.000 OA
ATOM     27  H   UNL     1      -3.265  -1.217  -3.784  0.00  0.00    +0.000 HD
ENDBRANCH  25  26
ENDBRANCH   4  25
TORSDOF 10
