REMARK  Name = 112106
REMARK  8 active torsions:
REMARK  status: ('A' for Active; 'I' for Inactive)
REMARK    1  A    between atoms: C_1  and  C_2
REMARK    2  A    between atoms: N_4  and  C_5
REMARK    3  A    between atoms: C_6  and  O_7
REMARK    4  A    between atoms: O_7  and  C_8
REMARK    5  A    between atoms: C_19  and  C_20
REMARK    6  A    between atoms: C_20  and  O_21
REMARK    7  A    between atoms: C_22  and  O_23
REMARK    8  A    between atoms: C_24  and  O_25
REMARK                            x       y       z     vdW  Elec       q    Type
REMARK                         _______ _______ _______ _____ _____    ______ ____
ROOT
ATOM      1  C   UNL     1      -1.315   1.312  -1.526  0.00  0.00    +0.000 C 
ATOM      2  C   UNL     1      -0.530   0.151  -0.891  0.00  0.00    +0.000 C 
ATOM      3  O   UNL     1       0.842   0.249  -1.233  0.00  0.00    +0.000 OA
ATOM      4  C   UNL     1       1.025   0.053  -2.626  0.00  0.00    +0.000 C 
ATOM      5  C   UNL     1       0.354   1.199  -3.426  0.00  0.00    +0.000 C 
ATOM      6  C   UNL     1      -1.140   1.273  -3.057  0.00  0.00    +0.000 C 
ENDROOT
BRANCH   1  10
ATOM      7  C   UNL     1      -4.730   1.661   0.319  0.00  0.00    +0.000 C 
ATOM      8  C   UNL     1      -3.328   1.953  -0.106  0.00  0.00    +0.000 C 
ATOM      9  O   UNL     1      -2.686   2.875   0.465  0.00  0.00    +0.000 OA
ATOM     10  N   UNL     1      -2.736   1.205  -1.177  0.00  0.00    +0.000 N 
ATOM     11  H   UNL     1      -3.300   0.442  -1.617  0.00  0.00    +0.000 HD
ENDBRANCH   1  10
BRANCH   5  12
ATOM     12  O   UNL     1       0.470   0.965  -4.807  0.00  0.00    +0.000 OA
ATOM     13  H   UNL     1       1.291   1.431  -5.114  0.00  0.00    +0.000 HD
ENDBRANCH   5  12
BRANCH   6  14
ATOM     14  O   UNL     1      -1.753   2.384  -3.663  0.00  0.00    +0.000 OA
ATOM     15  H   UNL     1      -1.315   3.202  -3.308  0.00  0.00    +0.000 HD
ENDBRANCH   6  14
BRANCH   2  16
ATOM     16  O   UNL     1      -0.662   0.231   0.527  0.00  0.00    +0.000 OA
BRANCH  16  17
ATOM     17  C   UNL     1      -0.199  -0.732   1.441  0.00  0.00    +0.000 A 
ATOM     18  C   UNL     1       0.481  -1.891   1.016  0.00  0.00    +0.000 A 
ATOM     19  C   UNL     1       0.932  -2.831   1.945  0.00  0.00    +0.000 A 
ATOM     20  C   UNL     1       0.713  -2.636   3.308  0.00  0.00    +0.000 A 
ATOM     21  C   UNL     1       0.036  -1.494   3.756  0.00  0.00    +0.000 A 
ATOM     22  C   UNL     1      -0.190  -1.297   5.128  0.00  0.00    +0.000 A 
ATOM     23  C   UNL     1      -0.866  -0.160   5.573  0.00  0.00    +0.000 A 
ATOM     24  C   UNL     1      -1.322   0.789   4.656  0.00  0.00    +0.000 A 
ATOM     25  C   UNL     1      -1.105   0.608   3.287  0.00  0.00    +0.000 A 
ATOM     26  C   UNL     1      -0.424  -0.533   2.820  0.00  0.00    +0.000 A 
ENDBRANCH  16  17
ENDBRANCH   2  16
BRANCH   4  27
ATOM     27  C   UNL     1       2.532  -0.038  -2.914  0.00  0.00    +0.000 C 
BRANCH  27  28
ATOM     28  O   UNL     1       3.184   1.163  -2.598  0.00  0.00    +0.000 OA
ATOM     29  H   UNL     1       3.298   1.176  -1.612  0.00  0.00    +0.000 HD
ENDBRANCH  27  28
ENDBRANCH   4  27
TORSDOF 7
