REMARK  Name = 433580
REMARK  9 active torsions:
REMARK  status: ('A' for Active; 'I' for Inactive)
REMARK    1  A    between atoms: C_1  and  C_2
REMARK    2  A    between atoms: C_2  and  O_3
REMARK    3  A    between atoms: C_2  and  C_15
REMARK    4  A    between atoms: O_3  and  C_4
REMARK    5  A    between atoms: C_5  and  N_6
REMARK    6  A    between atoms: C_7  and  O_8
REMARK    7  A    between atoms: C_10  and  C_11
REMARK    8  A    between atoms: C_11  and  O_12
REMARK    9  A    between atoms: C_13  and  O_14
REMARK                            x       y       z     vdW  Elec       q    Type
REMARK                         _______ _______ _______ _____ _____    ______ ____
ROOT
ATOM      1  C   UNL     1       0.482  -0.983   0.041  0.00  0.00    +0.000 C 
ATOM      2  C   UNL     1       1.691  -0.617   0.923  0.00  0.00    +0.000 C 
ATOM      3  C   UNL     1       2.386   0.662   0.394  0.00  0.00    +0.000 C 
ATOM      4  O   UNL     1       1.469   1.738   0.270  0.00  0.00    +0.000 OA
ATOM      5  C   UNL     1       0.432   1.443  -0.655  0.00  0.00    +0.000 C 
ATOM      6  C   UNL     1      -0.422   0.247  -0.173  0.00  0.00    +0.000 C 
ENDROOT
BRANCH   2   7
ATOM      7  N   UNL     1       1.286  -0.458   2.325  0.00  0.00    +0.000 NA
ATOM      8  H   UNL     1       0.776   0.446   2.451  0.00  0.00    +0.000 HD
ATOM      9  H   UNL     1       2.149  -0.406   2.915  0.00  0.00    +0.000 HD
ENDBRANCH   2   7
BRANCH   3  10
ATOM     10  O   UNL     1       3.032   0.420  -0.833  0.00  0.00    +0.000 OA
ATOM     11  H   UNL     1       3.828  -0.140  -0.634  0.00  0.00    +0.000 HD
ENDBRANCH   3  10
BRANCH   6  12
ATOM     12  O   UNL     1      -1.400  -0.048  -1.137  0.00  0.00    +0.000 OA
ATOM     13  H   UNL     1      -2.135  -0.523  -0.668  0.00  0.00    +0.000 HD
ENDBRANCH   6  12
BRANCH   1  14
ATOM     14  O   UNL     1      -0.259  -2.017   0.675  0.00  0.00    +0.000 OA
BRANCH  14  16
ATOM     15  C   UNL     1       0.610  -4.082  -0.236  0.00  0.00    +0.000 C 
ATOM     16  C   UNL     1      -0.554  -3.088  -0.205  0.00  0.00    +0.000 C 
BRANCH  16  17
ATOM     17  C   UNL     1      -1.787  -3.782   0.290  0.00  0.00    +0.000 C 
ATOM     18  O   UNL     1      -2.668  -4.166  -0.524  0.00  0.00    +0.000 OA
ATOM     19  O   UNL     1      -1.944  -4.045   1.645  0.00  0.00    +0.000 OA
ENDBRANCH  16  17
ENDBRANCH  14  16
ENDBRANCH   1  14
BRANCH   5  20
ATOM     20  C   UNL     1      -0.423   2.706  -0.845  0.00  0.00    +0.000 C 
BRANCH  20  21
ATOM     21  O   UNL     1      -0.943   3.151   0.381  0.00  0.00    +0.000 OA
ATOM     22  H   UNL     1      -1.843   2.743   0.478  0.00  0.00    +0.000 HD
ENDBRANCH  20  21
ENDBRANCH   5  20
TORSDOF 8
