REMARK  Name = 29327
REMARK  8 active torsions:
REMARK  status: ('A' for Active; 'I' for Inactive)
REMARK    1  A    between atoms: C_1  and  N_2
REMARK    2  A    between atoms: N_2  and  N_3
REMARK    3  A    between atoms: N_7  and  C_8
REMARK    4  A    between atoms: C_9  and  O_10
REMARK    5  A    between atoms: C_12  and  C_13
REMARK    6  A    between atoms: C_13  and  O_14
REMARK    7  A    between atoms: C_15  and  O_16
REMARK    8  A    between atoms: C_17  and  O_18
REMARK                            x       y       z     vdW  Elec       q    Type
REMARK                         _______ _______ _______ _____ _____    ______ ____
ROOT
ATOM      1  C   UNL     1       0.166   0.133   0.207  0.00  0.00    +0.000 C 
ATOM      2  C   UNL     1       0.654   1.319  -0.649  0.00  0.00    +0.000 C 
ATOM      3  O   UNL     1       0.024   1.319  -1.922  0.00  0.00    +0.000 OA
ATOM      4  C   UNL     1       0.347   0.155  -2.672  0.00  0.00    +0.000 C 
ATOM      5  C   UNL     1      -0.177  -1.117  -1.959  0.00  0.00    +0.000 C 
ATOM      6  C   UNL     1       0.410  -1.191  -0.539  0.00  0.00    +0.000 C 
ENDROOT
BRANCH   1  11
ATOM      7  C   UNL     1       0.172  -0.422   5.247  0.00  0.00    +0.000 C 
ATOM      8  N   UNL     1       0.882  -0.182   3.987  0.00  0.00    +0.000 N 
ATOM      9  C   UNL     1       0.157  -0.125   2.744  0.00  0.00    +0.000 C 
ATOM     10  O   UNL     1      -1.094  -0.291   2.741  0.00  0.00    +0.000 OA
ATOM     11  N   UNL     1       0.848   0.118   1.506  0.00  0.00    +0.000 N 
ATOM     12  H   UNL     1       1.891   0.164   1.513  0.00  0.00    +0.000 HD
BRANCH   8  13
ATOM     13  N   UNL     1       2.288  -0.151   3.962  0.00  0.00    +0.000 NA
ATOM     14  O   UNL     1       2.966  -0.292   5.001  0.00  0.00    +0.000 OA
ENDBRANCH   8  13
ENDBRANCH   1  11
BRANCH   2  15
ATOM     15  O   UNL     1       2.055   1.317  -0.775  0.00  0.00    +0.000 OA
ATOM     16  H   UNL     1       2.295   2.163  -1.235  0.00  0.00    +0.000 HD
ENDBRANCH   2  15
BRANCH   5  17
ATOM     17  O   UNL     1       0.209  -2.270  -2.666  0.00  0.00    +0.000 OA
ATOM     18  H   UNL     1      -0.571  -2.555  -3.211  0.00  0.00    +0.000 HD
ENDBRANCH   5  17
BRANCH   6  19
ATOM     19  O   UNL     1      -0.132  -2.277   0.171  0.00  0.00    +0.000 OA
ATOM     20  H   UNL     1      -1.111  -2.129   0.252  0.00  0.00    +0.000 HD
ENDBRANCH   6  19
BRANCH   4  21
ATOM     21  C   UNL     1      -0.274   0.313  -4.071  0.00  0.00    +0.000 C 
BRANCH  21  22
ATOM     22  O   UNL     1       0.200  -0.669  -4.953  0.00  0.00    +0.000 OA
ATOM     23  H   UNL     1       1.123  -0.405  -5.204  0.00  0.00    +0.000 HD
ENDBRANCH  21  22
ENDBRANCH   4  21
TORSDOF 7
