REMARK  Name = 24154
REMARK  6 active torsions:
REMARK  status: ('A' for Active; 'I' for Inactive)
REMARK    1  A    between atoms: N_1  and  C_2
REMARK    2  A    between atoms: C_3  and  O_4
REMARK    3  A    between atoms: C_6  and  C_7
REMARK    4  A    between atoms: C_7  and  O_8
REMARK    5  A    between atoms: C_9  and  O_10
REMARK    6  A    between atoms: C_11  and  O_12
REMARK                            x       y       z     vdW  Elec       q    Type
REMARK                         _______ _______ _______ _____ _____    ______ ____
ROOT
ATOM      1  C   UNL     1      -0.221  -0.817  -1.094  0.00  0.00    +0.000 C 
ATOM      2  C   UNL     1      -0.663  -0.483   0.353  0.00  0.00    +0.000 C 
ATOM      3  O   UNL     1      -0.247   0.824   0.716  0.00  0.00    +0.000 OA
ATOM      4  C   UNL     1       1.168   0.903   0.748  0.00  0.00    +0.000 C 
ATOM      5  C   UNL     1       1.741   0.731  -0.674  0.00  0.00    +0.000 C 
ATOM      6  C   UNL     1       1.311  -0.640  -1.226  0.00  0.00    +0.000 C 
ENDROOT
BRANCH   1   7
ATOM      7  N   UNL     1      -0.620  -2.185  -1.456  0.00  0.00    +0.000 N 
ATOM      8  H   UNL     1      -0.362  -2.382  -2.450  0.00  0.00    +0.000 HD
ATOM      9  H   UNL     1      -0.152  -2.882  -0.833  0.00  0.00    +0.000 HD
ATOM     10  H   UNL     1      -1.657  -2.292  -1.372  0.00  0.00    +0.000 HD
ENDBRANCH   1   7
BRANCH   2  11
ATOM     11  O   UNL     1      -2.062  -0.544   0.432  0.00  0.00    +0.000 OA
ATOM     12  H   UNL     1      -2.294  -0.441   1.391  0.00  0.00    +0.000 HD
ENDBRANCH   2  11
BRANCH   5  13
ATOM     13  O   UNL     1       1.267   1.761  -1.506  0.00  0.00    +0.000 OA
ATOM     14  H   UNL     1       1.927   1.868  -2.240  0.00  0.00    +0.000 HD
ENDBRANCH   5  13
BRANCH   6  15
ATOM     15  O   UNL     1       1.701  -0.744  -2.573  0.00  0.00    +0.000 OA
ATOM     16  H   UNL     1       1.932  -1.695  -2.740  0.00  0.00    +0.000 HD
ENDBRANCH   6  15
BRANCH   4  17
ATOM     17  C   UNL     1       1.581   2.255   1.349  0.00  0.00    +0.000 C 
BRANCH  17  18
ATOM     18  O   UNL     1       1.101   2.373   2.661  0.00  0.00    +0.000 OA
ATOM     19  H   UNL     1       1.692   1.815   3.232  0.00  0.00    +0.000 HD
ENDBRANCH  17  18
ENDBRANCH   4  17
TORSDOF 6
