REMARK  Name = 739
REMARK  6 active torsions:
REMARK  status: ('A' for Active; 'I' for Inactive)
REMARK    1  A    between atoms: N_1  and  C_2
REMARK    2  A    between atoms: C_3  and  O_4
REMARK    3  A    between atoms: C_6  and  C_7
REMARK    4  A    between atoms: C_7  and  O_8
REMARK    5  A    between atoms: C_9  and  O_10
REMARK    6  A    between atoms: C_11  and  O_12
REMARK                            x       y       z     vdW  Elec       q    Type
REMARK                         _______ _______ _______ _____ _____    ______ ____
ROOT
ATOM      1  C   UNL     1       0.409   0.255  -0.963  0.00  0.00    +0.000 C 
ATOM      2  C   UNL     1      -0.889  -0.507  -1.307  0.00  0.00    +0.000 C 
ATOM      3  O   UNL     1      -1.240  -1.421  -0.278  0.00  0.00    +0.000 OA
ATOM      4  C   UNL     1      -1.492  -0.778   0.965  0.00  0.00    +0.000 C 
ATOM      5  C   UNL     1      -0.260   0.023   1.454  0.00  0.00    +0.000 C 
ATOM      6  C   UNL     1       0.236   0.997   0.374  0.00  0.00    +0.000 C 
ENDROOT
BRANCH   1   7
ATOM      7  N   UNL     1       0.728   1.212  -2.027  0.00  0.00    +0.000 NA
ATOM      8  H   UNL     1       1.629   1.688  -1.790  0.00  0.00    +0.000 HD
ATOM      9  H   UNL     1       0.920   0.681  -2.908  0.00  0.00    +0.000 HD
ENDBRANCH   1   7
BRANCH   2  10
ATOM     10  O   UNL     1      -0.691  -1.232  -2.491  0.00  0.00    +0.000 OA
ATOM     11  H   UNL     1      -1.574  -1.610  -2.742  0.00  0.00    +0.000 HD
ENDBRANCH   2  10
BRANCH   5  12
ATOM     12  O   UNL     1      -0.559   0.732   2.629  0.00  0.00    +0.000 OA
ATOM     13  H   UNL     1      -0.620   0.062   3.359  0.00  0.00    +0.000 HD
ENDBRANCH   5  12
BRANCH   6  14
ATOM     14  O   UNL     1       1.470   1.545   0.765  0.00  0.00    +0.000 OA
ATOM     15  H   UNL     1       1.271   2.272   1.412  0.00  0.00    +0.000 HD
ENDBRANCH   6  14
BRANCH   4  16
ATOM     16  C   UNL     1      -2.810   0.030   0.962  0.00  0.00    +0.000 C 
BRANCH  16  17
ATOM     17  O   UNL     1      -3.844  -0.716   0.379  0.00  0.00    +0.000 OA
ATOM     18  H   UNL     1      -4.096  -1.415   1.038  0.00  0.00    +0.000 HD
ENDBRANCH  16  17
ENDBRANCH   4  16
TORSDOF 6
