REMARK  Name = 112106
REMARK  9 active torsions:
REMARK  status: ('A' for Active; 'I' for Inactive)
REMARK    1  A    between atoms: O_2  and  C_3
REMARK    2  A    between atoms: C_3  and  C_43
REMARK    3  A    between atoms: N_4  and  C_5
REMARK    4  A    between atoms: C_7  and  O_9
REMARK    5  A    between atoms: O_9  and  C_10
REMARK    6  A    between atoms: C_28  and  C_30
REMARK    7  A    between atoms: C_30  and  O_33
REMARK    8  A    between atoms: C_35  and  O_37
REMARK    9  A    between atoms: C_39  and  O_41
REMARK                            x       y       z     vdW  Elec       q    Type
REMARK                         _______ _______ _______ _____ _____    ______ ____
ROOT
ATOM      1  C   UNL     1      -1.733  -0.700   0.163  0.00  0.00    +0.000 C 
ATOM      2  C   UNL     1      -0.648   0.256  -0.362  0.00  0.00    +0.000 C 
ATOM      3  O   UNL     1      -0.836   1.551   0.178  0.00  0.00    +0.000 OA
ATOM      4  C   UNL     1      -2.039   2.122  -0.309  0.00  0.00    +0.000 C 
ATOM      5  C   UNL     1      -3.261   1.314   0.193  0.00  0.00    +0.000 C 
ATOM      6  C   UNL     1      -3.120  -0.158  -0.236  0.00  0.00    +0.000 C 
ENDROOT
BRANCH   1   8
ATOM      7  C   UNL     1      -1.894  -3.173   0.072  0.00  0.00    +0.000 C 
ATOM      8  N   UNL     1      -1.516  -2.027  -0.419  0.00  0.00    +0.000 NA
ATOM      9  C   UNL     1      -1.581  -4.418  -0.688  0.00  0.00    +0.000 C 
BRANCH   7  11
ATOM     10  H   UNL     1      -2.778  -2.499   1.893  0.00  0.00    +0.000 HD
ATOM     11  O   UNL     1      -2.556  -3.285   1.299  0.00  0.00    +0.000 OA
ENDBRANCH   7  11
ENDBRANCH   1   8
BRANCH   5  12
ATOM     12  O   UNL     1      -4.446   1.838  -0.352  0.00  0.00    +0.000 OA
ATOM     13  H   UNL     1      -4.811   2.484   0.307  0.00  0.00    +0.000 HD
ENDBRANCH   5  12
BRANCH   6  14
ATOM     14  O   UNL     1      -4.125  -0.928   0.372  0.00  0.00    +0.000 OA
ATOM     15  H   UNL     1      -4.955  -0.790  -0.156  0.00  0.00    +0.000 HD
ENDBRANCH   6  14
BRANCH   2  16
ATOM     16  O   UNL     1       0.628  -0.235   0.045  0.00  0.00    +0.000 OA
BRANCH  16  17
ATOM     17  C   UNL     1       1.867   0.307  -0.340  0.00  0.00    +0.000 A 
ATOM     18  C   UNL     1       1.954   1.415  -1.208  0.00  0.00    +0.000 A 
ATOM     19  C   UNL     1       3.197   1.934  -1.573  0.00  0.00    +0.000 A 
ATOM     20  C   UNL     1       4.372   1.363  -1.086  0.00  0.00    +0.000 A 
ATOM     21  C   UNL     1       4.313   0.259  -0.225  0.00  0.00    +0.000 A 
ATOM     22  C   UNL     1       5.494  -0.320   0.266  0.00  0.00    +0.000 A 
ATOM     23  C   UNL     1       5.434  -1.420   1.124  0.00  0.00    +0.000 A 
ATOM     24  C   UNL     1       4.198  -1.951   1.498  0.00  0.00    +0.000 A 
ATOM     25  C   UNL     1       3.014  -1.386   1.018  0.00  0.00    +0.000 A 
ATOM     26  C   UNL     1       3.054  -0.276   0.153  0.00  0.00    +0.000 A 
ENDBRANCH  16  17
ENDBRANCH   2  16
BRANCH   4  27
ATOM     27  C   UNL     1      -2.099   3.586   0.145  0.00  0.00    +0.000 C 
BRANCH  27  28
ATOM     28  O   UNL     1      -2.087   3.666   1.545  0.00  0.00    +0.000 OA
ATOM     29  H   UNL     1      -2.131   4.632   1.766  0.00  0.00    +0.000 HD
ENDBRANCH  27  28
ENDBRANCH   4  27
TORSDOF 8
