REMARK  Name = ZINC000056871016
REMARK  9 active torsions:
REMARK  status: ('A' for Active; 'I' for Inactive)
REMARK    1  A    between atoms: O_2  and  C_3
REMARK    2  A    between atoms: C_3  and  C_30
REMARK    3  A    between atoms: N_4  and  C_5
REMARK    4  A    between atoms: C_7  and  O_9
REMARK    5  A    between atoms: C_11  and  O_13
REMARK    6  A    between atoms: C_15  and  C_17
REMARK    7  A    between atoms: C_17  and  O_20
REMARK    8  A    between atoms: C_23  and  O_25
REMARK    9  A    between atoms: O_25  and  C_26
REMARK                            x       y       z     vdW  Elec       q    Type
REMARK                         _______ _______ _______ _____ _____    ______ ____
ROOT
ATOM      1  C   UNL     1      -0.040   0.122   1.480  0.00  0.00    +0.000 C 
ATOM      2  C   UNL     1       0.156  -1.274   0.851  0.00  0.00    +0.000 C 
ATOM      3  C   UNL     1      -1.110  -1.678   0.072  0.00  0.00    +0.000 C 
ATOM      4  C   UNL     1      -1.523  -0.542  -0.892  0.00  0.00    +0.000 C 
ATOM      5  O   UNL     1      -1.728   0.662  -0.171  0.00  0.00    +0.000 OA
ATOM      6  C   UNL     1      -0.512   1.118   0.403  0.00  0.00    +0.000 C 
ENDROOT
BRANCH   1   8
ATOM      7  C   UNL     1       1.658   0.352   3.271  0.00  0.00    +0.000 C 
ATOM      8  N   UNL     1       1.213   0.605   2.072  0.00  0.00    +0.000 NA
ATOM      9  C   UNL     1       0.888  -0.472   4.261  0.00  0.00    +0.000 C 
BRANCH   7  11
ATOM     10  H   UNL     1       3.437   1.446   3.028  0.00  0.00    +0.000 HD
ATOM     11  O   UNL     1       2.885   0.879   3.661  0.00  0.00    +0.000 OA
ENDBRANCH   7  11
ENDBRANCH   1   8
BRANCH   2  12
ATOM     12  O   UNL     1       1.262  -1.272  -0.019  0.00  0.00    +0.000 OA
ATOM     13  H   UNL     1       2.070  -1.428   0.537  0.00  0.00    +0.000 HD
ENDBRANCH   2  12
BRANCH   3  14
ATOM     14  O   UNL     1      -0.873  -2.859  -0.651  0.00  0.00    +0.000 OA
ATOM     15  H   UNL     1      -0.871  -3.602   0.007  0.00  0.00    +0.000 HD
ENDBRANCH   3  14
BRANCH   6  16
ATOM     16  O   UNL     1      -0.736   2.370   1.024  0.00  0.00    +0.000 OA
ATOM     17  C   UNL     1      -0.832   3.385   0.048  0.00  0.00    +0.000 C 
ENDBRANCH   6  16
BRANCH   4  18
ATOM     18  C   UNL     1      -2.827  -0.896  -1.623  0.00  0.00    +0.000 C 
BRANCH  18  19
ATOM     19  O   UNL     1      -3.209   0.148  -2.476  0.00  0.00    +0.000 OA
ATOM     20  H   UNL     1      -2.608   0.104  -3.266  0.00  0.00    +0.000 HD
ENDBRANCH  18  19
ENDBRANCH   4  18
TORSDOF 7
