REMARK  Name = ZINC000056871016
REMARK  8 active torsions:
REMARK  status: ('A' for Active; 'I' for Inactive)
REMARK    1  A    between atoms: C_1  and  O_2
REMARK    2  A    between atoms: O_2  and  C_3
REMARK    3  A    between atoms: C_5  and  C_6
REMARK    4  A    between atoms: C_6  and  O_7
REMARK    5  A    between atoms: C_8  and  O_9
REMARK    6  A    between atoms: C_10  and  O_11
REMARK    7  A    between atoms: C_12  and  N_13
REMARK    8  A    between atoms: C_14  and  C_15
REMARK                            x       y       z     vdW  Elec       q    Type
REMARK                         _______ _______ _______ _____ _____    ______ ____
ROOT
ATOM      1  C   UNL     1       0.629   0.852   0.335  0.00  0.00    +0.000 C 
ATOM      2  O   UNL     1      -0.377   1.191   1.278  0.00  0.00    +0.000 OA
ATOM      3  C   UNL     1      -1.560   0.446   1.042  0.00  0.00    +0.000 C 
ATOM      4  C   UNL     1      -1.300  -1.057   1.298  0.00  0.00    +0.000 C 
ATOM      5  C   UNL     1      -0.143  -1.553   0.406  0.00  0.00    +0.000 C 
ATOM      6  C   UNL     1       1.069  -0.612   0.547  0.00  0.00    +0.000 C 
ENDROOT
BRANCH   6   7
ATOM      7  N   UNL     1       2.119  -0.984  -0.409  0.00  0.00    +0.000 N 
ATOM      8  C   UNL     1       2.954  -2.134  -0.222  0.00  0.00    +0.000 C 
ATOM      9  C   UNL     1       3.967  -2.494  -1.260  0.00  0.00    +0.000 C 
ATOM     10  O   UNL     1       2.837  -2.850   0.809  0.00  0.00    +0.000 OA
ATOM     11  H   UNL     1       2.290  -0.382  -1.246  0.00  0.00    +0.000 HD
ENDBRANCH   6   7
BRANCH   1  13
ATOM     12  C   UNL     1       1.500   2.976   0.020  0.00  0.00    +0.000 C 
ATOM     13  O   UNL     1       1.752   1.688   0.540  0.00  0.00    +0.000 OA
ENDBRANCH   1  13
BRANCH   4  14
ATOM     14  O   UNL     1      -2.465  -1.798   1.037  0.00  0.00    +0.000 OA
ATOM     15  H   UNL     1      -2.331  -2.694   1.442  0.00  0.00    +0.000 HD
ENDBRANCH   4  14
BRANCH   5  16
ATOM     16  O   UNL     1      -0.550  -1.601  -0.940  0.00  0.00    +0.000 OA
ATOM     17  H   UNL     1      -1.007  -2.472  -1.074  0.00  0.00    +0.000 HD
ENDBRANCH   5  16
BRANCH   3  18
ATOM     18  C   UNL     1      -2.662   0.974   1.972  0.00  0.00    +0.000 C 
BRANCH  18  19
ATOM     19  O   UNL     1      -2.931   2.322   1.693  0.00  0.00    +0.000 OA
ATOM     20  H   UNL     1      -2.238   2.857   2.161  0.00  0.00    +0.000 HD
ENDBRANCH  18  19
ENDBRANCH   3  18
TORSDOF 6
