REMARK  Name = ZINC000101361998
REMARK  12 active torsions:
REMARK  status: ('A' for Active; 'I' for Inactive)
REMARK    1  A    between atoms: O_2  and  C_3
REMARK    2  A    between atoms: C_3  and  O_40
REMARK    3  A    between atoms: N_4  and  C_5
REMARK    4  A    between atoms: C_7  and  O_9
REMARK    5  A    between atoms: C_11  and  O_13
REMARK    6  A    between atoms: C_15  and  C_17
REMARK    7  A    between atoms: C_17  and  O_20
REMARK    8  A    between atoms: C_23  and  O_25
REMARK    9  A    between atoms: O_25  and  C_26
REMARK   10  A    between atoms: C_26  and  C_29
REMARK   11  A    between atoms: O_40  and  C_41
REMARK   12  A    between atoms: C_41  and  C_44
REMARK                            x       y       z     vdW  Elec       q    Type
REMARK                         _______ _______ _______ _____ _____    ______ ____
ROOT
ATOM      1  C   UNL     1       1.858  -0.138  -0.191  0.00  0.00    +0.000 C 
ATOM      2  C   UNL     1       1.913   0.620  -1.530  0.00  0.00    +0.000 C 
ATOM      3  C   UNL     1       1.970  -0.379  -2.702  0.00  0.00    +0.000 C 
ATOM      4  C   UNL     1       0.827  -1.406  -2.561  0.00  0.00    +0.000 C 
ATOM      5  O   UNL     1       0.944  -2.088  -1.325  0.00  0.00    +0.000 OA
ATOM      6  C   UNL     1       0.737  -1.206  -0.233  0.00  0.00    +0.000 C 
ENDROOT
BRANCH   1   8
ATOM      7  C   UNL     1       1.903   0.633   2.146  0.00  0.00    +0.000 C 
ATOM      8  N   UNL     1       1.625   0.824   0.889  0.00  0.00    +0.000 NA
BRANCH   7  10
ATOM      9  H   UNL     1       2.696  -0.710   3.547  0.00  0.00    +0.000 HD
ATOM     10  O   UNL     1       2.493  -0.555   2.568  0.00  0.00    +0.000 OA
ENDBRANCH   7  10
BRANCH   7  11
ATOM     11  O   UNL     1       1.625   1.625   3.095  0.00  0.00    +0.000 OA
BRANCH  11  12
ATOM     12  C   UNL     1       1.177   2.939   2.763  0.00  0.00    +0.000 C 
BRANCH  12  13
ATOM     13  C   UNL     1      -0.245   2.918   2.269  0.00  0.00    +0.000 A 
ATOM     14  C   UNL     1      -1.299   2.662   3.161  0.00  0.00    +0.000 A 
ATOM     15  C   UNL     1      -2.621   2.656   2.705  0.00  0.00    +0.000 A 
ATOM     16  C   UNL     1      -2.897   2.878   1.353  0.00  0.00    +0.000 A 
ATOM     17  C   UNL     1      -1.853   3.124   0.457  0.00  0.00    +0.000 A 
ATOM     18  C   UNL     1      -0.532   3.153   0.913  0.00  0.00    +0.000 A 
ENDBRANCH  12  13
ENDBRANCH  11  12
ENDBRANCH   7  11
ENDBRANCH   1   8
BRANCH   2  19
ATOM     19  O   UNL     1       0.782   1.448  -1.655  0.00  0.00    +0.000 OA
ATOM     20  H   UNL     1       1.026   2.183  -2.276  0.00  0.00    +0.000 HD
ENDBRANCH   2  19
BRANCH   3  21
ATOM     21  O   UNL     1       1.860   0.303  -3.926  0.00  0.00    +0.000 OA
ATOM     22  H   UNL     1       2.737   0.737  -4.090  0.00  0.00    +0.000 HD
ENDBRANCH   3  21
BRANCH   4  23
ATOM     23  C   UNL     1       0.881  -2.442  -3.694  0.00  0.00    +0.000 C 
BRANCH  23  24
ATOM     24  O   UNL     1      -0.147  -3.384  -3.544  0.00  0.00    +0.000 OA
ATOM     25  H   UNL     1      -0.988  -2.933  -3.821  0.00  0.00    +0.000 HD
ENDBRANCH  23  24
ENDBRANCH   4  23
BRANCH   6  26
ATOM     26  O   UNL     1       0.789  -1.960   0.962  0.00  0.00    +0.000 OA
BRANCH  26  27
ATOM     27  C   UNL     1      -0.416  -2.670   1.171  0.00  0.00    +0.000 C 
BRANCH  27  28
ATOM     28  C   UNL     1      -1.330  -1.881   2.067  0.00  0.00    +0.000 A 
ATOM     29  C   UNL     1      -0.946  -1.603   3.390  0.00  0.00    +0.000 A 
ATOM     30  C   UNL     1      -1.804  -0.897   4.238  0.00  0.00    +0.000 A 
ATOM     31  C   UNL     1      -3.050  -0.467   3.774  0.00  0.00    +0.000 A 
ATOM     32  C   UNL     1      -3.430  -0.721   2.453  0.00  0.00    +0.000 A 
ATOM     33  C   UNL     1      -2.572  -1.422   1.599  0.00  0.00    +0.000 A 
ENDBRANCH  27  28
ENDBRANCH  26  27
ENDBRANCH   6  26
TORSDOF 12
