REMARK  Name = ZINC000019898298
REMARK  9 active torsions:
REMARK  status: ('A' for Active; 'I' for Inactive)
REMARK    1  A    between atoms: O_2  and  C_3
REMARK    2  A    between atoms: C_3  and  C_30
REMARK    3  A    between atoms: N_4  and  C_5
REMARK    4  A    between atoms: C_7  and  O_9
REMARK    5  A    between atoms: C_11  and  O_13
REMARK    6  A    between atoms: C_15  and  C_17
REMARK    7  A    between atoms: C_17  and  O_20
REMARK    8  A    between atoms: C_23  and  O_25
REMARK    9  A    between atoms: O_25  and  C_26
REMARK                            x       y       z     vdW  Elec       q    Type
REMARK                         _______ _______ _______ _____ _____    ______ ____
ROOT
ATOM      1  C   UNL     1       1.855  -0.059   1.082  0.00  0.00    +0.000 C 
ATOM      2  C   UNL     1       2.273   1.151   0.228  0.00  0.00    +0.000 C 
ATOM      3  C   UNL     1       1.600   1.095  -1.153  0.00  0.00    +0.000 C 
ATOM      4  C   UNL     1       1.805  -0.291  -1.815  0.00  0.00    +0.000 C 
ATOM      5  O   UNL     1       1.466  -1.381  -0.962  0.00  0.00    +0.000 OA
ATOM      6  C   UNL     1       2.113  -1.364   0.308  0.00  0.00    +0.000 C 
ENDROOT
BRANCH   1   8
ATOM      7  C   UNL     1      -0.047   0.656   2.463  0.00  0.00    +0.000 C 
ATOM      8  N   UNL     1       0.435   0.009   1.442  0.00  0.00    +0.000 NA
BRANCH   7   9
ATOM      9  C   UNL     1      -1.512   0.653   2.698  0.00  0.00    +0.000 A 
ATOM     10  C   UNL     1      -2.308  -0.397   2.201  0.00  0.00    +0.000 A 
ATOM     11  C   UNL     1      -3.690  -0.401   2.415  0.00  0.00    +0.000 A 
ATOM     12  C   UNL     1      -4.293   0.643   3.119  0.00  0.00    +0.000 A 
ATOM     13  C   UNL     1      -3.516   1.695   3.607  0.00  0.00    +0.000 A 
ATOM     14  C   UNL     1      -2.134   1.705   3.398  0.00  0.00    +0.000 A 
ENDBRANCH   7   9
BRANCH   7  16
ATOM     15  H   UNL     1       0.502   1.764   4.186  0.00  0.00    +0.000 HD
ATOM     16  O   UNL     1       0.818   1.334   3.327  0.00  0.00    +0.000 OA
ENDBRANCH   7  16
ENDBRANCH   1   8
BRANCH   2  17
ATOM     17  O   UNL     1       1.945   2.348   0.886  0.00  0.00    +0.000 OA
ATOM     18  H   UNL     1       2.442   3.074   0.427  0.00  0.00    +0.000 HD
ENDBRANCH   2  17
BRANCH   3  19
ATOM     19  O   UNL     1       0.225   1.362  -1.020  0.00  0.00    +0.000 OA
ATOM     20  H   UNL     1      -0.103   1.640  -1.915  0.00  0.00    +0.000 HD
ENDBRANCH   3  19
BRANCH   6  21
ATOM     21  O   UNL     1       3.507  -1.592   0.188  0.00  0.00    +0.000 OA
ATOM     22  C   UNL     1       3.760  -2.958  -0.061  0.00  0.00    +0.000 C 
ENDBRANCH   6  21
BRANCH   4  23
ATOM     23  C   UNL     1       3.195  -0.457  -2.468  0.00  0.00    +0.000 C 
BRANCH  23  24
ATOM     24  O   UNL     1       3.318   0.379  -3.587  0.00  0.00    +0.000 OA
ATOM     25  H   UNL     1       2.825  -0.060  -4.329  0.00  0.00    +0.000 HD
ENDBRANCH  23  24
ENDBRANCH   4  23
TORSDOF 8
