REMARK  Name = ZINC000044021353
REMARK  9 active torsions:
REMARK  status: ('A' for Active; 'I' for Inactive)
REMARK    1  A    between atoms: C_1  and  O_2
REMARK    2  A    between atoms: O_2  and  C_3
REMARK    3  A    between atoms: C_6  and  C_7
REMARK    4  A    between atoms: N_8  and  C_9
REMARK    5  A    between atoms: C_10  and  O_11
REMARK    6  A    between atoms: C_12  and  O_13
REMARK    7  A    between atoms: C_14  and  C_15
REMARK    8  A    between atoms: C_15  and  O_16
REMARK    9  A    between atoms: C_18  and  O_19
REMARK                            x       y       z     vdW  Elec       q    Type
REMARK                         _______ _______ _______ _____ _____    ______ ____
ROOT
ATOM      1  C   UNL     1      -0.995   0.435  -1.909  0.00  0.00    +0.000 C 
ATOM      2  C   UNL     1       0.175   1.430  -2.005  0.00  0.00    +0.000 C 
ATOM      3  C   UNL     1       0.064   2.557  -0.966  0.00  0.00    +0.000 C 
ATOM      4  C   UNL     1      -1.365   3.154  -0.930  0.00  0.00    +0.000 C 
ATOM      5  O   UNL     1      -2.384   2.168  -0.798  0.00  0.00    +0.000 OA
ATOM      6  C   UNL     1      -2.358   1.154  -1.796  0.00  0.00    +0.000 C 
ENDROOT
BRANCH   1   8
ATOM      7  C   UNL     1      -1.067  -0.444   0.407  0.00  0.00    +0.000 C 
ATOM      8  N   UNL     1      -0.789  -0.572  -0.856  0.00  0.00    +0.000 NA
BRANCH   7  12
ATOM      9  C   UNL     1      -0.281  -3.596   3.218  0.00  0.00    +0.000 A 
ATOM     10  C   UNL     1       0.039  -3.771   1.859  0.00  0.00    +0.000 A 
ATOM     11  C   UNL     1      -0.215  -2.750   0.937  0.00  0.00    +0.000 A 
ATOM     12  C   UNL     1      -0.792  -1.538   1.359  0.00  0.00    +0.000 A 
ATOM     13  C   UNL     1      -1.108  -1.368   2.715  0.00  0.00    +0.000 A 
ATOM     14  C   UNL     1      -0.854  -2.390   3.635  0.00  0.00    +0.000 A 
BRANCH   9  16
ATOM     15  C   UNL     1       0.530  -5.861   3.899  0.00  0.00    +0.000 C 
ATOM     16  O   UNL     1      -0.046  -4.590   4.180  0.00  0.00    +0.000 OA
ENDBRANCH   9  16
ENDBRANCH   7  12
ENDBRANCH   1   8
BRANCH   2  17
ATOM     17  O   UNL     1       1.397   0.749  -1.869  0.00  0.00    +0.000 OA
ATOM     18  H   UNL     1       2.106   1.364  -2.192  0.00  0.00    +0.000 HD
ENDBRANCH   2  17
BRANCH   3  19
ATOM     19  O   UNL     1       0.422   2.076   0.304  0.00  0.00    +0.000 OA
ATOM     20  H   UNL     1       0.645   2.867   0.862  0.00  0.00    +0.000 HD
ENDBRANCH   3  19
BRANCH   6  21
ATOM     21  O   UNL     1      -2.748   1.662  -3.045  0.00  0.00    +0.000 OA
ATOM     22  H   UNL     1      -3.683   1.980  -2.940  0.00  0.00    +0.000 HD
ENDBRANCH   6  21
BRANCH   4  23
ATOM     23  C   UNL     1      -1.643   4.143  -2.081  0.00  0.00    +0.000 C 
BRANCH  23  24
ATOM     24  O   UNL     1      -0.905   5.319  -1.886  0.00  0.00    +0.000 OA
ATOM     25  H   UNL     1      -1.135   5.918  -2.644  0.00  0.00    +0.000 HD
ENDBRANCH  23  24
ENDBRANCH   4  23
TORSDOF 8
