REMARK  Name = ZINC000164373873
REMARK  7 active torsions:
REMARK  status: ('A' for Active; 'I' for Inactive)
REMARK    1  A    between atoms: C_1  and  O_2
REMARK    2  A    between atoms: O_2  and  C_3
REMARK    3  A    between atoms: C_5  and  C_6
REMARK    4  A    between atoms: C_6  and  O_7
REMARK    5  A    between atoms: C_8  and  O_9
REMARK    6  A    between atoms: C_10  and  O_11
REMARK    7  A    between atoms: C_12  and  N_13
REMARK                            x       y       z     vdW  Elec       q    Type
REMARK                         _______ _______ _______ _____ _____    ______ ____
ROOT
ATOM      1  C   UNL     1       0.589   0.176   0.244  0.00  0.00    +0.000 C 
ATOM      2  O   UNL     1       0.540   0.096   1.658  0.00  0.00    +0.000 OA
ATOM      3  C   UNL     1      -0.773  -0.233   2.094  0.00  0.00    +0.000 C 
ATOM      4  C   UNL     1      -1.362  -1.479   1.349  0.00  0.00    +0.000 C 
ATOM      5  C   UNL     1      -0.258  -2.218   0.573  0.00  0.00    +0.000 C 
ATOM      6  C   UNL     1       0.540  -1.255  -0.349  0.00  0.00    +0.000 C 
ENDROOT
BRANCH   6   7
ATOM      7  N   UNL     1      -0.002  -1.245  -1.712  0.00  0.00    +0.000 NA
ATOM      8  H   UNL     1       0.605  -0.635  -2.308  0.00  0.00    +0.000 HD
ATOM      9  H   UNL     1      -0.959  -0.825  -1.711  0.00  0.00    +0.000 HD
ENDBRANCH   6   7
BRANCH   1  11
ATOM     10  C   UNL     1       1.748   2.177   0.087  0.00  0.00    +0.000 C 
ATOM     11  O   UNL     1       1.803   0.787  -0.150  0.00  0.00    +0.000 OA
ENDBRANCH   1  11
BRANCH   4  12
ATOM     12  O   UNL     1      -2.371  -1.074   0.459  0.00  0.00    +0.000 OA
ATOM     13  H   UNL     1      -3.167  -0.854   1.011  0.00  0.00    +0.000 HD
ENDBRANCH   4  12
BRANCH   5  14
ATOM     14  O   UNL     1      -0.816  -3.283  -0.155  0.00  0.00    +0.000 OA
ATOM     15  H   UNL     1      -0.060  -3.866  -0.429  0.00  0.00    +0.000 HD
ENDBRANCH   5  14
BRANCH   3  16
ATOM     16  C   UNL     1      -0.722  -0.467   3.608  0.00  0.00    +0.000 C 
BRANCH  16  17
ATOM     17  O   UNL     1      -2.020  -0.600   4.120  0.00  0.00    +0.000 OA
ATOM     18  H   UNL     1      -1.916  -0.764   5.093  0.00  0.00    +0.000 HD
ENDBRANCH  16  17
ENDBRANCH   3  16
TORSDOF 6
