REMARK  Name = ZINC000015205956
REMARK  9 active torsions:
REMARK  status: ('A' for Active; 'I' for Inactive)
REMARK    1  A    between atoms: O_2  and  C_3
REMARK    2  A    between atoms: C_3  and  C_37
REMARK    3  A    between atoms: N_4  and  C_5
REMARK    4  A    between atoms: C_7  and  O_9
REMARK    5  A    between atoms: C_11  and  O_13
REMARK    6  A    between atoms: C_15  and  C_17
REMARK    7  A    between atoms: C_17  and  O_20
REMARK    8  A    between atoms: C_23  and  O_25
REMARK    9  A    between atoms: O_25  and  C_26
REMARK                            x       y       z     vdW  Elec       q    Type
REMARK                         _______ _______ _______ _____ _____    ______ ____
ROOT
ATOM      1  C   UNL     1      -0.492   0.752   0.103  0.00  0.00    +0.000 C 
ATOM      2  C   UNL     1      -1.864   0.111  -0.173  0.00  0.00    +0.000 C 
ATOM      3  C   UNL     1      -2.016  -0.158  -1.680  0.00  0.00    +0.000 C 
ATOM      4  C   UNL     1      -0.791  -0.951  -2.202  0.00  0.00    +0.000 C 
ATOM      5  O   UNL     1       0.409  -0.240  -1.933  0.00  0.00    +0.000 OA
ATOM      6  C   UNL     1       0.637  -0.088  -0.541  0.00  0.00    +0.000 C 
ENDROOT
BRANCH   1   8
ATOM      7  C   UNL     1      -0.629   1.877   2.308  0.00  0.00    +0.000 C 
ATOM      8  N   UNL     1      -0.268   0.885   1.546  0.00  0.00    +0.000 NA
ATOM      9  C   UNL     1      -1.320   3.099   1.765  0.00  0.00    +0.000 C 
BRANCH   7  11
ATOM     10  H   UNL     1      -0.581   2.553   4.305  0.00  0.00    +0.000 HD
ATOM     11  O   UNL     1      -0.335   1.806   3.667  0.00  0.00    +0.000 OA
ENDBRANCH   7  11
ENDBRANCH   1   8
BRANCH   2  12
ATOM     12  O   UNL     1      -1.987  -1.086   0.557  0.00  0.00    +0.000 OA
ATOM     13  H   UNL     1      -2.957  -1.251   0.687  0.00  0.00    +0.000 HD
ENDBRANCH   2  12
BRANCH   3  14
ATOM     14  O   UNL     1      -3.204  -0.875  -1.903  0.00  0.00    +0.000 OA
ATOM     15  H   UNL     1      -3.624  -0.503  -2.723  0.00  0.00    +0.000 HD
ENDBRANCH   3  14
BRANCH   4  16
ATOM     16  C   UNL     1      -0.872  -1.173  -3.722  0.00  0.00    +0.000 C 
BRANCH  16  17
ATOM     17  O   UNL     1      -1.896  -2.074  -4.052  0.00  0.00    +0.000 OA
ATOM     18  H   UNL     1      -1.567  -2.979  -3.812  0.00  0.00    +0.000 HD
ENDBRANCH  16  17
ENDBRANCH   4  16
BRANCH   6  19
ATOM     19  O   UNL     1       0.782  -1.375   0.079  0.00  0.00    +0.000 OA
BRANCH  19  20
ATOM     20  C   UNL     1       1.468  -1.662   1.271  0.00  0.00    +0.000 A 
ATOM     21  C   UNL     1       2.280  -0.723   1.942  0.00  0.00    +0.000 A 
ATOM     22  C   UNL     1       2.934  -1.077   3.127  0.00  0.00    +0.000 A 
ATOM     23  C   UNL     1       2.793  -2.365   3.649  0.00  0.00    +0.000 A 
ATOM     24  C   UNL     1       1.997  -3.302   2.986  0.00  0.00    +0.000 A 
ATOM     25  C   UNL     1       1.341  -2.952   1.803  0.00  0.00    +0.000 A 
ENDBRANCH  19  20
ENDBRANCH   6  19
TORSDOF 8
