REMARK  Name = ZINC000106382931
REMARK  9 active torsions:
REMARK  status: ('A' for Active; 'I' for Inactive)
REMARK    1  A    between atoms: O_2  and  C_3
REMARK    2  A    between atoms: C_3  and  C_37
REMARK    3  A    between atoms: N_4  and  C_5
REMARK    4  A    between atoms: C_7  and  O_9
REMARK    5  A    between atoms: O_9  and  C_10
REMARK    6  A    between atoms: C_22  and  C_24
REMARK    7  A    between atoms: C_24  and  O_27
REMARK    8  A    between atoms: C_29  and  O_31
REMARK    9  A    between atoms: C_33  and  O_35
REMARK                            x       y       z     vdW  Elec       q    Type
REMARK                         _______ _______ _______ _____ _____    ______ ____
ROOT
ATOM      1  C   UNL     1      -1.319  -0.176   1.218  0.00  0.00    +0.000 C 
ATOM      2  C   UNL     1       0.140  -0.306   0.730  0.00  0.00    +0.000 C 
ATOM      3  O   UNL     1       1.025  -0.302   1.838  0.00  0.00    +0.000 OA
ATOM      4  C   UNL     1       1.005   0.956   2.491  0.00  0.00    +0.000 C 
ATOM      5  C   UNL     1      -0.395   1.207   3.109  0.00  0.00    +0.000 C 
ATOM      6  C   UNL     1      -1.483   1.129   2.020  0.00  0.00    +0.000 C 
ENDROOT
BRANCH   1   8
ATOM      7  C   UNL     1      -2.720  -1.243  -0.489  0.00  0.00    +0.000 C 
ATOM      8  N   UNL     1      -2.248  -0.176   0.084  0.00  0.00    +0.000 NA
ATOM      9  C   UNL     1      -3.635  -1.105  -1.662  0.00  0.00    +0.000 C 
BRANCH   7  11
ATOM     10  H   UNL     1      -2.715  -3.349  -0.486  0.00  0.00    +0.000 HD
ATOM     11  O   UNL     1      -2.365  -2.513  -0.034  0.00  0.00    +0.000 OA
ENDBRANCH   7  11
ENDBRANCH   1   8
BRANCH   5  12
ATOM     12  O   UNL     1      -0.459   2.436   3.792  0.00  0.00    +0.000 OA
ATOM     13  H   UNL     1      -0.149   3.147   3.172  0.00  0.00    +0.000 HD
ENDBRANCH   5  12
BRANCH   6  14
ATOM     14  O   UNL     1      -1.384   2.244   1.166  0.00  0.00    +0.000 OA
ATOM     15  H   UNL     1      -2.290   2.408   0.794  0.00  0.00    +0.000 HD
ENDBRANCH   6  14
BRANCH   2  16
ATOM     16  O   UNL     1       0.294  -1.538   0.028  0.00  0.00    +0.000 OA
BRANCH  16  17
ATOM     17  C   UNL     1       1.456  -1.938  -0.650  0.00  0.00    +0.000 A 
ATOM     18  C   UNL     1       1.456  -3.186  -1.285  0.00  0.00    +0.000 A 
ATOM     19  C   UNL     1       2.588  -3.631  -1.973  0.00  0.00    +0.000 A 
ATOM     20  C   UNL     1       3.732  -2.830  -2.032  0.00  0.00    +0.000 A 
ATOM     21  F   UNL     1       4.830  -3.264  -2.700  0.00  0.00    +0.000 F 
ATOM     22  C   UNL     1       3.743  -1.583  -1.403  0.00  0.00    +0.000 A 
ATOM     23  C   UNL     1       2.612  -1.133  -0.715  0.00  0.00    +0.000 A 
ENDBRANCH  16  17
ENDBRANCH   2  16
BRANCH   4  24
ATOM     24  C   UNL     1       2.090   0.959   3.577  0.00  0.00    +0.000 C 
BRANCH  24  25
ATOM     25  O   UNL     1       3.358   0.793   3.001  0.00  0.00    +0.000 OA
ATOM     26  H   UNL     1       3.472  -0.179   2.832  0.00  0.00    +0.000 HD
ENDBRANCH  24  25
ENDBRANCH   4  24
TORSDOF 8
