REMARK  Name = ZINC000101073479
REMARK  9 active torsions:
REMARK  status: ('A' for Active; 'I' for Inactive)
REMARK    1  A    between atoms: C_1  and  O_2
REMARK    2  A    between atoms: O_2  and  C_3
REMARK    3  A    between atoms: C_6  and  C_7
REMARK    4  A    between atoms: N_8  and  C_9
REMARK    5  A    between atoms: C_10  and  O_11
REMARK    6  A    between atoms: C_12  and  O_13
REMARK    7  A    between atoms: C_14  and  C_15
REMARK    8  A    between atoms: C_15  and  O_16
REMARK    9  A    between atoms: C_18  and  O_19
REMARK                            x       y       z     vdW  Elec       q    Type
REMARK                         _______ _______ _______ _____ _____    ______ ____
ROOT
ATOM      1  C   UNL     1      -0.312   1.126  -0.471  0.00  0.00    +0.000 C 
ATOM      2  C   UNL     1       0.519   1.594  -1.677  0.00  0.00    +0.000 C 
ATOM      3  C   UNL     1      -0.025   2.914  -2.249  0.00  0.00    +0.000 C 
ATOM      4  C   UNL     1      -1.548   2.808  -2.507  0.00  0.00    +0.000 C 
ATOM      5  O   UNL     1      -2.279   2.319  -1.384  0.00  0.00    +0.000 OA
ATOM      6  C   UNL     1      -1.806   1.085  -0.854  0.00  0.00    +0.000 C 
ENDROOT
BRANCH   1   8
ATOM      7  C   UNL     1       0.174   1.717   1.897  0.00  0.00    +0.000 C 
ATOM      8  N   UNL     1      -0.125   2.034   0.669  0.00  0.00    +0.000 NA
BRANCH   7  12
ATOM      9  C   UNL     1       0.846  -2.266   3.353  0.00  0.00    +0.000 A 
ATOM     10  C   UNL     1      -0.364  -1.942   2.728  0.00  0.00    +0.000 A 
ATOM     11  C   UNL     1      -0.592  -0.650   2.247  0.00  0.00    +0.000 A 
ATOM     12  C   UNL     1       0.402   0.335   2.365  0.00  0.00    +0.000 A 
ATOM     13  C   UNL     1       1.603   0.022   3.015  0.00  0.00    +0.000 A 
ATOM     14  C   UNL     1       1.831  -1.271   3.498  0.00  0.00    +0.000 A 
BRANCH   9  16
ATOM     15  C   UNL     1       2.203  -4.045   4.469  0.00  0.00    +0.000 C 
ATOM     16  O   UNL     1       1.026  -3.578   3.816  0.00  0.00    +0.000 OA
ENDBRANCH   9  16
ENDBRANCH   7  12
ENDBRANCH   1   8
BRANCH   2  17
ATOM     17  O   UNL     1       1.890   1.682  -1.367  0.00  0.00    +0.000 OA
ATOM     18  H   UNL     1       2.011   2.374  -0.667  0.00  0.00    +0.000 HD
ENDBRANCH   2  17
BRANCH   3  19
ATOM     19  O   UNL     1       0.229   3.970  -1.355  0.00  0.00    +0.000 OA
ATOM     20  H   UNL     1       0.178   4.812  -1.879  0.00  0.00    +0.000 HD
ENDBRANCH   3  19
BRANCH   6  21
ATOM     21  O   UNL     1      -2.079   0.025  -1.734  0.00  0.00    +0.000 OA
ATOM     22  H   UNL     1      -2.002  -0.814  -1.209  0.00  0.00    +0.000 HD
ENDBRANCH   6  21
BRANCH   4  23
ATOM     23  C   UNL     1      -1.890   2.074  -3.821  0.00  0.00    +0.000 C 
BRANCH  23  24
ATOM     24  O   UNL     1      -3.277   2.059  -4.029  0.00  0.00    +0.000 OA
ATOM     25  H   UNL     1      -3.637   1.296  -3.507  0.00  0.00    +0.000 HD
ENDBRANCH  23  24
ENDBRANCH   4  23
TORSDOF 8
