REMARK  Name = 54758613
REMARK  9 active torsions:
REMARK  status: ('A' for Active; 'I' for Inactive)
REMARK    1  A    between atoms: O_2  and  C_3
REMARK    2  A    between atoms: C_3  and  C_30
REMARK    3  A    between atoms: N_4  and  C_5
REMARK    4  A    between atoms: C_7  and  O_9
REMARK    5  A    between atoms: C_12  and  C_14
REMARK    6  A    between atoms: C_14  and  O_17
REMARK    7  A    between atoms: O_17  and  S_18
REMARK    8  A    between atoms: C_22  and  O_24
REMARK    9  A    between atoms: C_26  and  O_28
REMARK                            x       y       z     vdW  Elec       q    Type
REMARK                         _______ _______ _______ _____ _____    ______ ____
ROOT
ATOM      1  C   UNL     1      -0.837  -1.016  -1.263  0.00  0.00    +0.000 C 
ATOM      2  C   UNL     1      -0.783   0.509  -1.516  0.00  0.00    +0.000 C 
ATOM      3  O   UNL     1      -0.795   1.266  -0.313  0.00  0.00    +0.000 OA
ATOM      4  C   UNL     1       0.255   0.942   0.594  0.00  0.00    +0.000 C 
ATOM      5  C   UNL     1       0.315  -0.568   0.934  0.00  0.00    +0.000 C 
ATOM      6  C   UNL     1       0.298  -1.452  -0.328  0.00  0.00    +0.000 C 
ENDROOT
BRANCH   1   8
ATOM      7  C   UNL     1      -3.228  -1.668  -1.291  0.00  0.00    +0.000 C 
ATOM      8  N   UNL     1      -2.125  -1.376  -0.659  0.00  0.00    +0.000 NA
ATOM      9  C   UNL     1      -3.310  -1.723  -2.789  0.00  0.00    +0.000 C 
BRANCH   7  11
ATOM     10  H   UNL     1      -4.359  -1.955   0.459  0.00  0.00    +0.000 HD
ATOM     11  O   UNL     1      -4.370  -1.970  -0.554  0.00  0.00    +0.000 OA
ENDBRANCH   7  11
ENDBRANCH   1   8
BRANCH   2  12
ATOM     12  O   UNL     1       0.316   0.861  -2.317  0.00  0.00    +0.000 OA
ATOM     13  H   UNL     1       0.132   0.516  -3.230  0.00  0.00    +0.000 HD
ENDBRANCH   2  12
BRANCH   5  14
ATOM     14  O   UNL     1       1.442  -0.847   1.725  0.00  0.00    +0.000 OA
ATOM     15  H   UNL     1       1.296  -1.743   2.128  0.00  0.00    +0.000 HD
ENDBRANCH   5  14
BRANCH   6  16
ATOM     16  O   UNL     1       1.525  -1.390  -1.011  0.00  0.00    +0.000 OA
ATOM     17  H   UNL     1       2.156  -1.988  -0.531  0.00  0.00    +0.000 HD
ENDBRANCH   6  16
BRANCH   4  18
ATOM     18  C   UNL     1       1.606   1.569   0.190  0.00  0.00    +0.000 C 
BRANCH  18  19
ATOM     19  O   UNL     1       1.401   2.909  -0.194  0.00  0.00    +0.000 OA
BRANCH  19  20
ATOM     20  S   UNL     1       2.880   3.557  -0.709  0.00  0.00    +0.000 S 
ATOM     21  O   UNL     1       3.908   3.455   0.383  0.00  0.00    +0.000 OA
ATOM     22  O   UNL     1       3.367   2.833  -1.933  0.00  0.00    +0.000 OA
ATOM     23  O   UNL     1       2.654   5.177  -1.091  0.00  0.00    +0.000 OA
ENDBRANCH  19  20
ENDBRANCH  18  19
ENDBRANCH   4  18
TORSDOF 8
