REMARK  Name = ZINC000106382965
REMARK  10 active torsions:
REMARK  status: ('A' for Active; 'I' for Inactive)
REMARK    1  A    between atoms: O_2  and  C_3
REMARK    2  A    between atoms: C_3  and  C_39
REMARK    3  A    between atoms: N_4  and  C_5
REMARK    4  A    between atoms: C_7  and  O_9
REMARK    5  A    between atoms: O_9  and  C_10
REMARK    6  A    between atoms: C_15  and  C_16
REMARK    7  A    between atoms: C_24  and  C_26
REMARK    8  A    between atoms: C_26  and  O_29
REMARK    9  A    between atoms: C_31  and  O_33
REMARK   10  A    between atoms: C_35  and  O_37
REMARK                            x       y       z     vdW  Elec       q    Type
REMARK                         _______ _______ _______ _____ _____    ______ ____
ROOT
ATOM      1  C   UNL     1      -1.376   1.090  -0.154  0.00  0.00    +0.000 C 
ATOM      2  C   UNL     1      -0.961  -0.360  -0.497  0.00  0.00    +0.000 C 
ATOM      3  O   UNL     1      -2.034  -1.022  -1.145  0.00  0.00    +0.000 OA
ATOM      4  C   UNL     1      -3.140  -1.175  -0.269  0.00  0.00    +0.000 C 
ATOM      5  C   UNL     1      -3.722   0.209   0.112  0.00  0.00    +0.000 C 
ATOM      6  C   UNL     1      -2.627   1.077   0.751  0.00  0.00    +0.000 C 
ENDROOT
BRANCH   1   8
ATOM      7  C   UNL     1      -0.184   3.082   0.619  0.00  0.00    +0.000 C 
ATOM      8  N   UNL     1      -0.273   1.791   0.502  0.00  0.00    +0.000 NA
ATOM      9  C   UNL     1       1.007   3.676   1.299  0.00  0.00    +0.000 C 
BRANCH   7  11
ATOM     10  H   UNL     1      -1.097   4.921   0.157  0.00  0.00    +0.000 HD
ATOM     11  O   UNL     1      -1.167   3.914   0.085  0.00  0.00    +0.000 OA
ENDBRANCH   7  11
ENDBRANCH   1   8
BRANCH   5  12
ATOM     12  O   UNL     1      -4.785   0.065   1.021  0.00  0.00    +0.000 OA
ATOM     13  H   UNL     1      -5.621   0.015   0.488  0.00  0.00    +0.000 HD
ENDBRANCH   5  12
BRANCH   6  14
ATOM     14  O   UNL     1      -2.305   0.571   2.024  0.00  0.00    +0.000 OA
ATOM     15  H   UNL     1      -1.947   1.328   2.557  0.00  0.00    +0.000 HD
ENDBRANCH   6  14
BRANCH   2  16
ATOM     16  O   UNL     1       0.146  -0.346  -1.403  0.00  0.00    +0.000 OA
BRANCH  16  17
ATOM     17  C   UNL     1       1.502  -0.182  -1.071  0.00  0.00    +0.000 A 
ATOM     18  C   UNL     1       2.414   0.001  -2.117  0.00  0.00    +0.000 A 
ATOM     19  C   UNL     1       3.775   0.177  -1.856  0.00  0.00    +0.000 A 
ATOM     20  C   UNL     1       4.250   0.169  -0.534  0.00  0.00    +0.000 A 
ATOM     21  C   UNL     1       3.342  -0.024   0.517  0.00  0.00    +0.000 A 
ATOM     22  C   UNL     1       1.981  -0.203   0.255  0.00  0.00    +0.000 A 
BRANCH  20  23
ATOM     23  C   UNL     1       5.681   0.357  -0.236  0.00  0.00    +0.000 C 
ATOM     24  O   UNL     1       6.521   0.532  -1.159  0.00  0.00    +0.000 OA
ENDBRANCH  20  23
ENDBRANCH  16  17
ENDBRANCH   2  16
BRANCH   4  25
ATOM     25  C   UNL     1      -4.188  -2.064  -0.958  0.00  0.00    +0.000 C 
BRANCH  25  26
ATOM     26  O   UNL     1      -4.691  -1.454  -2.118  0.00  0.00    +0.000 OA
ATOM     27  H   UNL     1      -4.010  -1.586  -2.828  0.00  0.00    +0.000 HD
ENDBRANCH  25  26
ENDBRANCH   4  25
TORSDOF 9
