REMARK  Name = ZINC000102205030
REMARK  10 active torsions:
REMARK  status: ('A' for Active; 'I' for Inactive)
REMARK    1  A    between atoms: O_2  and  C_3
REMARK    2  A    between atoms: C_3  and  C_6
REMARK    3  A    between atoms: C_9  and  O_11
REMARK    4  A    between atoms: O_11  and  C_12
REMARK    5  A    between atoms: C_12  and  C_15
REMARK    6  A    between atoms: C_15  and  N_18
REMARK    7  A    between atoms: C_21  and  N_23
REMARK    8  A    between atoms: C_25  and  C_27
REMARK    9  A    between atoms: C_31  and  O_33
REMARK   10  A    between atoms: C_35  and  O_37
REMARK                            x       y       z     vdW  Elec       q    Type
REMARK                         _______ _______ _______ _____ _____    ______ ____
ROOT
ATOM      1  C   UNL     1       2.020   0.350  -0.661  0.00  0.00    +0.000 C 
ATOM      2  O   UNL     1       1.059  -0.224  -1.538  0.00  0.00    +0.000 OA
ATOM      3  C   UNL     1      -0.107  -0.594  -0.824  0.00  0.00    +0.000 C 
ATOM      4  C   UNL     1       0.180  -1.859   0.021  0.00  0.00    +0.000 C 
ATOM      5  C   UNL     1       1.685  -1.941   0.403  0.00  0.00    +0.000 C 
ATOM      6  C   UNL     1       2.297  -0.543   0.594  0.00  0.00    +0.000 C 
ENDROOT
BRANCH   4   7
ATOM      7  N   UNL     1      -0.683  -1.870   1.209  0.00  0.00    +0.000 N 
ATOM      8  H   UNL     1      -0.321  -1.488   2.112  0.00  0.00    +0.000 HD
ATOM      9  C   UNL     1      -2.050  -2.301   1.161  0.00  0.00    +0.000 C 
ATOM     10  O   UNL     1      -2.544  -2.748   0.091  0.00  0.00    +0.000 OA
ATOM     11  C   UNL     1      -2.906  -2.198   2.381  0.00  0.00    +0.000 C 
ENDBRANCH   4   7
BRANCH   5  12
ATOM     12  O   UNL     1       1.884  -2.717   1.557  0.00  0.00    +0.000 OA
ATOM     13  H   UNL     1       1.679  -3.656   1.307  0.00  0.00    +0.000 HD
ENDBRANCH   5  12
BRANCH   6  14
ATOM     14  O   UNL     1       1.749   0.056   1.741  0.00  0.00    +0.000 OA
ATOM     15  H   UNL     1       2.345   0.814   1.980  0.00  0.00    +0.000 HD
ENDBRANCH   6  14
BRANCH   1  16
ATOM     16  C   UNL     1       3.310   0.589  -1.452  0.00  0.00    +0.000 C 
BRANCH  16  18
ATOM     17  H   UNL     1       3.912   1.533  -3.022  0.00  0.00    +0.000 HD
ATOM     18  O   UNL     1       3.048   1.424  -2.546  0.00  0.00    +0.000 OA
ENDBRANCH  16  18
ENDBRANCH   1  16
BRANCH   3  19
ATOM     19  O   UNL     1      -1.143  -0.889  -1.742  0.00  0.00    +0.000 OA
BRANCH  19  20
ATOM     20  C   UNL     1      -1.686   0.304  -2.268  0.00  0.00    +0.000 C 
BRANCH  20  21
ATOM     21  C   UNL     1      -2.724  -0.049  -3.331  0.00  0.00    +0.000 C 
BRANCH  21  22
ATOM     22  N   UNL     1      -3.356   1.153  -3.861  0.00  0.00    +0.000 NA
ATOM     23  N   UNL     1      -2.712   1.973  -4.517  0.00  0.00    +0.000 NA
ATOM     24  N   UNL     1      -2.069   2.792  -5.173  0.00  0.00    +0.000 NA
ENDBRANCH  21  22
ENDBRANCH  20  21
ENDBRANCH  19  20
ENDBRANCH   3  19
TORSDOF 9
