REMARK  Name = ZINC000015205949
REMARK  10 active torsions:
REMARK  status: ('A' for Active; 'I' for Inactive)
REMARK    1  A    between atoms: O_2  and  C_3
REMARK    2  A    between atoms: C_3  and  C_39
REMARK    3  A    between atoms: N_4  and  C_5
REMARK    4  A    between atoms: C_7  and  O_9
REMARK    5  A    between atoms: C_11  and  O_13
REMARK    6  A    between atoms: C_15  and  C_17
REMARK    7  A    between atoms: C_17  and  O_20
REMARK    8  A    between atoms: C_23  and  O_25
REMARK    9  A    between atoms: O_25  and  C_26
REMARK   10  A    between atoms: C_31  and  N_32
REMARK                            x       y       z     vdW  Elec       q    Type
REMARK                         _______ _______ _______ _____ _____    ______ ____
ROOT
ATOM      1  C   UNL     1      -1.986   0.726   1.319  0.00  0.00    +0.000 C 
ATOM      2  C   UNL     1      -1.644   0.683   2.821  0.00  0.00    +0.000 C 
ATOM      3  C   UNL     1      -0.989  -0.669   3.166  0.00  0.00    +0.000 C 
ATOM      4  C   UNL     1       0.189  -0.949   2.201  0.00  0.00    +0.000 C 
ATOM      5  O   UNL     1      -0.260  -0.938   0.855  0.00  0.00    +0.000 OA
ATOM      6  C   UNL     1      -0.757   0.337   0.475  0.00  0.00    +0.000 C 
ENDROOT
BRANCH   1   8
ATOM      7  C   UNL     1      -3.657   2.529   1.003  0.00  0.00    +0.000 C 
ATOM      8  N   UNL     1      -2.441   2.064   0.928  0.00  0.00    +0.000 NA
ATOM      9  C   UNL     1      -4.812   1.699   1.482  0.00  0.00    +0.000 C 
BRANCH   7  11
ATOM     10  H   UNL     1      -3.158   4.435   0.268  0.00  0.00    +0.000 HD
ATOM     11  O   UNL     1      -3.906   3.839   0.605  0.00  0.00    +0.000 OA
ENDBRANCH   7  11
ENDBRANCH   1   8
BRANCH   2  12
ATOM     12  O   UNL     1      -0.781   1.746   3.146  0.00  0.00    +0.000 OA
ATOM     13  H   UNL     1      -0.895   1.928   4.115  0.00  0.00    +0.000 HD
ENDBRANCH   2  12
BRANCH   3  14
ATOM     14  O   UNL     1      -0.536  -0.656   4.496  0.00  0.00    +0.000 OA
ATOM     15  H   UNL     1      -1.341  -0.737   5.072  0.00  0.00    +0.000 HD
ENDBRANCH   3  14
BRANCH   4  16
ATOM     16  C   UNL     1       0.821  -2.325   2.471  0.00  0.00    +0.000 C 
BRANCH  16  17
ATOM     17  O   UNL     1       1.470  -2.354   3.714  0.00  0.00    +0.000 OA
ATOM     18  H   UNL     1       2.316  -1.846   3.606  0.00  0.00    +0.000 HD
ENDBRANCH  16  17
ENDBRANCH   4  16
BRANCH   6  19
ATOM     19  O   UNL     1       0.261   1.341   0.557  0.00  0.00    +0.000 OA
BRANCH  19  20
ATOM     20  C   UNL     1       1.450   1.345  -0.189  0.00  0.00    +0.000 A 
ATOM     21  C   UNL     1       1.742   0.367  -1.156  0.00  0.00    +0.000 A 
ATOM     22  C   UNL     1       2.945   0.415  -1.868  0.00  0.00    +0.000 A 
ATOM     23  C   UNL     1       3.876   1.440  -1.629  0.00  0.00    +0.000 A 
ATOM     24  C   UNL     1       3.578   2.417  -0.662  0.00  0.00    +0.000 A 
ATOM     25  C   UNL     1       2.375   2.367   0.048  0.00  0.00    +0.000 A 
BRANCH  23  26
ATOM     26  N   UNL     1       5.114   1.486  -2.363  0.00  0.00    +0.000 N 
ATOM     27  O   UNL     1       5.944   2.394  -2.155  0.00  0.00    +0.000 OA
ATOM     28  O   UNL     1       5.402   0.527  -3.307  0.00  0.00    +0.000 OA
ENDBRANCH  23  26
ENDBRANCH  19  20
ENDBRANCH   6  19
TORSDOF 9
