REMARK  Name = ZINC000101136391
REMARK  8 active torsions:
REMARK  status: ('A' for Active; 'I' for Inactive)
REMARK    1  A    between atoms: N_1  and  C_2
REMARK    2  A    between atoms: C_3  and  O_4
REMARK    3  A    between atoms: C_5  and  O_6
REMARK    4  A    between atoms: C_7  and  C_8
REMARK    5  A    between atoms: C_8  and  O_9
REMARK    6  A    between atoms: C_11  and  O_12
REMARK    7  A    between atoms: O_12  and  C_13
REMARK    8  A    between atoms: C_13  and  C_14
REMARK                            x       y       z     vdW  Elec       q    Type
REMARK                         _______ _______ _______ _____ _____    ______ ____
ROOT
ATOM      1  C   UNL     1      -1.275   0.824  -1.489  0.00  0.00    +0.000 C 
ATOM      2  C   UNL     1      -2.809   0.804  -1.307  0.00  0.00    +0.000 C 
ATOM      3  C   UNL     1      -3.243  -0.529  -0.672  0.00  0.00    +0.000 C 
ATOM      4  C   UNL     1      -2.402  -0.803   0.597  0.00  0.00    +0.000 C 
ATOM      5  O   UNL     1      -1.022  -0.825   0.276  0.00  0.00    +0.000 OA
ATOM      6  C   UNL     1      -0.583   0.454  -0.158  0.00  0.00    +0.000 C 
ENDROOT
BRANCH   1   7
ATOM      7  N   UNL     1      -0.833   2.143  -1.950  0.00  0.00    +0.000 NA
ATOM      8  H   UNL     1      -1.315   2.353  -2.854  0.00  0.00    +0.000 HD
ATOM      9  H   UNL     1       0.186   2.093  -2.178  0.00  0.00    +0.000 HD
ENDBRANCH   1   7
BRANCH   2  10
ATOM     10  O   UNL     1      -3.223   1.871  -0.488  0.00  0.00    +0.000 OA
ATOM     11  H   UNL     1      -3.333   2.664  -1.076  0.00  0.00    +0.000 HD
ENDBRANCH   2  10
BRANCH   3  12
ATOM     12  O   UNL     1      -4.608  -0.485  -0.344  0.00  0.00    +0.000 OA
ATOM     13  H   UNL     1      -5.110  -0.570  -1.196  0.00  0.00    +0.000 HD
ENDBRANCH   3  12
BRANCH   4  14
ATOM     14  C   UNL     1      -2.775  -2.144   1.248  0.00  0.00    +0.000 C 
BRANCH  14  15
ATOM     15  O   UNL     1      -2.461  -3.219   0.402  0.00  0.00    +0.000 OA
ATOM     16  H   UNL     1      -3.276  -3.418  -0.127  0.00  0.00    +0.000 HD
ENDBRANCH  14  15
ENDBRANCH   4  14
BRANCH   6  17
ATOM     17  O   UNL     1       0.814   0.404  -0.377  0.00  0.00    +0.000 OA
BRANCH  17  18
ATOM     18  C   UNL     1       1.506   0.447   0.854  0.00  0.00    +0.000 C 
BRANCH  18  19
ATOM     19  C   UNL     1       2.971   0.255   0.591  0.00  0.00    +0.000 A 
ATOM     20  C   UNL     1       3.523  -1.037   0.561  0.00  0.00    +0.000 A 
ATOM     21  C   UNL     1       4.880  -1.217   0.276  0.00  0.00    +0.000 A 
ATOM     22  C   UNL     1       5.692  -0.112   0.007  0.00  0.00    +0.000 A 
ATOM     23  C   UNL     1       5.147   1.175   0.016  0.00  0.00    +0.000 A 
ATOM     24  C   UNL     1       3.790   1.360   0.301  0.00  0.00    +0.000 A 
ENDBRANCH  18  19
ENDBRANCH  17  18
ENDBRANCH   6  17
TORSDOF 8
