REMARK  Name = ZINC000012364260
REMARK  6 active torsions:
REMARK  status: ('A' for Active; 'I' for Inactive)
REMARK    1  A    between atoms: O_2  and  C_3
REMARK    2  A    between atoms: C_3  and  C_38
REMARK    3  A    between atoms: N_4  and  C_5
REMARK    4  A    between atoms: C_7  and  O_9
REMARK    5  A    between atoms: C_18  and  C_20
REMARK    6  A    between atoms: C_34  and  O_36
REMARK                            x       y       z     vdW  Elec       q    Type
REMARK                         _______ _______ _______ _____ _____    ______ ____
ROOT
ATOM      1  C   UNL     1      -0.602   2.206   1.886  0.00  0.00    +0.000 C 
ATOM      2  C   UNL     1      -2.067   2.145   1.381  0.00  0.00    +0.000 C 
ATOM      3  O   UNL     1      -2.337   0.926   0.697  0.00  0.00    +0.000 OA
ATOM      4  C   UNL     1      -1.490   0.778  -0.430  0.00  0.00    +0.000 C 
ATOM      5  C   UNL     1      -1.830  -0.505  -1.173  0.00  0.00    +0.000 C 
ATOM      6  O   UNL     1      -0.943  -0.697  -2.258  0.00  0.00    +0.000 OA
ATOM      7  C   UNL     1       0.418  -0.734  -1.833  0.00  0.00    +0.000 C 
ATOM      8  O   UNL     1       0.800   0.444  -1.126  0.00  0.00    +0.000 OA
ATOM      9  C   UNL     1      -0.028   0.659   0.001  0.00  0.00    +0.000 C 
ATOM     10  C   UNL     1       0.389   1.942   0.736  0.00  0.00    +0.000 C 
ENDROOT
BRANCH   7  11
ATOM     11  C   UNL     1       0.798  -2.024  -1.118  0.00  0.00    +0.000 A 
ATOM     12  C   UNL     1       1.912  -2.060  -0.257  0.00  0.00    +0.000 A 
ATOM     13  C   UNL     1       2.296  -3.257   0.355  0.00  0.00    +0.000 A 
ATOM     14  C   UNL     1       1.593  -4.435   0.094  0.00  0.00    +0.000 A 
ATOM     15  C   UNL     1       0.511  -4.420  -0.790  0.00  0.00    +0.000 A 
ATOM     16  C   UNL     1       0.123  -3.226  -1.404  0.00  0.00    +0.000 A 
ENDBRANCH   7  11
BRANCH   1  18
ATOM     17  C   UNL     1      -0.523   3.866   3.726  0.00  0.00    +0.000 C 
ATOM     18  N   UNL     1      -0.316   3.513   2.489  0.00  0.00    +0.000 NA
ATOM     19  C   UNL     1      -1.066   2.920   4.757  0.00  0.00    +0.000 C 
BRANCH  17  21
ATOM     20  H   UNL     1       0.168   5.835   3.462  0.00  0.00    +0.000 HD
ATOM     21  O   UNL     1      -0.208   5.163   4.121  0.00  0.00    +0.000 OA
ENDBRANCH  17  21
ENDBRANCH   1  18
BRANCH   2  22
ATOM     22  O   UNL     1      -2.366   3.256   0.572  0.00  0.00    +0.000 OA
ATOM     23  H   UNL     1      -3.338   3.206   0.377  0.00  0.00    +0.000 HD
ENDBRANCH   2  22
BRANCH  10  24
ATOM     24  O   UNL     1       0.409   3.036  -0.148  0.00  0.00    +0.000 OA
ATOM     25  H   UNL     1       1.271   2.996  -0.638  0.00  0.00    +0.000 HD
ENDBRANCH  10  24
TORSDOF 5
