REMARK  Name = ZINC000616583702
REMARK  13 active torsions:
REMARK  status: ('A' for Active; 'I' for Inactive)
REMARK    1  A    between atoms: O_2  and  C_3
REMARK    2  A    between atoms: C_3  and  C_42
REMARK    3  A    between atoms: N_4  and  C_5
REMARK    4  A    between atoms: C_7  and  O_9
REMARK    5  A    between atoms: C_11  and  O_13
REMARK    6  A    between atoms: C_15  and  C_17
REMARK    7  A    between atoms: C_17  and  O_20
REMARK    8  A    between atoms: C_23  and  O_25
REMARK    9  A    between atoms: O_25  and  C_26
REMARK   10  A    between atoms: C_26  and  C_29
REMARK   11  A    between atoms: C_29  and  C_32
REMARK   12  A    between atoms: C_32  and  C_35
REMARK   13  A    between atoms: C_35  and  C_38
REMARK                            x       y       z     vdW  Elec       q    Type
REMARK                         _______ _______ _______ _____ _____    ______ ____
ROOT
ATOM      1  C   UNL     1      -1.563   0.987  -0.464  0.00  0.00    +0.000 C 
ATOM      2  C   UNL     1      -2.945   0.397  -0.120  0.00  0.00    +0.000 C 
ATOM      3  C   UNL     1      -3.008  -1.083  -0.554  0.00  0.00    +0.000 C 
ATOM      4  C   UNL     1      -1.772  -1.851  -0.022  0.00  0.00    +0.000 C 
ATOM      5  O   UNL     1      -0.580  -1.223  -0.467  0.00  0.00    +0.000 OA
ATOM      6  C   UNL     1      -0.452   0.076   0.088  0.00  0.00    +0.000 C 
ENDROOT
BRANCH   1   8
ATOM      7  C   UNL     1      -2.004   3.391  -0.377  0.00  0.00    +0.000 C 
ATOM      8  N   UNL     1      -1.417   2.333   0.096  0.00  0.00    +0.000 NA
ATOM      9  C   UNL     1      -1.767   4.717   0.271  0.00  0.00    +0.000 C 
BRANCH   7  11
ATOM     10  H   UNL     1      -3.265   4.128  -1.893  0.00  0.00    +0.000 HD
ATOM     11  O   UNL     1      -2.822   3.305  -1.502  0.00  0.00    +0.000 OA
ENDBRANCH   7  11
ENDBRANCH   1   8
BRANCH   2  12
ATOM     12  O   UNL     1      -3.183   0.514   1.262  0.00  0.00    +0.000 OA
ATOM     13  H   UNL     1      -4.168   0.546   1.381  0.00  0.00    +0.000 HD
ENDBRANCH   2  12
BRANCH   3  14
ATOM     14  O   UNL     1      -4.188  -1.678  -0.079  0.00  0.00    +0.000 OA
ATOM     15  H   UNL     1      -4.937  -1.290  -0.606  0.00  0.00    +0.000 HD
ENDBRANCH   3  14
BRANCH   4  16
ATOM     16  C   UNL     1      -1.757  -3.301  -0.528  0.00  0.00    +0.000 C 
BRANCH  16  17
ATOM     17  O   UNL     1      -2.764  -4.048   0.098  0.00  0.00    +0.000 OA
ATOM     18  H   UNL     1      -2.787  -4.925  -0.369  0.00  0.00    +0.000 HD
ENDBRANCH  16  17
ENDBRANCH   4  16
BRANCH   6  19
ATOM     19  O   UNL     1       0.799   0.615  -0.299  0.00  0.00    +0.000 OA
BRANCH  19  20
ATOM     20  C   UNL     1       1.827   0.113   0.531  0.00  0.00    +0.000 C 
BRANCH  20  21
ATOM     21  C   UNL     1       3.178   0.582  -0.013  0.00  0.00    +0.000 C 
BRANCH  21  22
ATOM     22  C   UNL     1       4.347   0.306   0.954  0.00  0.00    +0.000 C 
BRANCH  22  23
ATOM     23  C   UNL     1       4.609  -1.184   1.240  0.00  0.00    +0.000 C 
ATOM     24  C   UNL     1       5.003  -1.974  -0.007  0.00  0.00    +0.000 C 
ENDBRANCH  22  23
ENDBRANCH  21  22
ENDBRANCH  20  21
ENDBRANCH  19  20
ENDBRANCH   6  19
TORSDOF 11
