REMARK  Name = ZINC000257347639
REMARK  8 active torsions:
REMARK  status: ('A' for Active; 'I' for Inactive)
REMARK    1  A    between atoms: C_1  and  O_2
REMARK    2  A    between atoms: O_2  and  C_3
REMARK    3  A    between atoms: C_8  and  C_9
REMARK    4  A    between atoms: C_17  and  O_18
REMARK    5  A    between atoms: O_18  and  S_19
REMARK    6  A    between atoms: S_19  and  C_20
REMARK    7  A    between atoms: C_23  and  N_24
REMARK    8  A    between atoms: C_25  and  C_27
REMARK                            x       y       z     vdW  Elec       q    Type
REMARK                         _______ _______ _______ _____ _____    ______ ____
ROOT
ATOM      1  C   UNL     1       1.684  -0.900   1.166  0.00  0.00    +0.000 C 
ATOM      2  O   UNL     1       0.912  -1.663   2.086  0.00  0.00    +0.000 OA
ATOM      3  C   UNL     1      -0.425  -1.204   2.088  0.00  0.00    +0.000 C 
ATOM      4  C   UNL     1      -1.240  -1.922   3.160  0.00  0.00    +0.000 C 
ATOM      5  O   UNL     1      -2.596  -1.528   3.081  0.00  0.00    +0.000 OA
ATOM      6  C   UNL     1      -3.123  -1.844   1.799  0.00  0.00    +0.000 C 
ATOM      7  O   UNL     1      -2.450  -1.123   0.776  0.00  0.00    +0.000 OA
ATOM      8  C   UNL     1      -1.091  -1.506   0.739  0.00  0.00    +0.000 C 
ATOM      9  C   UNL     1      -0.342  -0.758  -0.375  0.00  0.00    +0.000 C 
ATOM     10  C   UNL     1       1.162  -1.105  -0.280  0.00  0.00    +0.000 C 
ENDROOT
BRANCH   6  11
ATOM     11  C   UNL     1      -4.575  -1.450   1.776  0.00  0.00    +0.000 A 
ATOM     12  C   UNL     1      -4.938  -0.096   1.895  0.00  0.00    +0.000 A 
ATOM     13  C   UNL     1      -6.285   0.278   1.879  0.00  0.00    +0.000 A 
ATOM     14  C   UNL     1      -7.280  -0.695   1.749  0.00  0.00    +0.000 A 
ATOM     15  C   UNL     1      -6.930  -2.043   1.636  0.00  0.00    +0.000 A 
ATOM     16  C   UNL     1      -5.584  -2.422   1.650  0.00  0.00    +0.000 A 
ENDBRANCH   6  11
BRANCH  10  17
ATOM     17  N   UNL     1       1.930  -0.289  -1.228  0.00  0.00    +0.000 N 
ATOM     18  C   UNL     1       1.894  -0.527  -2.644  0.00  0.00    +0.000 C 
ATOM     19  O   UNL     1       1.444  -1.621  -3.081  0.00  0.00    +0.000 OA
ATOM     20  H   UNL     1       2.549   0.469  -0.860  0.00  0.00    +0.000 HD
BRANCH  18  21
ATOM     21  C   UNL     1       2.384   0.493  -3.600  0.00  0.00    +0.000 A 
ATOM     22  C   UNL     1       2.404   1.858  -3.254  0.00  0.00    +0.000 A 
ATOM     23  C   UNL     1       2.853   2.813  -4.171  0.00  0.00    +0.000 A 
ATOM     24  C   UNL     1       3.282   2.420  -5.441  0.00  0.00    +0.000 A 
ATOM     25  C   UNL     1       3.256   1.070  -5.799  0.00  0.00    +0.000 A 
ATOM     26  C   UNL     1       2.806   0.111  -4.886  0.00  0.00    +0.000 A 
ENDBRANCH  18  21
ENDBRANCH  10  17
BRANCH   1  28
ATOM     27  C   UNL     1       3.662  -0.831   2.371  0.00  0.00    +0.000 C 
ATOM     28  O   UNL     1       3.028  -1.340   1.218  0.00  0.00    +0.000 OA
ENDBRANCH   1  28
BRANCH   9  29
ATOM     29  O   UNL     1      -0.511   0.641  -0.214  0.00  0.00    +0.000 OA
BRANCH  29  30
ATOM     30  S   UNL     1      -1.489   1.273  -1.450  0.00  0.00    +0.000 S 
ATOM     31  C   UNL     1      -1.665   3.021  -1.185  0.00  0.00    +0.000 C 
ATOM     32  O   UNL     1      -0.851   1.048  -2.792  0.00  0.00    +0.000 OA
ATOM     33  O   UNL     1      -2.850   0.636  -1.423  0.00  0.00    +0.000 OA
ENDBRANCH  29  30
ENDBRANCH   9  29
TORSDOF 6
