REMARK  Name = 49802606
REMARK  8 active torsions:
REMARK  status: ('A' for Active; 'I' for Inactive)
REMARK    1  A    between atoms: O_2  and  C_3
REMARK    2  A    between atoms: C_3  and  C_27
REMARK    3  A    between atoms: N_4  and  C_5
REMARK    4  A    between atoms: C_7  and  O_9
REMARK    5  A    between atoms: C_12  and  C_14
REMARK    6  A    between atoms: C_14  and  O_17
REMARK    7  A    between atoms: C_19  and  O_21
REMARK    8  A    between atoms: C_23  and  O_25
REMARK                            x       y       z     vdW  Elec       q    Type
REMARK                         _______ _______ _______ _____ _____    ______ ____
ROOT
ATOM      1  C   UNL     1      -0.440  -0.117  -0.524  0.00  0.00    +0.000 C 
ATOM      2  C   UNL     1      -0.306   0.890   0.646  0.00  0.00    +0.000 C 
ATOM      3  O   UNL     1       1.022   1.381   0.755  0.00  0.00    +0.000 OA
ATOM      4  C   UNL     1       1.946   0.335   1.022  0.00  0.00    +0.000 C 
ATOM      5  C   UNL     1       1.992  -0.665  -0.152  0.00  0.00    +0.000 C 
ATOM      6  C   UNL     1       0.588  -1.252  -0.369  0.00  0.00    +0.000 C 
ENDROOT
BRANCH   1   8
ATOM      7  C   UNL     1      -2.840  -0.050  -1.004  0.00  0.00    +0.000 C 
ATOM      8  N   UNL     1      -1.790  -0.684  -0.571  0.00  0.00    +0.000 NA
BRANCH   7   9
ATOM      9  C   UNL     1      -4.171  -0.739  -1.011  0.00  0.00    +0.000 C 
ATOM     10  F   UNL     1      -5.155   0.139  -0.594  0.00  0.00    +0.000 F 
ATOM     11  F   UNL     1      -4.456  -1.167  -2.294  0.00  0.00    +0.000 F 
ATOM     12  F   UNL     1      -4.160  -1.832  -0.161  0.00  0.00    +0.000 F 
ENDBRANCH   7   9
BRANCH   7  14
ATOM     13  H   UNL     1      -3.531   1.748  -1.862  0.00  0.00    +0.000 HD
ATOM     14  O   UNL     1      -2.726   1.248  -1.503  0.00  0.00    +0.000 OA
ENDBRANCH   7  14
ENDBRANCH   1   8
BRANCH   2  15
ATOM     15  O   UNL     1      -0.724   0.325   1.866  0.00  0.00    +0.000 OA
ATOM     16  H   UNL     1      -1.716   0.360   1.880  0.00  0.00    +0.000 HD
ENDBRANCH   2  15
BRANCH   5  17
ATOM     17  O   UNL     1       2.436  -0.013  -1.317  0.00  0.00    +0.000 OA
ATOM     18  H   UNL     1       2.812  -0.711  -1.915  0.00  0.00    +0.000 HD
ENDBRANCH   5  17
BRANCH   6  19
ATOM     19  O   UNL     1       0.590  -2.067  -1.514  0.00  0.00    +0.000 OA
ATOM     20  H   UNL     1      -0.173  -2.695  -1.424  0.00  0.00    +0.000 HD
ENDBRANCH   6  19
BRANCH   4  21
ATOM     21  C   UNL     1       3.332   0.944   1.279  0.00  0.00    +0.000 C 
BRANCH  21  22
ATOM     22  O   UNL     1       3.315   1.726   2.442  0.00  0.00    +0.000 OA
ATOM     23  H   UNL     1       2.917   2.600   2.192  0.00  0.00    +0.000 HD
ENDBRANCH  21  22
ENDBRANCH   4  21
TORSDOF 8
