REMARK  Name = ZINC000196304985
REMARK  9 active torsions:
REMARK  status: ('A' for Active; 'I' for Inactive)
REMARK    1  A    between atoms: O_2  and  C_3
REMARK    2  A    between atoms: C_3  and  C_30
REMARK    3  A    between atoms: N_4  and  C_5
REMARK    4  A    between atoms: C_7  and  O_9
REMARK    5  A    between atoms: O_9  and  C_10
REMARK    6  A    between atoms: C_15  and  C_17
REMARK    7  A    between atoms: C_17  and  O_20
REMARK    8  A    between atoms: C_22  and  O_24
REMARK    9  A    between atoms: C_26  and  O_28
REMARK                            x       y       z     vdW  Elec       q    Type
REMARK                         _______ _______ _______ _____ _____    ______ ____
ROOT
ATOM      1  C   UNL     1       0.142  -0.124  -0.506  0.00  0.00    +0.000 C 
ATOM      2  C   UNL     1      -0.362  -1.256   0.413  0.00  0.00    +0.000 C 
ATOM      3  O   UNL     1      -1.592  -0.896   1.028  0.00  0.00    +0.000 OA
ATOM      4  C   UNL     1      -1.451   0.242   1.865  0.00  0.00    +0.000 C 
ATOM      5  C   UNL     1      -1.045   1.479   1.032  0.00  0.00    +0.000 C 
ATOM      6  C   UNL     1       0.268   1.198   0.276  0.00  0.00    +0.000 C 
ENDROOT
BRANCH   1   8
ATOM      7  C   UNL     1       1.915  -0.127  -2.239  0.00  0.00    +0.000 C 
ATOM      8  N   UNL     1       1.433  -0.507  -1.090  0.00  0.00    +0.000 NA
ATOM      9  C   UNL     1       1.149   0.763  -3.180  0.00  0.00    +0.000 C 
BRANCH   7  11
ATOM     10  H   UNL     1       3.597  -0.332  -3.494  0.00  0.00    +0.000 HD
ATOM     11  O   UNL     1       3.176  -0.587  -2.609  0.00  0.00    +0.000 OA
ENDBRANCH   7  11
ENDBRANCH   1   8
BRANCH   2  12
ATOM     12  O   UNL     1       0.625  -1.595   1.377  0.00  0.00    +0.000 OA
ATOM     13  C   UNL     1       0.315  -2.835   1.973  0.00  0.00    +0.000 C 
ENDBRANCH   2  12
BRANCH   5  14
ATOM     14  O   UNL     1      -0.889   2.596   1.871  0.00  0.00    +0.000 OA
ATOM     15  H   UNL     1      -0.886   3.396   1.283  0.00  0.00    +0.000 HD
ENDBRANCH   5  14
BRANCH   6  16
ATOM     16  O   UNL     1       1.348   1.121   1.175  0.00  0.00    +0.000 OA
ATOM     17  H   UNL     1       1.641   2.052   1.358  0.00  0.00    +0.000 HD
ENDBRANCH   6  16
BRANCH   4  18
ATOM     18  C   UNL     1      -2.788   0.485   2.581  0.00  0.00    +0.000 C 
BRANCH  18  19
ATOM     19  O   UNL     1      -3.114  -0.613   3.390  0.00  0.00    +0.000 OA
ATOM     20  H   UNL     1      -3.521  -1.296   2.796  0.00  0.00    +0.000 HD
ENDBRANCH  18  19
ENDBRANCH   4  18
TORSDOF 7
