REMARK  Name = ZINC000616582683
REMARK  9 active torsions:
REMARK  status: ('A' for Active; 'I' for Inactive)
REMARK    1  A    between atoms: C_2  and  C_3
REMARK    2  A    between atoms: C_3  and  O_4
REMARK    3  A    between atoms: O_4  and  C_5
REMARK    4  A    between atoms: C_7  and  C_8
REMARK    5  A    between atoms: C_8  and  O_9
REMARK    6  A    between atoms: C_10  and  O_11
REMARK    7  A    between atoms: C_12  and  O_13
REMARK    8  A    between atoms: C_14  and  N_15
REMARK    9  A    between atoms: C_16  and  C_17
REMARK                            x       y       z     vdW  Elec       q    Type
REMARK                         _______ _______ _______ _____ _____    ______ ____
ROOT
ATOM      1  C   UNL     1      -0.704   1.385  -0.059  0.00  0.00    +0.000 C 
ATOM      2  O   UNL     1      -0.932   1.131  -1.439  0.00  0.00    +0.000 OA
ATOM      3  C   UNL     1      -0.194   0.011  -1.905  0.00  0.00    +0.000 C 
ATOM      4  C   UNL     1      -0.649  -1.278  -1.177  0.00  0.00    +0.000 C 
ATOM      5  C   UNL     1      -0.473  -1.109   0.345  0.00  0.00    +0.000 C 
ATOM      6  C   UNL     1      -1.166   0.189   0.803  0.00  0.00    +0.000 C 
ENDROOT
BRANCH   6   7
ATOM      7  N   UNL     1      -0.921   0.448   2.228  0.00  0.00    +0.000 N 
ATOM      8  C   UNL     1      -1.703   1.382   2.986  0.00  0.00    +0.000 C 
ATOM      9  C   UNL     1      -1.363   1.650   4.415  0.00  0.00    +0.000 C 
ATOM     10  O   UNL     1      -2.701   1.952   2.466  0.00  0.00    +0.000 OA
ATOM     11  H   UNL     1      -0.179  -0.087   2.734  0.00  0.00    +0.000 HD
ENDBRANCH   6   7
BRANCH   4  12
ATOM     12  O   UNL     1       0.098  -2.380  -1.624  0.00  0.00    +0.000 OA
ATOM     13  H   UNL     1      -0.393  -3.194  -1.338  0.00  0.00    +0.000 HD
ENDBRANCH   4  12
BRANCH   5  14
ATOM     14  O   UNL     1       0.894  -1.074   0.675  0.00  0.00    +0.000 OA
ATOM     15  H   UNL     1       1.202  -2.015   0.743  0.00  0.00    +0.000 HD
ENDBRANCH   5  14
BRANCH   1  16
ATOM     16  O   UNL     1       0.659   1.682   0.200  0.00  0.00    +0.000 OA
BRANCH  16  17
ATOM     17  C   UNL     1       0.980   2.971  -0.279  0.00  0.00    +0.000 C 
BRANCH  17  19
ATOM     18  C   UNL     1       2.952   3.272   1.183  0.00  0.00    +0.000 C 
ATOM     19  C   UNL     1       2.439   3.231  -0.050  0.00  0.00    +0.000 C 
ENDBRANCH  17  19
ENDBRANCH  16  17
ENDBRANCH   1  16
BRANCH   3  20
ATOM     20  C   UNL     1      -0.414  -0.093  -3.421  0.00  0.00    +0.000 C 
BRANCH  20  21
ATOM     21  O   UNL     1       0.487  -1.004  -3.995  0.00  0.00    +0.000 OA
ATOM     22  H   UNL     1      -0.034  -1.805  -4.261  0.00  0.00    +0.000 HD
ENDBRANCH  20  21
ENDBRANCH   3  20
TORSDOF 8
