REMARK  Name = ZINC000252694384
REMARK  15 active torsions:
REMARK  status: ('A' for Active; 'I' for Inactive)
REMARK    1  A    between atoms: C_1  and  C_2
REMARK    2  A    between atoms: C_2  and  C_3
REMARK    3  A    between atoms: C_3  and  C_4
REMARK    4  A    between atoms: C_4  and  C_5
REMARK    5  A    between atoms: C_5  and  C_6
REMARK    6  A    between atoms: C_6  and  C_7
REMARK    7  A    between atoms: C_7  and  C_8
REMARK    8  A    between atoms: C_8  and  O_9
REMARK    9  A    between atoms: O_9  and  C_10
REMARK   10  A    between atoms: C_12  and  C_13
REMARK   11  A    between atoms: C_13  and  O_14
REMARK   12  A    between atoms: C_15  and  O_16
REMARK   13  A    between atoms: C_17  and  O_18
REMARK   14  A    between atoms: C_19  and  N_20
REMARK   15  A    between atoms: C_21  and  C_22
REMARK                            x       y       z     vdW  Elec       q    Type
REMARK                         _______ _______ _______ _____ _____    ______ ____
ROOT
ATOM      1  C   UNL     1       2.371   1.607   0.542  0.00  0.00    +0.000 C 
ATOM      2  O   UNL     1       3.156   2.727   0.170  0.00  0.00    +0.000 OA
ATOM      3  C   UNL     1       4.527   2.377   0.054  0.00  0.00    +0.000 C 
ATOM      4  C   UNL     1       4.725   1.370  -1.107  0.00  0.00    +0.000 C 
ATOM      5  C   UNL     1       3.848   0.125  -0.881  0.00  0.00    +0.000 C 
ATOM      6  C   UNL     1       2.399   0.557  -0.588  0.00  0.00    +0.000 C 
ENDROOT
BRANCH   6   7
ATOM      7  N   UNL     1       1.578  -0.605  -0.229  0.00  0.00    +0.000 N 
ATOM      8  C   UNL     1       0.638  -1.207  -1.130  0.00  0.00    +0.000 C 
ATOM      9  C   UNL     1      -0.116  -2.429  -0.717  0.00  0.00    +0.000 C 
ATOM     10  O   UNL     1       0.472  -0.741  -2.290  0.00  0.00    +0.000 OA
ATOM     11  H   UNL     1       1.740  -1.065   0.696  0.00  0.00    +0.000 HD
ENDBRANCH   6   7
BRANCH   4  12
ATOM     12  O   UNL     1       6.075   0.991  -1.196  0.00  0.00    +0.000 OA
ATOM     13  H   UNL     1       6.196   0.573  -2.089  0.00  0.00    +0.000 HD
ENDBRANCH   4  12
BRANCH   5  14
ATOM     14  O   UNL     1       4.366  -0.627   0.190  0.00  0.00    +0.000 OA
ATOM     15  H   UNL     1       4.131  -1.577   0.021  0.00  0.00    +0.000 HD
ENDBRANCH   5  14
BRANCH   1  16
ATOM     16  O   UNL     1       1.033   2.051   0.697  0.00  0.00    +0.000 OA
BRANCH  16  17
ATOM     17  C   UNL     1       0.509   1.698   1.961  0.00  0.00    +0.000 C 
BRANCH  17  18
ATOM     18  C   UNL     1      -1.009   1.879   1.949  0.00  0.00    +0.000 C 
BRANCH  18  19
ATOM     19  C   UNL     1      -1.678   0.894   0.979  0.00  0.00    +0.000 C 
BRANCH  19  20
ATOM     20  C   UNL     1      -3.204   1.060   0.982  0.00  0.00    +0.000 C 
BRANCH  20  21
ATOM     21  C   UNL     1      -3.891   0.179  -0.074  0.00  0.00    +0.000 C 
BRANCH  21  22
ATOM     22  C   UNL     1      -3.890  -1.308   0.308  0.00  0.00    +0.000 C 
BRANCH  22  24
ATOM     23  C   UNL     1      -4.590  -3.630  -0.391  0.00  0.00    +0.000 C 
ATOM     24  C   UNL     1      -4.619  -2.146  -0.748  0.00  0.00    +0.000 C 
ENDBRANCH  22  24
ENDBRANCH  21  22
ENDBRANCH  20  21
ENDBRANCH  19  20
ENDBRANCH  18  19
ENDBRANCH  17  18
ENDBRANCH  16  17
ENDBRANCH   1  16
BRANCH   3  25
ATOM     25  C   UNL     1       5.323   3.671  -0.185  0.00  0.00    +0.000 C 
BRANCH  25  26
ATOM     26  O   UNL     1       6.705   3.438  -0.122  0.00  0.00    +0.000 OA
ATOM     27  H   UNL     1       6.931   3.328   0.838  0.00  0.00    +0.000 HD
ENDBRANCH  25  26
ENDBRANCH   3  25
TORSDOF 13
