REMARK  Name = ZINC000616582453
REMARK  13 active torsions:
REMARK  status: ('A' for Active; 'I' for Inactive)
REMARK    1  A    between atoms: C_1  and  C_2
REMARK    2  A    between atoms: C_2  and  C_3
REMARK    3  A    between atoms: C_3  and  C_4
REMARK    4  A    between atoms: C_4  and  C_5
REMARK    5  A    between atoms: C_5  and  C_6
REMARK    6  A    between atoms: C_6  and  O_7
REMARK    7  A    between atoms: O_7  and  C_8
REMARK    8  A    between atoms: C_10  and  C_11
REMARK    9  A    between atoms: C_11  and  O_12
REMARK   10  A    between atoms: C_13  and  O_14
REMARK   11  A    between atoms: C_15  and  O_16
REMARK   12  A    between atoms: C_17  and  N_18
REMARK   13  A    between atoms: C_19  and  C_20
REMARK                            x       y       z     vdW  Elec       q    Type
REMARK                         _______ _______ _______ _____ _____    ______ ____
ROOT
ATOM      1  C   UNL     1       1.157   0.139   0.252  0.00  0.00    +0.000 C 
ATOM      2  O   UNL     1       2.195   1.010   0.672  0.00  0.00    +0.000 OA
ATOM      3  C   UNL     1       3.381   0.778  -0.070  0.00  0.00    +0.000 C 
ATOM      4  C   UNL     1       3.157   1.145  -1.559  0.00  0.00    +0.000 C 
ATOM      5  C   UNL     1       1.977   0.337  -2.130  0.00  0.00    +0.000 C 
ATOM      6  C   UNL     1       0.754   0.466  -1.201  0.00  0.00    +0.000 C 
ENDROOT
BRANCH   6   7
ATOM      7  N   UNL     1      -0.329  -0.417  -1.648  0.00  0.00    +0.000 N 
ATOM      8  C   UNL     1      -1.181  -0.089  -2.752  0.00  0.00    +0.000 C 
ATOM      9  C   UNL     1      -2.267  -1.031  -3.159  0.00  0.00    +0.000 C 
ATOM     10  O   UNL     1      -1.017   0.986  -3.391  0.00  0.00    +0.000 OA
ATOM     11  H   UNL     1      -0.494  -1.321  -1.148  0.00  0.00    +0.000 HD
ENDBRANCH   6   7
BRANCH   4  12
ATOM     12  O   UNL     1       4.319   0.883  -2.304  0.00  0.00    +0.000 OA
ATOM     13  H   UNL     1       4.223   1.370  -3.164  0.00  0.00    +0.000 HD
ENDBRANCH   4  12
BRANCH   5  14
ATOM     14  O   UNL     1       2.353  -1.013  -2.264  0.00  0.00    +0.000 OA
ATOM     15  H   UNL     1       1.788  -1.403  -2.980  0.00  0.00    +0.000 HD
ENDBRANCH   5  14
BRANCH   1  16
ATOM     16  O   UNL     1       0.028   0.346   1.079  0.00  0.00    +0.000 OA
BRANCH  16  17
ATOM     17  C   UNL     1       0.158  -0.346   2.308  0.00  0.00    +0.000 C 
BRANCH  17  18
ATOM     18  C   UNL     1      -0.528  -1.719   2.242  0.00  0.00    +0.000 C 
BRANCH  18  19
ATOM     19  C   UNL     1      -1.995  -1.656   1.782  0.00  0.00    +0.000 C 
BRANCH  19  20
ATOM     20  C   UNL     1      -2.910  -0.968   2.805  0.00  0.00    +0.000 C 
BRANCH  20  22
ATOM     21  C   UNL     1      -5.291  -0.357   3.376  0.00  0.00    +0.000 C 
ATOM     22  C   UNL     1      -4.378  -1.052   2.371  0.00  0.00    +0.000 C 
ENDBRANCH  20  22
ENDBRANCH  19  20
ENDBRANCH  18  19
ENDBRANCH  17  18
ENDBRANCH  16  17
ENDBRANCH   1  16
BRANCH   3  23
ATOM     23  C   UNL     1       4.499   1.625   0.554  0.00  0.00    +0.000 C 
BRANCH  23  24
ATOM     24  O   UNL     1       5.742   1.270   0.015  0.00  0.00    +0.000 OA
ATOM     25  H   UNL     1       6.410   1.861   0.450  0.00  0.00    +0.000 HD
ENDBRANCH  23  24
ENDBRANCH   3  23
TORSDOF 11
