REMARK  Name = 52944903
REMARK  14 active torsions:
REMARK  status: ('A' for Active; 'I' for Inactive)
REMARK    1  A    between atoms: C_1  and  O_2
REMARK    2  A    between atoms: O_2  and  C_3
REMARK    3  A    between atoms: C_3  and  C_4
REMARK    4  A    between atoms: C_6  and  O_7
REMARK    5  A    between atoms: O_7  and  C_8
REMARK    6  A    between atoms: C_8  and  C_9
REMARK    7  A    between atoms: C_19  and  N_20
REMARK    8  A    between atoms: N_20  and  C_21
REMARK    9  A    between atoms: C_21  and  C_22
REMARK   10  A    between atoms: C_22  and  N_23
REMARK   11  A    between atoms: C_24  and  O_25
REMARK   12  A    between atoms: O_25  and  C_26
REMARK   13  A    between atoms: C_26  and  C_27
REMARK   14  A    between atoms: C_33  and  O_34
REMARK                            x       y       z     vdW  Elec       q    Type
REMARK                         _______ _______ _______ _____ _____    ______ ____
ROOT
ATOM      1  C   UNL     1      -0.452  -0.653   0.424  0.00  0.00    +0.000 C 
ATOM      2  O   UNL     1       0.936  -0.394   0.372  0.00  0.00    +0.000 OA
ATOM      3  C   UNL     1       1.205   0.758  -0.409  0.00  0.00    +0.000 C 
ATOM      4  C   UNL     1       0.858   0.470  -1.890  0.00  0.00    +0.000 C 
ATOM      5  C   UNL     1      -0.629   0.059  -1.993  0.00  0.00    +0.000 C 
ATOM      6  C   UNL     1      -0.953  -1.058  -0.980  0.00  0.00    +0.000 C 
ENDROOT
BRANCH   4   7
ATOM      7  N   UNL     1       1.093   1.661  -2.738  0.00  0.00    +0.000 NA
ATOM      8  H   UNL     1       1.686   2.361  -2.234  0.00  0.00    +0.000 HD
BRANCH   7   9
ATOM      9  C   UNL     1       1.784   1.315  -3.988  0.00  0.00    +0.000 C 
BRANCH   9  10
ATOM     10  C   UNL     1       1.671   2.457  -5.010  0.00  0.00    +0.000 C 
BRANCH  10  11
ATOM     11  N   UNL     1       2.390   3.658  -4.587  0.00  0.00    +0.000 NA
ATOM     12  H   UNL     1       3.356   3.390  -4.285  0.00  0.00    +0.000 HD
ATOM     13  H   UNL     1       1.899   4.082  -3.767  0.00  0.00    +0.000 HD
ENDBRANCH  10  11
ENDBRANCH   9  10
ENDBRANCH   7   9
ENDBRANCH   4   7
BRANCH   6  14
ATOM     14  O   UNL     1      -2.340  -1.275  -0.944  0.00  0.00    +0.000 OA
ATOM     15  H   UNL     1      -2.555  -1.898  -1.687  0.00  0.00    +0.000 HD
ENDBRANCH   6  14
BRANCH   1  16
ATOM     16  C   UNL     1      -0.681  -1.771   1.457  0.00  0.00    +0.000 C 
BRANCH  16  18
ATOM     17  C   UNL     1      -2.406  -1.221   2.913  0.00  0.00    +0.000 C 
ATOM     18  O   UNL     1      -2.061  -1.927   1.740  0.00  0.00    +0.000 OA
ENDBRANCH  16  18
ENDBRANCH   1  16
BRANCH   3  19
ATOM     19  O   UNL     1       2.591   1.047  -0.306  0.00  0.00    +0.000 OA
BRANCH  19  20
ATOM     20  C   UNL     1       2.863   1.890   0.802  0.00  0.00    +0.000 C 
BRANCH  20  21
ATOM     21  C   UNL     1       2.562   1.210   2.116  0.00  0.00    +0.000 A 
ATOM     22  C   UNL     1       3.367   0.148   2.557  0.00  0.00    +0.000 A 
ATOM     23  C   UNL     1       3.024  -0.570   3.706  0.00  0.00    +0.000 A 
ATOM     24  C   UNL     1       1.864  -0.243   4.422  0.00  0.00    +0.000 A 
ATOM     25  C   UNL     1       1.492  -0.978   5.559  0.00  0.00    +0.000 A 
ATOM     26  C   UNL     1       0.323  -0.654   6.252  0.00  0.00    +0.000 A 
ATOM     27  C   UNL     1      -0.480   0.406   5.822  0.00  0.00    +0.000 A 
ATOM     28  C   UNL     1      -0.119   1.148   4.694  0.00  0.00    +0.000 A 
ATOM     29  C   UNL     1       1.050   0.830   3.986  0.00  0.00    +0.000 A 
ATOM     30  C   UNL     1       1.408   1.551   2.838  0.00  0.00    +0.000 A 
ENDBRANCH  20  21
ENDBRANCH  19  20
ENDBRANCH   3  19
BRANCH   5  31
ATOM     31  O   UNL     1      -0.898  -0.423  -3.303  0.00  0.00    +0.000 OA
BRANCH  31  32
ATOM     32  C   UNL     1      -1.710   0.473  -4.040  0.00  0.00    +0.000 C 
BRANCH  32  33
ATOM     33  C   UNL     1      -3.165   0.222  -3.751  0.00  0.00    +0.000 A 
ATOM     34  C   UNL     1      -3.898   1.110  -2.947  0.00  0.00    +0.000 A 
ATOM     35  C   UNL     1      -5.239   0.846  -2.650  0.00  0.00    +0.000 A 
ATOM     36  C   UNL     1      -5.854  -0.305  -3.148  0.00  0.00    +0.000 A 
ATOM     37  C   UNL     1      -5.129  -1.196  -3.945  0.00  0.00    +0.000 A 
ATOM     38  C   UNL     1      -3.788  -0.937  -4.243  0.00  0.00    +0.000 A 
ENDBRANCH  32  33
ENDBRANCH  31  32
ENDBRANCH   5  31
TORSDOF 13
