REMARK  Name = ZINC000257346145
REMARK  5 active torsions:
REMARK  status: ('A' for Active; 'I' for Inactive)
REMARK    1  A    between atoms: C_1  and  O_2
REMARK    2  A    between atoms: O_2  and  C_3
REMARK    3  A    between atoms: C_8  and  C_9
REMARK    4  A    between atoms: C_17  and  O_18
REMARK    5  A    between atoms: C_19  and  N_20
REMARK                            x       y       z     vdW  Elec       q    Type
REMARK                         _______ _______ _______ _____ _____    ______ ____
ROOT
ATOM      1  C   UNL     1       2.546   0.636   1.977  0.00  0.00    +0.000 C 
ATOM      2  O   UNL     1       2.587   0.590   0.557  0.00  0.00    +0.000 OA
ATOM      3  C   UNL     1       1.957  -0.587   0.085  0.00  0.00    +0.000 C 
ATOM      4  C   UNL     1       2.119  -0.709  -1.441  0.00  0.00    +0.000 C 
ATOM      5  O   UNL     1       0.884  -0.957  -2.088  0.00  0.00    +0.000 OA
ATOM      6  C   UNL     1       0.196  -2.017  -1.437  0.00  0.00    +0.000 C 
ATOM      7  O   UNL     1      -0.206  -1.699  -0.104  0.00  0.00    +0.000 OA
ATOM      8  C   UNL     1       0.452  -0.552   0.404  0.00  0.00    +0.000 C 
ATOM      9  C   UNL     1       0.250  -0.447   1.924  0.00  0.00    +0.000 C 
ATOM     10  C   UNL     1       1.081   0.735   2.468  0.00  0.00    +0.000 C 
ENDROOT
BRANCH   6  11
ATOM     11  C   UNL     1      -1.033  -2.350  -2.240  0.00  0.00    +0.000 A 
ATOM     12  C   UNL     1      -2.059  -1.400  -2.380  0.00  0.00    +0.000 A 
ATOM     13  C   UNL     1      -3.200  -1.699  -3.130  0.00  0.00    +0.000 A 
ATOM     14  C   UNL     1      -3.326  -2.946  -3.748  0.00  0.00    +0.000 A 
ATOM     15  C   UNL     1      -2.309  -3.895  -3.618  0.00  0.00    +0.000 A 
ATOM     16  C   UNL     1      -1.165  -3.601  -2.869  0.00  0.00    +0.000 A 
ENDBRANCH   6  11
BRANCH  10  17
ATOM     17  N   UNL     1       1.026   0.766   3.935  0.00  0.00    +0.000 N 
ATOM     18  C   UNL     1      -0.129   1.211   4.652  0.00  0.00    +0.000 C 
ATOM     19  O   UNL     1      -1.153   1.619   4.043  0.00  0.00    +0.000 OA
ATOM     20  H   UNL     1       1.864   0.483   4.494  0.00  0.00    +0.000 HD
ENDBRANCH  10  17
BRANCH   1  22
ATOM     21  C   UNL     1       4.633   1.581   2.325  0.00  0.00    +0.000 C 
ATOM     22  O   UNL     1       3.241   1.786   2.422  0.00  0.00    +0.000 OA
ENDBRANCH   1  22
BRANCH   9  23
ATOM     23  O   UNL     1       0.645  -1.639   2.557  0.00  0.00    +0.000 OA
ATOM     24  H   UNL     1      -0.111  -2.276   2.473  0.00  0.00    +0.000 HD
ENDBRANCH   9  23
TORSDOF 4
