REMARK  Name = ZINC000616591357
REMARK  7 active torsions:
REMARK  status: ('A' for Active; 'I' for Inactive)
REMARK    1  A    between atoms: O_2  and  C_3
REMARK    2  A    between atoms: C_3  and  C_41
REMARK    3  A    between atoms: N_4  and  C_5
REMARK    4  A    between atoms: C_7  and  O_9
REMARK    5  A    between atoms: C_14  and  C_16
REMARK    6  A    between atoms: C_34  and  O_36
REMARK    7  A    between atoms: O_36  and  C_37
REMARK                            x       y       z     vdW  Elec       q    Type
REMARK                         _______ _______ _______ _____ _____    ______ ____
ROOT
ATOM      1  C   UNL     1      -2.369   0.156   0.414  0.00  0.00    +0.000 C 
ATOM      2  C   UNL     1      -1.017   0.783  -0.000  0.00  0.00    +0.000 C 
ATOM      3  C   UNL     1       0.125  -0.059   0.589  0.00  0.00    +0.000 C 
ATOM      4  O   UNL     1       1.381   0.401   0.134  0.00  0.00    +0.000 OA
ATOM      5  C   UNL     1       2.413  -0.385   0.716  0.00  0.00    +0.000 C 
ATOM      6  O   UNL     1       2.323  -1.740   0.298  0.00  0.00    +0.000 OA
ATOM      7  C   UNL     1       1.109  -2.309   0.748  0.00  0.00    +0.000 C 
ATOM      8  C   UNL     1      -0.074  -1.526   0.186  0.00  0.00    +0.000 C 
ATOM      9  O   UNL     1      -1.293  -2.015   0.714  0.00  0.00    +0.000 OA
ATOM     10  C   UNL     1      -2.390  -1.357   0.091  0.00  0.00    +0.000 C 
ENDROOT
BRANCH   5  11
ATOM     11  C   UNL     1       3.740   0.164   0.262  0.00  0.00    +0.000 A 
ATOM     12  C   UNL     1       4.687   0.623   1.194  0.00  0.00    +0.000 A 
ATOM     13  C   UNL     1       5.916   1.129   0.759  0.00  0.00    +0.000 A 
ATOM     14  C   UNL     1       6.210   1.181  -0.606  0.00  0.00    +0.000 A 
ATOM     15  C   UNL     1       5.275   0.726  -1.540  0.00  0.00    +0.000 A 
ATOM     16  C   UNL     1       4.045   0.219  -1.110  0.00  0.00    +0.000 A 
ENDBRANCH   5  11
BRANCH   1  18
ATOM     17  C   UNL     1      -3.931   1.998   0.022  0.00  0.00    +0.000 C 
ATOM     18  N   UNL     1      -3.478   0.818  -0.279  0.00  0.00    +0.000 NA
ATOM     19  C   UNL     1      -5.052   2.581  -0.776  0.00  0.00    +0.000 C 
BRANCH  17  21
ATOM     20  H   UNL     1      -3.703   3.659   1.295  0.00  0.00    +0.000 HD
ATOM     21  O   UNL     1      -3.366   2.732   1.064  0.00  0.00    +0.000 OA
ENDBRANCH  17  21
ENDBRANCH   1  18
BRANCH   2  22
ATOM     22  O   UNL     1      -0.922   0.833  -1.403  0.00  0.00    +0.000 OA
ATOM     23  H   UNL     1      -0.246   1.526  -1.622  0.00  0.00    +0.000 HD
ENDBRANCH   2  22
BRANCH  10  24
ATOM     24  O   UNL     1      -3.598  -1.899   0.593  0.00  0.00    +0.000 OA
ATOM     25  C   UNL     1      -3.837  -3.166   0.019  0.00  0.00    +0.000 C 
ENDBRANCH  10  24
TORSDOF 5
