REMARK  Name = ZINC000616589990
REMARK  7 active torsions:
REMARK  status: ('A' for Active; 'I' for Inactive)
REMARK    1  A    between atoms: C_1  and  C_2
REMARK    2  A    between atoms: C_2  and  O_3
REMARK    3  A    between atoms: O_3  and  C_4
REMARK    4  A    between atoms: C_6  and  C_7
REMARK    5  A    between atoms: C_10  and  O_11
REMARK    6  A    between atoms: C_12  and  O_13
REMARK    7  A    between atoms: C_14  and  N_15
REMARK                            x       y       z     vdW  Elec       q    Type
REMARK                         _______ _______ _______ _____ _____    ______ ____
ROOT
ATOM      1  C   UNL     1       1.128   0.836   0.821  0.00  0.00    +0.000 C 
ATOM      2  O   UNL     1      -0.173   0.280   0.673  0.00  0.00    +0.000 OA
ATOM      3  C   UNL     1      -1.137   1.308   0.538  0.00  0.00    +0.000 C 
ATOM      4  C   UNL     1      -1.014   1.992  -0.851  0.00  0.00    +0.000 C 
ATOM      5  C   UNL     1       0.395   1.774  -1.451  0.00  0.00    +0.000 C 
ATOM      6  C   UNL     1       1.491   1.787  -0.366  0.00  0.00    +0.000 C 
ENDROOT
BRANCH   3   7
ATOM      7  C   UNL     1      -2.507   0.724   0.716  0.00  0.00    +0.000 C 
ATOM      8  O   UNL     1      -2.796  -0.391   0.203  0.00  0.00    +0.000 OA
ATOM      9  O   UNL     1      -3.481   1.434   1.405  0.00  0.00    +0.000 OA
ENDBRANCH   3   7
BRANCH   6  10
ATOM     10  N   UNL     1       1.744   3.157   0.098  0.00  0.00    +0.000 NA
ATOM     11  H   UNL     1       0.941   3.491   0.677  0.00  0.00    +0.000 HD
ATOM     12  H   UNL     1       2.587   3.146   0.717  0.00  0.00    +0.000 HD
ENDBRANCH   6  10
BRANCH   4  13
ATOM     13  O   UNL     1      -1.282   3.367  -0.734  0.00  0.00    +0.000 OA
ATOM     14  H   UNL     1      -2.261   3.457  -0.600  0.00  0.00    +0.000 HD
ENDBRANCH   4  13
BRANCH   5  15
ATOM     15  O   UNL     1       0.679   2.733  -2.438  0.00  0.00    +0.000 OA
ATOM     16  H   UNL     1       0.102   2.521  -3.217  0.00  0.00    +0.000 HD
ENDBRANCH   5  15
BRANCH   1  17
ATOM     17  O   UNL     1       2.073  -0.219   0.849  0.00  0.00    +0.000 OA
BRANCH  17  19
ATOM     18  C   UNL     1       2.973  -2.081   2.049  0.00  0.00    +0.000 C 
ATOM     19  C   UNL     1       2.036  -0.884   2.095  0.00  0.00    +0.000 C 
ENDBRANCH  17  19
ENDBRANCH   1  17
TORSDOF 6
