REMARK  Name = ZINC000616582683
REMARK  10 active torsions:
REMARK  status: ('A' for Active; 'I' for Inactive)
REMARK    1  A    between atoms: O_2  and  C_3
REMARK    2  A    between atoms: C_3  and  C_34
REMARK    3  A    between atoms: N_4  and  C_5
REMARK    4  A    between atoms: C_7  and  O_9
REMARK    5  A    between atoms: O_9  and  C_10
REMARK    6  A    between atoms: C_10  and  C_13
REMARK    7  A    between atoms: C_19  and  C_21
REMARK    8  A    between atoms: C_21  and  O_24
REMARK    9  A    between atoms: C_26  and  O_28
REMARK   10  A    between atoms: C_30  and  O_32
REMARK                            x       y       z     vdW  Elec       q    Type
REMARK                         _______ _______ _______ _____ _____    ______ ____
ROOT
ATOM      1  C   UNL     1      -0.011  -0.708   0.127  0.00  0.00    +0.000 C 
ATOM      2  C   UNL     1      -1.015  -1.087  -0.981  0.00  0.00    +0.000 C 
ATOM      3  O   UNL     1      -0.416  -0.978  -2.266  0.00  0.00    +0.000 OA
ATOM      4  C   UNL     1      -0.011   0.354  -2.546  0.00  0.00    +0.000 C 
ATOM      5  C   UNL     1       1.082   0.815  -1.553  0.00  0.00    +0.000 C 
ATOM      6  C   UNL     1       0.559   0.708  -0.111  0.00  0.00    +0.000 C 
ENDROOT
BRANCH   1   8
ATOM      7  C   UNL     1      -0.033  -0.860   2.569  0.00  0.00    +0.000 C 
ATOM      8  N   UNL     1      -0.665  -0.801   1.435  0.00  0.00    +0.000 NA
ATOM      9  C   UNL     1      -0.812  -0.925   3.843  0.00  0.00    +0.000 C 
BRANCH   7  11
ATOM     10  H   UNL     1       1.861  -0.867   3.489  0.00  0.00    +0.000 HD
ATOM     11  O   UNL     1       1.361  -0.838   2.608  0.00  0.00    +0.000 OA
ENDBRANCH   7  11
ENDBRANCH   1   8
BRANCH   5  12
ATOM     12  O   UNL     1       1.455   2.141  -1.831  0.00  0.00    +0.000 OA
ATOM     13  H   UNL     1       2.316   2.300  -1.364  0.00  0.00    +0.000 HD
ENDBRANCH   5  12
BRANCH   6  14
ATOM     14  O   UNL     1      -0.426   1.687   0.111  0.00  0.00    +0.000 OA
ATOM     15  H   UNL     1      -0.446   1.863   1.088  0.00  0.00    +0.000 HD
ENDBRANCH   6  14
BRANCH   2  16
ATOM     16  O   UNL     1      -2.187  -0.292  -0.881  0.00  0.00    +0.000 OA
BRANCH  16  17
ATOM     17  C   UNL     1      -3.235  -0.867  -1.633  0.00  0.00    +0.000 C 
BRANCH  17  18
ATOM     18  C   UNL     1      -4.433   0.031  -1.573  0.00  0.00    +0.000 C 
ATOM     19  C   UNL     1      -5.053   0.288  -0.418  0.00  0.00    +0.000 C 
ENDBRANCH  17  18
ENDBRANCH  16  17
ENDBRANCH   2  16
BRANCH   4  20
ATOM     20  C   UNL     1       0.481   0.418  -4.000  0.00  0.00    +0.000 C 
BRANCH  20  21
ATOM     21  O   UNL     1       1.529  -0.490  -4.217  0.00  0.00    +0.000 OA
ATOM     22  H   UNL     1       2.376   0.004  -4.065  0.00  0.00    +0.000 HD
ENDBRANCH  20  21
ENDBRANCH   4  20
TORSDOF 9
