REMARK  Name = ZINC000394934764
REMARK  7 active torsions:
REMARK  status: ('A' for Active; 'I' for Inactive)
REMARK    1  A    between atoms: O_2  and  C_3
REMARK    2  A    between atoms: C_3  and  C_6
REMARK    3  A    between atoms: C_9  and  O_11
REMARK    4  A    between atoms: O_11  and  C_12
REMARK    5  A    between atoms: C_16  and  N_18
REMARK    6  A    between atoms: C_21  and  O_23
REMARK    7  A    between atoms: C_25  and  O_27
REMARK                            x       y       z     vdW  Elec       q    Type
REMARK                         _______ _______ _______ _____ _____    ______ ____
ROOT
ATOM      1  C   UNL     1       0.577  -2.051   1.496  0.00  0.00    +0.000 C 
ATOM      2  O   UNL     1      -0.700  -2.001   0.875  0.00  0.00    +0.000 OA
ATOM      3  C   UNL     1      -1.178  -0.667   0.756  0.00  0.00    +0.000 C 
ATOM      4  C   UNL     1      -1.358  -0.024   2.150  0.00  0.00    +0.000 C 
ATOM      5  C   UNL     1      -0.049  -0.090   2.958  0.00  0.00    +0.000 C 
ATOM      6  C   UNL     1       0.492  -1.528   2.950  0.00  0.00    +0.000 C 
ENDROOT
BRANCH   4   7
ATOM      7  N   UNL     1      -1.808   1.361   2.035  0.00  0.00    +0.000 NA
ATOM      8  N   UNL     1      -2.899   1.638   1.535  0.00  0.00    +0.000 NA
ATOM      9  N   UNL     1      -3.988   1.913   1.035  0.00  0.00    +0.000 NA
ENDBRANCH   4   7
BRANCH   3  10
ATOM     10  O   UNL     1      -0.321   0.126  -0.051  0.00  0.00    +0.000 OA
ATOM     11  C   UNL     1      -0.441  -0.256  -1.405  0.00  0.00    +0.000 C 
ENDBRANCH   3  10
BRANCH   5  12
ATOM     12  O   UNL     1       0.915   0.781   2.417  0.00  0.00    +0.000 OA
ATOM     13  H   UNL     1       0.744   1.681   2.802  0.00  0.00    +0.000 HD
ENDBRANCH   5  12
BRANCH   6  14
ATOM     14  O   UNL     1       1.761  -1.543   3.556  0.00  0.00    +0.000 OA
ATOM     15  H   UNL     1       1.834  -2.393   4.065  0.00  0.00    +0.000 HD
ENDBRANCH   6  14
BRANCH   1  16
ATOM     16  C   UNL     1       1.071  -3.505   1.465  0.00  0.00    +0.000 C 
BRANCH  16  18
ATOM     17  H   UNL     1       0.265  -4.241  -0.137  0.00  0.00    +0.000 HD
ATOM     18  O   UNL     1       1.174  -3.958   0.141  0.00  0.00    +0.000 OA
ENDBRANCH  16  18
ENDBRANCH   1  16
TORSDOF 6
