REMARK  Name = 49859685
REMARK  8 active torsions:
REMARK  status: ('A' for Active; 'I' for Inactive)
REMARK    1  A    between atoms: C_1  and  C_2
REMARK    2  A    between atoms: N_4  and  C_5
REMARK    3  A    between atoms: C_6  and  O_7
REMARK    4  A    between atoms: O_7  and  P_8
REMARK    5  A    between atoms: C_13  and  C_14
REMARK    6  A    between atoms: C_14  and  O_15
REMARK    7  A    between atoms: C_16  and  O_17
REMARK    8  A    between atoms: C_18  and  O_19
REMARK                            x       y       z     vdW  Elec       q    Type
REMARK                         _______ _______ _______ _____ _____    ______ ____
ROOT
ATOM      1  C   UNL     1      -0.270   0.817   0.739  0.00  0.00    +0.000 C 
ATOM      2  C   UNL     1       1.145   0.194   0.729  0.00  0.00    +0.000 C 
ATOM      3  O   UNL     1       1.191  -0.926  -0.143  0.00  0.00    +0.000 OA
ATOM      4  C   UNL     1       0.935  -0.583  -1.500  0.00  0.00    +0.000 C 
ATOM      5  C   UNL     1      -0.446   0.109  -1.677  0.00  0.00    +0.000 C 
ATOM      6  C   UNL     1      -0.655   1.266  -0.681  0.00  0.00    +0.000 C 
ENDROOT
BRANCH   1  10
ATOM      7  C   UNL     1      -3.512  -0.742   2.249  0.00  0.00    +0.000 C 
ATOM      8  C   UNL     1      -2.540   0.277   1.752  0.00  0.00    +0.000 C 
ATOM      9  O   UNL     1      -2.844   1.500   1.794  0.00  0.00    +0.000 OA
ATOM     10  N   UNL     1      -1.257  -0.137   1.261  0.00  0.00    +0.000 N 
ATOM     11  H   UNL     1      -1.022  -1.155   1.302  0.00  0.00    +0.000 HD
ENDBRANCH   1  10
BRANCH   5  12
ATOM     12  O   UNL     1      -0.625   0.568  -2.992  0.00  0.00    +0.000 OA
ATOM     13  H   UNL     1      -0.767  -0.235  -3.559  0.00  0.00    +0.000 HD
ENDBRANCH   5  12
BRANCH   6  14
ATOM     14  O   UNL     1       0.111   2.388  -1.040  0.00  0.00    +0.000 OA
ATOM     15  H   UNL     1      -0.383   2.861  -1.760  0.00  0.00    +0.000 HD
ENDBRANCH   6  14
BRANCH   2  16
ATOM     16  O   UNL     1       1.452  -0.268   2.032  0.00  0.00    +0.000 OA
BRANCH  16  17
ATOM     17  P   UNL     1       2.488   0.828   2.836  0.00  0.00    +0.000 P 
ATOM     18  O   UNL     1       1.848   2.196   2.917  0.00  0.00    +0.000 OA
ATOM     19  O   UNL     1       2.779   0.262   4.402  0.00  0.00    +0.000 OA
ATOM     20  O   UNL     1       3.960   0.940   2.009  0.00  0.00    +0.000 OA
ENDBRANCH  16  17
ENDBRANCH   2  16
BRANCH   4  21
ATOM     21  C   UNL     1       2.130   0.155  -2.145  0.00  0.00    +0.000 C 
BRANCH  21  22
ATOM     22  O   UNL     1       2.074   0.039  -3.540  0.00  0.00    +0.000 OA
ATOM     23  H   UNL     1       2.868   0.521  -3.890  0.00  0.00    +0.000 HD
ENDBRANCH  21  22
ENDBRANCH   4  21
TORSDOF 7
