REMARK  Name = ZINC000257347639
REMARK  9 active torsions:
REMARK  status: ('A' for Active; 'I' for Inactive)
REMARK    1  A    between atoms: O_2  and  C_3
REMARK    2  A    between atoms: C_3  and  C_47
REMARK    3  A    between atoms: N_4  and  C_5
REMARK    4  A    between atoms: C_7  and  O_9
REMARK    5  A    between atoms: O_9  and  S_10
REMARK    6  A    between atoms: S_10  and  C_13
REMARK    7  A    between atoms: C_20  and  C_22
REMARK    8  A    between atoms: C_40  and  O_42
REMARK    9  A    between atoms: O_42  and  C_43
REMARK                            x       y       z     vdW  Elec       q    Type
REMARK                         _______ _______ _______ _____ _____    ______ ____
ROOT
ATOM      1  C   UNL     1      -0.979   1.805   0.508  0.00  0.00    +0.000 C 
ATOM      2  C   UNL     1      -0.436   0.716  -0.443  0.00  0.00    +0.000 C 
ATOM      3  C   UNL     1      -1.340  -0.516  -0.327  0.00  0.00    +0.000 C 
ATOM      4  O   UNL     1      -0.961  -1.506  -1.259  0.00  0.00    +0.000 OA
ATOM      5  C   UNL     1      -1.789  -2.651  -1.097  0.00  0.00    +0.000 C 
ATOM      6  O   UNL     1      -3.146  -2.347  -1.394  0.00  0.00    +0.000 OA
ATOM      7  C   UNL     1      -3.639  -1.375  -0.490  0.00  0.00    +0.000 C 
ATOM      8  C   UNL     1      -2.798  -0.103  -0.577  0.00  0.00    +0.000 C 
ATOM      9  O   UNL     1      -3.219   0.846   0.388  0.00  0.00    +0.000 OA
ATOM     10  C   UNL     1      -2.482   2.053   0.242  0.00  0.00    +0.000 C 
ENDROOT
BRANCH   5  11
ATOM     11  C   UNL     1      -1.323  -3.717  -2.055  0.00  0.00    +0.000 A 
ATOM     12  C   UNL     1      -1.189  -3.424  -3.423  0.00  0.00    +0.000 A 
ATOM     13  C   UNL     1      -0.770  -4.413  -4.319  0.00  0.00    +0.000 A 
ATOM     14  C   UNL     1      -0.496  -5.705  -3.860  0.00  0.00    +0.000 A 
ATOM     15  C   UNL     1      -0.639  -6.009  -2.503  0.00  0.00    +0.000 A 
ATOM     16  C   UNL     1      -1.052  -5.022  -1.603  0.00  0.00    +0.000 A 
ENDBRANCH   5  11
BRANCH   1  18
ATOM     17  C   UNL     1       0.889   3.384   0.899  0.00  0.00    +0.000 C 
ATOM     18  N   UNL     1      -0.230   3.052   0.319  0.00  0.00    +0.000 NA
BRANCH  17  19
ATOM     19  C   UNL     1       1.522   2.554   1.941  0.00  0.00    +0.000 A 
ATOM     20  C   UNL     1       2.766   1.948   1.700  0.00  0.00    +0.000 A 
ATOM     21  C   UNL     1       3.399   1.215   2.711  0.00  0.00    +0.000 A 
ATOM     22  C   UNL     1       2.794   1.089   3.963  0.00  0.00    +0.000 A 
ATOM     23  C   UNL     1       1.560   1.697   4.211  0.00  0.00    +0.000 A 
ATOM     24  C   UNL     1       0.931   2.439   3.208  0.00  0.00    +0.000 A 
ENDBRANCH  17  19
BRANCH  17  26
ATOM     25  H   UNL     1       1.140   5.157  -0.206  0.00  0.00    +0.000 HD
ATOM     26  O   UNL     1       1.522   4.567   0.525  0.00  0.00    +0.000 OA
ENDBRANCH  17  26
ENDBRANCH   1  18
BRANCH  10  27
ATOM     27  O   UNL     1      -2.955   2.973   1.215  0.00  0.00    +0.000 OA
ATOM     28  C   UNL     1      -3.528   4.104   0.604  0.00  0.00    +0.000 C 
ENDBRANCH  10  27
BRANCH   2  29
ATOM     29  O   UNL     1      -0.463   1.196  -1.778  0.00  0.00    +0.000 OA
BRANCH  29  30
ATOM     30  S   UNL     1       1.081   1.119  -2.477  0.00  0.00    +0.000 S 
ATOM     31  O   UNL     1       2.067   1.914  -1.667  0.00  0.00    +0.000 OA
ATOM     32  O   UNL     1       1.538  -0.307  -2.575  0.00  0.00    +0.000 OA
ATOM     33  C   UNL     1       0.993   1.813  -4.110  0.00  0.00    +0.000 C 
ENDBRANCH  29  30
ENDBRANCH   2  29
TORSDOF 7
