REMARK  Name = ZINC000575124622
REMARK  7 active torsions:
REMARK  status: ('A' for Active; 'I' for Inactive)
REMARK    1  A    between atoms: O_2  and  C_3
REMARK    2  A    between atoms: C_3  and  C_41
REMARK    3  A    between atoms: N_4  and  C_5
REMARK    4  A    between atoms: C_7  and  O_9
REMARK    5  A    between atoms: C_14  and  C_16
REMARK    6  A    between atoms: C_34  and  O_36
REMARK    7  A    between atoms: O_36  and  C_37
REMARK                            x       y       z     vdW  Elec       q    Type
REMARK                         _______ _______ _______ _____ _____    ______ ____
ROOT
ATOM      1  C   UNL     1       0.542  -2.180   1.567  0.00  0.00    +0.000 C 
ATOM      2  C   UNL     1       1.119  -1.397   0.359  0.00  0.00    +0.000 C 
ATOM      3  C   UNL     1       0.273  -0.144   0.073  0.00  0.00    +0.000 C 
ATOM      4  O   UNL     1       0.911   0.675  -0.891  0.00  0.00    +0.000 OA
ATOM      5  C   UNL     1       0.342   1.983  -0.962  0.00  0.00    +0.000 C 
ATOM      6  O   UNL     1      -0.952   2.064  -0.376  0.00  0.00    +0.000 OA
ATOM      7  C   UNL     1      -0.871   1.851   1.023  0.00  0.00    +0.000 C 
ATOM      8  C   UNL     1       0.003   0.633   1.374  0.00  0.00    +0.000 C 
ATOM      9  O   UNL     1      -0.658  -0.196   2.313  0.00  0.00    +0.000 OA
ATOM     10  C   UNL     1       0.207  -1.237   2.745  0.00  0.00    +0.000 C 
ENDROOT
BRANCH   5  11
ATOM     11  C   UNL     1       0.233   2.379  -2.410  0.00  0.00    +0.000 A 
ATOM     12  C   UNL     1      -0.522   1.595  -3.298  0.00  0.00    +0.000 A 
ATOM     13  C   UNL     1      -0.634   1.960  -4.643  0.00  0.00    +0.000 A 
ATOM     14  C   UNL     1       0.003   3.112  -5.111  0.00  0.00    +0.000 A 
ATOM     15  C   UNL     1       0.753   3.901  -4.235  0.00  0.00    +0.000 A 
ATOM     16  C   UNL     1       0.868   3.539  -2.889  0.00  0.00    +0.000 A 
ENDBRANCH   5  11
BRANCH   1  18
ATOM     17  C   UNL     1       1.713  -4.320   1.386  0.00  0.00    +0.000 C 
ATOM     18  N   UNL     1       1.484  -3.208   2.018  0.00  0.00    +0.000 NA
ATOM     19  C   UNL     1       2.717  -5.284   1.932  0.00  0.00    +0.000 C 
BRANCH  17  21
ATOM     20  H   UNL     1       1.231  -5.472  -0.309  0.00  0.00    +0.000 HD
ATOM     21  O   UNL     1       1.048  -4.613   0.196  0.00  0.00    +0.000 OA
ENDBRANCH  17  21
ENDBRANCH   1  18
BRANCH   2  22
ATOM     22  O   UNL     1       2.482  -1.079   0.531  0.00  0.00    +0.000 OA
ATOM     23  H   UNL     1       2.576  -0.533   1.351  0.00  0.00    +0.000 HD
ENDBRANCH   2  22
BRANCH  10  24
ATOM     24  O   UNL     1      -0.449  -1.996   3.743  0.00  0.00    +0.000 OA
ATOM     25  C   UNL     1      -0.463  -1.288   4.963  0.00  0.00    +0.000 C 
ENDBRANCH  10  24
TORSDOF 5
