REMARK  Name = ZINC000307565252
REMARK  8 active torsions:
REMARK  status: ('A' for Active; 'I' for Inactive)
REMARK    1  A    between atoms: C_1  and  O_2
REMARK    2  A    between atoms: O_2  and  C_3
REMARK    3  A    between atoms: C_5  and  C_6
REMARK    4  A    between atoms: C_6  and  O_7
REMARK    5  A    between atoms: C_8  and  O_9
REMARK    6  A    between atoms: C_10  and  O_11
REMARK    7  A    between atoms: C_12  and  N_13
REMARK    8  A    between atoms: C_14  and  O_15
REMARK                            x       y       z     vdW  Elec       q    Type
REMARK                         _______ _______ _______ _____ _____    ______ ____
ROOT
ATOM      1  C   UNL     1       1.177   0.952  -1.347  0.00  0.00    +0.000 C 
ATOM      2  O   UNL     1       1.725   1.992  -2.144  0.00  0.00    +0.000 OA
ATOM      3  C   UNL     1       0.701   2.844  -2.632  0.00  0.00    +0.000 C 
ATOM      4  C   UNL     1       0.009   3.594  -1.458  0.00  0.00    +0.000 C 
ATOM      5  C   UNL     1      -0.511   2.607  -0.386  0.00  0.00    +0.000 C 
ATOM      6  C   UNL     1       0.574   1.557  -0.059  0.00  0.00    +0.000 C 
ENDROOT
BRANCH   6   7
ATOM      7  N   UNL     1       0.064   0.527   0.865  0.00  0.00    +0.000 N 
ATOM      8  C   UNL     1       0.213   0.545   2.162  0.00  0.00    +0.000 C 
ATOM      9  C   UNL     1      -0.473  -0.585   2.795  0.00  0.00    +0.000 A 
ATOM     10  C   UNL     1      -0.580  -0.968   4.132  0.00  0.00    +0.000 A 
ATOM     11  C   UNL     1      -1.332  -2.120   4.430  0.00  0.00    +0.000 A 
ATOM     12  C   UNL     1      -1.956  -2.855   3.397  0.00  0.00    +0.000 A 
ATOM     13  C   UNL     1      -1.834  -2.445   2.057  0.00  0.00    +0.000 A 
ATOM     14  C   UNL     1      -1.081  -1.302   1.796  0.00  0.00    +0.000 A 
ATOM     15  C   UNL     1      -0.761  -0.610   0.565  0.00  0.00    +0.000 C 
ATOM     16  O   UNL     1      -1.159  -0.937  -0.584  0.00  0.00    +0.000 OA
BRANCH   8  17
ATOM     17  O   UNL     1       0.926   1.530   2.840  0.00  0.00    +0.000 OA
ATOM     18  H   UNL     1       1.014   1.512   3.848  0.00  0.00    +0.000 HD
ENDBRANCH   8  17
ENDBRANCH   6   7
BRANCH   1  20
ATOM     19  C   UNL     1       2.553  -0.774  -2.055  0.00  0.00    +0.000 C 
ATOM     20  O   UNL     1       2.214   0.065  -0.972  0.00  0.00    +0.000 OA
ENDBRANCH   1  20
BRANCH   4  21
ATOM     21  O   UNL     1      -1.022   4.440  -1.907  0.00  0.00    +0.000 OA
ATOM     22  H   UNL     1      -1.635   3.901  -2.471  0.00  0.00    +0.000 HD
ENDBRANCH   4  21
BRANCH   5  23
ATOM     23  O   UNL     1      -1.730   2.009  -0.758  0.00  0.00    +0.000 OA
ATOM     24  H   UNL     1      -1.600   1.548  -1.625  0.00  0.00    +0.000 HD
ENDBRANCH   5  23
BRANCH   3  25
ATOM     25  C   UNL     1       1.319   3.829  -3.638  0.00  0.00    +0.000 C 
BRANCH  25  26
ATOM     26  O   UNL     1       2.295   4.633  -3.029  0.00  0.00    +0.000 OA
ATOM     27  H   UNL     1       3.121   4.085  -2.970  0.00  0.00    +0.000 HD
ENDBRANCH  25  26
ENDBRANCH   3  25
TORSDOF 7
