REMARK  Name = 49802606
REMARK  8 active torsions:
REMARK  status: ('A' for Active; 'I' for Inactive)
REMARK    1  A    between atoms: O_2  and  C_3
REMARK    2  A    between atoms: C_3  and  C_27
REMARK    3  A    between atoms: N_4  and  C_5
REMARK    4  A    between atoms: C_7  and  O_9
REMARK    5  A    between atoms: C_12  and  C_14
REMARK    6  A    between atoms: C_14  and  O_17
REMARK    7  A    between atoms: C_19  and  O_21
REMARK    8  A    between atoms: C_23  and  O_25
REMARK                            x       y       z     vdW  Elec       q    Type
REMARK                         _______ _______ _______ _____ _____    ______ ____
ROOT
ATOM      1  C   UNL     1      -0.508   0.879  -0.437  0.00  0.00    +0.000 C 
ATOM      2  C   UNL     1      -0.000   1.349   0.935  0.00  0.00    +0.000 C 
ATOM      3  O   UNL     1       0.288   0.245   1.777  0.00  0.00    +0.000 OA
ATOM      4  C   UNL     1       1.337  -0.574   1.275  0.00  0.00    +0.000 C 
ATOM      5  C   UNL     1       1.093  -1.069  -0.179  0.00  0.00    +0.000 C 
ATOM      6  C   UNL     1       0.581   0.036  -1.128  0.00  0.00    +0.000 C 
ENDROOT
BRANCH   1   8
ATOM      7  C   UNL     1      -2.603  -0.207  -1.180  0.00  0.00    +0.000 C 
ATOM      8  N   UNL     1      -1.733   0.094  -0.257  0.00  0.00    +0.000 NA
BRANCH   7   9
ATOM      9  C   UNL     1      -3.791  -1.036  -0.807  0.00  0.00    +0.000 C 
ATOM     10  F   UNL     1      -4.587  -0.330   0.075  0.00  0.00    +0.000 F 
ATOM     11  F   UNL     1      -4.530  -1.348  -1.933  0.00  0.00    +0.000 F 
ATOM     12  F   UNL     1      -3.371  -2.208  -0.205  0.00  0.00    +0.000 F 
ENDBRANCH   7   9
BRANCH   7  14
ATOM     13  H   UNL     1      -1.705   0.810  -2.823  0.00  0.00    +0.000 HD
ATOM     14  O   UNL     1      -2.469   0.232  -2.501  0.00  0.00    +0.000 OA
ENDBRANCH   7  14
ENDBRANCH   1   8
BRANCH   2  15
ATOM     15  O   UNL     1      -0.994   2.132   1.540  0.00  0.00    +0.000 OA
ATOM     16  H   UNL     1      -0.597   2.496   2.374  0.00  0.00    +0.000 HD
ENDBRANCH   2  15
BRANCH   5  17
ATOM     17  O   UNL     1       2.256  -1.666  -0.694  0.00  0.00    +0.000 OA
ATOM     18  H   UNL     1       1.980  -2.200  -1.484  0.00  0.00    +0.000 HD
ENDBRANCH   5  17
BRANCH   6  19
ATOM     19  O   UNL     1       1.642   0.855  -1.546  0.00  0.00    +0.000 OA
ATOM     20  H   UNL     1       1.323   1.356  -2.342  0.00  0.00    +0.000 HD
ENDBRANCH   6  19
BRANCH   4  21
ATOM     21  C   UNL     1       2.739   0.005   1.578  0.00  0.00    +0.000 C 
BRANCH  21  22
ATOM     22  O   UNL     1       3.102   1.012   0.678  0.00  0.00    +0.000 OA
ATOM     23  H   UNL     1       4.002   1.324   0.960  0.00  0.00    +0.000 HD
ENDBRANCH  21  22
ENDBRANCH   4  21
TORSDOF 8
