REMARK  Name = 46174147
REMARK  9 active torsions:
REMARK  status: ('A' for Active; 'I' for Inactive)
REMARK    1  A    between atoms: O_2  and  C_3
REMARK    2  A    between atoms: C_3  and  C_31
REMARK    3  A    between atoms: N_4  and  C_5
REMARK    4  A    between atoms: C_7  and  O_9
REMARK    5  A    between atoms: O_9  and  C_10
REMARK    6  A    between atoms: C_16  and  C_18
REMARK    7  A    between atoms: C_18  and  O_21
REMARK    8  A    between atoms: C_23  and  O_25
REMARK    9  A    between atoms: C_27  and  O_29
REMARK                            x       y       z     vdW  Elec       q    Type
REMARK                         _______ _______ _______ _____ _____    ______ ____
ROOT
ATOM      1  C   UNL     1       0.368   0.421  -0.960  0.00  0.00    +0.000 C 
ATOM      2  C   UNL     1       0.345   0.969   0.504  0.00  0.00    +0.000 C 
ATOM      3  O   UNL     1       1.641   1.103   1.078  0.00  0.00    +0.000 OA
ATOM      4  C   UNL     1       2.426  -0.047   0.827  0.00  0.00    +0.000 C 
ATOM      5  C   UNL     1       2.848  -0.086  -0.665  0.00  0.00    +0.000 C 
ATOM      6  C   UNL     1       1.777   0.583  -1.565  0.00  0.00    +0.000 C 
ENDROOT
BRANCH   1   8
ATOM      7  C   UNL     1      -1.238  -1.428  -0.988  0.00  0.00    +0.000 C 
ATOM      8  N   UNL     1      -0.014  -0.994  -1.018  0.00  0.00    +0.000 NA
ATOM      9  C   UNL     1      -1.501  -2.898  -1.057  0.00  0.00    +0.000 C 
BRANCH   7  11
ATOM     10  H   UNL     1      -3.265  -0.864  -0.906  0.00  0.00    +0.000 HD
ATOM     11  O   UNL     1      -2.307  -0.535  -0.919  0.00  0.00    +0.000 OA
ENDBRANCH   7  11
ENDBRANCH   1   8
BRANCH   5  12
ATOM     12  O   UNL     1       3.037  -1.425  -1.049  0.00  0.00    +0.000 OA
ATOM     13  H   UNL     1       3.585  -1.413  -1.877  0.00  0.00    +0.000 HD
ENDBRANCH   5  12
BRANCH   6  14
ATOM     14  O   UNL     1       2.079   1.949  -1.701  0.00  0.00    +0.000 OA
ATOM     15  H   UNL     1       1.568   2.282  -2.484  0.00  0.00    +0.000 HD
ENDBRANCH   6  14
BRANCH   2  16
ATOM     16  O   UNL     1      -0.485   0.170   1.350  0.00  0.00    +0.000 OA
BRANCH  16  17
ATOM     17  C   UNL     1      -0.800   0.521   2.666  0.00  0.00    +0.000 C 
ATOM     18  O   UNL     1      -0.366   1.593   3.170  0.00  0.00    +0.000 OA
ATOM     19  N   UNL     1      -1.623  -0.343   3.444  0.00  0.00    +0.000 N 
ATOM     20  H   UNL     1      -1.986  -1.231   3.032  0.00  0.00    +0.000 HD
ATOM     21  H   UNL     1      -1.869  -0.097   4.428  0.00  0.00    +0.000 HD
ENDBRANCH  16  17
ENDBRANCH   2  16
BRANCH   4  22
ATOM     22  C   UNL     1       3.654  -0.026   1.747  0.00  0.00    +0.000 C 
BRANCH  22  23
ATOM     23  O   UNL     1       3.257  -0.032   3.092  0.00  0.00    +0.000 OA
ATOM     24  H   UNL     1       2.969  -0.959   3.299  0.00  0.00    +0.000 HD
ENDBRANCH  22  23
ENDBRANCH   4  22
TORSDOF 8
