REMARK  Name = 25243963
REMARK  9 active torsions:
REMARK  status: ('A' for Active; 'I' for Inactive)
REMARK    1  A    between atoms: O_2  and  C_3
REMARK    2  A    between atoms: C_3  and  C_30
REMARK    3  A    between atoms: N_4  and  C_5
REMARK    4  A    between atoms: C_7  and  O_9
REMARK    5  A    between atoms: C_12  and  C_14
REMARK    6  A    between atoms: C_14  and  O_17
REMARK    7  A    between atoms: O_17  and  P_18
REMARK    8  A    between atoms: C_22  and  O_24
REMARK    9  A    between atoms: C_26  and  O_28
REMARK                            x       y       z     vdW  Elec       q    Type
REMARK                         _______ _______ _______ _____ _____    ______ ____
ROOT
ATOM      1  C   UNL     1       0.435  -0.102  -1.478  0.00  0.00    +0.000 C 
ATOM      2  C   UNL     1       0.718   0.040   0.030  0.00  0.00    +0.000 C 
ATOM      3  O   UNL     1      -0.397  -0.376   0.805  0.00  0.00    +0.000 OA
ATOM      4  C   UNL     1      -1.539   0.432   0.558  0.00  0.00    +0.000 C 
ATOM      5  C   UNL     1      -1.982   0.314  -0.922  0.00  0.00    +0.000 C 
ATOM      6  C   UNL     1      -0.823   0.702  -1.855  0.00  0.00    +0.000 C 
ENDROOT
BRANCH   1   8
ATOM      7  C   UNL     1       2.108  -0.146  -3.311  0.00  0.00    +0.000 C 
ATOM      8  N   UNL     1       1.596   0.383  -2.235  0.00  0.00    +0.000 NA
ATOM      9  C   UNL     1       1.576  -1.407  -3.925  0.00  0.00    +0.000 C 
BRANCH   7  11
ATOM     10  H   UNL     1       3.606   1.314  -3.522  0.00  0.00    +0.000 HD
ATOM     11  O   UNL     1       3.208   0.465  -3.906  0.00  0.00    +0.000 OA
ENDBRANCH   7  11
ENDBRANCH   1   8
BRANCH   2  12
ATOM     12  O   UNL     1       1.101   1.355   0.351  0.00  0.00    +0.000 OA
ATOM     13  H   UNL     1       1.373   1.341   1.306  0.00  0.00    +0.000 HD
ENDBRANCH   2  12
BRANCH   5  14
ATOM     14  O   UNL     1      -3.112   1.110  -1.185  0.00  0.00    +0.000 OA
ATOM     15  H   UNL     1      -2.874   2.051  -0.973  0.00  0.00    +0.000 HD
ENDBRANCH   5  14
BRANCH   6  16
ATOM     16  O   UNL     1      -1.195   0.437  -3.183  0.00  0.00    +0.000 OA
ATOM     17  H   UNL     1      -0.651   1.033  -3.761  0.00  0.00    +0.000 HD
ENDBRANCH   6  16
BRANCH   4  18
ATOM     18  C   UNL     1      -2.662  -0.019   1.499  0.00  0.00    +0.000 C 
BRANCH  18  19
ATOM     19  O   UNL     1      -2.228   0.115   2.833  0.00  0.00    +0.000 OA
BRANCH  19  20
ATOM     20  P   UNL     1      -3.491  -0.386   3.865  0.00  0.00    +0.000 P 
ATOM     21  O   UNL     1      -4.681   0.534   3.713  0.00  0.00    +0.000 OA
ATOM     22  O   UNL     1      -3.953  -1.973   3.502  0.00  0.00    +0.000 OA
ATOM     23  O   UNL     1      -2.947  -0.325   5.464  0.00  0.00    +0.000 OA
ENDBRANCH  19  20
ENDBRANCH  18  19
ENDBRANCH   4  18
TORSDOF 8
