REMARK  Name = 25243937
REMARK  8 active torsions:
REMARK  status: ('A' for Active; 'I' for Inactive)
REMARK    1  A    between atoms: C_1  and  C_2
REMARK    2  A    between atoms: N_4  and  C_5
REMARK    3  A    between atoms: C_6  and  O_7
REMARK    4  A    between atoms: O_7  and  P_8
REMARK    5  A    between atoms: C_13  and  C_14
REMARK    6  A    between atoms: C_14  and  O_15
REMARK    7  A    between atoms: C_16  and  O_17
REMARK    8  A    between atoms: C_18  and  O_19
REMARK                            x       y       z     vdW  Elec       q    Type
REMARK                         _______ _______ _______ _____ _____    ______ ____
ROOT
ATOM      1  C   UNL     1      -0.121  -0.210   0.338  0.00  0.00    +0.000 C 
ATOM      2  C   UNL     1       0.523   1.090  -0.187  0.00  0.00    +0.000 C 
ATOM      3  O   UNL     1      -0.471   2.063  -0.474  0.00  0.00    +0.000 OA
ATOM      4  C   UNL     1      -1.351   1.632  -1.500  0.00  0.00    +0.000 C 
ATOM      5  C   UNL     1      -2.139   0.381  -1.052  0.00  0.00    +0.000 C 
ATOM      6  C   UNL     1      -1.160  -0.740  -0.670  0.00  0.00    +0.000 C 
ENDROOT
BRANCH   1  10
ATOM      7  C   UNL     1       2.840  -2.188   1.930  0.00  0.00    +0.000 C 
ATOM      8  C   UNL     1       1.760  -1.171   1.754  0.00  0.00    +0.000 C 
ATOM      9  O   UNL     1       1.583  -0.292   2.641  0.00  0.00    +0.000 OA
ATOM     10  N   UNL     1       0.915  -1.218   0.597  0.00  0.00    +0.000 N 
ATOM     11  H   UNL     1       1.066  -1.990  -0.092  0.00  0.00    +0.000 HD
ENDBRANCH   1  10
BRANCH   5  12
ATOM     12  O   UNL     1      -2.969  -0.055  -2.099  0.00  0.00    +0.000 OA
ATOM     13  H   UNL     1      -3.687  -0.605  -1.688  0.00  0.00    +0.000 HD
ENDBRANCH   5  12
BRANCH   6  14
ATOM     14  O   UNL     1      -1.879  -1.805  -0.101  0.00  0.00    +0.000 OA
ATOM     15  H   UNL     1      -1.334  -2.625  -0.228  0.00  0.00    +0.000 HD
ENDBRANCH   6  14
BRANCH   2  16
ATOM     16  O   UNL     1       1.323   0.812  -1.323  0.00  0.00    +0.000 OA
BRANCH  16  17
ATOM     17  P   UNL     1       2.437   2.083  -1.555  0.00  0.00    +0.000 P 
ATOM     18  O   UNL     1       3.203   1.837  -2.834  0.00  0.00    +0.000 OA
ATOM     19  O   UNL     1       1.631   3.566  -1.674  0.00  0.00    +0.000 OA
ATOM     20  O   UNL     1       3.527   2.135  -0.263  0.00  0.00    +0.000 OA
ENDBRANCH  16  17
ENDBRANCH   2  16
BRANCH   4  21
ATOM     21  C   UNL     1      -2.307   2.784  -1.830  0.00  0.00    +0.000 C 
BRANCH  21  22
ATOM     22  O   UNL     1      -1.572   3.900  -2.253  0.00  0.00    +0.000 OA
ATOM     23  H   UNL     1      -2.236   4.613  -2.440  0.00  0.00    +0.000 HD
ENDBRANCH  21  22
ENDBRANCH   4  21
TORSDOF 7
