REMARK  Name = 42612215
REMARK  9 active torsions:
REMARK  status: ('A' for Active; 'I' for Inactive)
REMARK    1  A    between atoms: O_2  and  C_3
REMARK    2  A    between atoms: C_3  and  C_27
REMARK    3  A    between atoms: N_4  and  C_5
REMARK    4  A    between atoms: C_7  and  O_9
REMARK    5  A    between atoms: C_12  and  C_14
REMARK    6  A    between atoms: C_14  and  O_17
REMARK    7  A    between atoms: C_19  and  O_21
REMARK    8  A    between atoms: C_23  and  O_25
REMARK    9  A    between atoms: C_27  and  N_30
REMARK                            x       y       z     vdW  Elec       q    Type
REMARK                         _______ _______ _______ _____ _____    ______ ____
ROOT
ATOM      1  C   UNL     1      -0.389   1.266   0.346  0.00  0.00    +0.000 C 
ATOM      2  C   UNL     1      -0.524   0.322   1.559  0.00  0.00    +0.000 C 
ATOM      3  O   UNL     1       0.134  -0.909   1.301  0.00  0.00    +0.000 OA
ATOM      4  C   UNL     1      -0.521  -1.619   0.261  0.00  0.00    +0.000 C 
ATOM      5  C   UNL     1      -0.425  -0.844  -1.076  0.00  0.00    +0.000 C 
ATOM      6  C   UNL     1      -1.005   0.575  -0.887  0.00  0.00    +0.000 C 
ENDROOT
BRANCH   1   8
ATOM      7  C   UNL     1       1.682   2.632   0.464  0.00  0.00    +0.000 C 
ATOM      8  N   UNL     1       1.028   1.566   0.099  0.00  0.00    +0.000 NA
BRANCH   7  10
ATOM      9  H   UNL     1       3.509   1.986  -0.355  0.00  0.00    +0.000 HD
ATOM     10  O   UNL     1       3.034   2.730   0.142  0.00  0.00    +0.000 OA
ENDBRANCH   7  10
BRANCH   7  11
ATOM     11  C   UNL     1       1.020   3.775   1.191  0.00  0.00    +0.000 C 
BRANCH  11  12
ATOM     12  N   UNL     1       2.011   4.764   1.599  0.00  0.00    +0.000 NA
ATOM     13  N   UNL     1       2.156   5.068   2.783  0.00  0.00    +0.000 NA
ATOM     14  N   UNL     1       2.301   5.373   3.966  0.00  0.00    +0.000 NA
ENDBRANCH  11  12
ENDBRANCH   7  11
ENDBRANCH   1   8
BRANCH   2  15
ATOM     15  O   UNL     1       0.055   0.921   2.685  0.00  0.00    +0.000 OA
ATOM     16  H   UNL     1      -0.141   0.324   3.453  0.00  0.00    +0.000 HD
ENDBRANCH   2  15
BRANCH   5  17
ATOM     17  O   UNL     1      -1.149  -1.524  -2.069  0.00  0.00    +0.000 OA
ATOM     18  H   UNL     1      -0.811  -1.200  -2.944  0.00  0.00    +0.000 HD
ENDBRANCH   5  17
BRANCH   6  19
ATOM     19  O   UNL     1      -0.844   1.361  -2.044  0.00  0.00    +0.000 OA
ATOM     20  H   UNL     1       0.117   1.353  -2.291  0.00  0.00    +0.000 HD
ENDBRANCH   6  19
BRANCH   4  21
ATOM     21  C   UNL     1       0.108  -3.017   0.147  0.00  0.00    +0.000 C 
BRANCH  21  22
ATOM     22  O   UNL     1       1.469  -2.937  -0.186  0.00  0.00    +0.000 OA
ATOM     23  H   UNL     1       1.956  -2.719   0.651  0.00  0.00    +0.000 HD
ENDBRANCH  21  22
ENDBRANCH   4  21
TORSDOF 9
