REMARK  Name = 25243937
REMARK  9 active torsions:
REMARK  status: ('A' for Active; 'I' for Inactive)
REMARK    1  A    between atoms: O_2  and  C_3
REMARK    2  A    between atoms: C_3  and  C_30
REMARK    3  A    between atoms: N_4  and  C_5
REMARK    4  A    between atoms: C_7  and  O_9
REMARK    5  A    between atoms: O_9  and  P_10
REMARK    6  A    between atoms: C_15  and  C_17
REMARK    7  A    between atoms: C_17  and  O_20
REMARK    8  A    between atoms: C_22  and  O_24
REMARK    9  A    between atoms: C_26  and  O_28
REMARK                            x       y       z     vdW  Elec       q    Type
REMARK                         _______ _______ _______ _____ _____    ______ ____
ROOT
ATOM      1  C   UNL     1       0.395   0.043  -0.534  0.00  0.00    +0.000 C 
ATOM      2  C   UNL     1      -0.671  -1.069  -0.454  0.00  0.00    +0.000 C 
ATOM      3  O   UNL     1      -1.256  -1.108   0.841  0.00  0.00    +0.000 OA
ATOM      4  C   UNL     1      -0.306  -1.436   1.844  0.00  0.00    +0.000 C 
ATOM      5  C   UNL     1       0.786  -0.345   1.936  0.00  0.00    +0.000 C 
ATOM      6  C   UNL     1       1.456  -0.172   0.559  0.00  0.00    +0.000 C 
ENDROOT
BRANCH   1   8
ATOM      7  C   UNL     1       0.648   0.656  -2.922  0.00  0.00    +0.000 C 
ATOM      8  N   UNL     1       1.046   0.034  -1.848  0.00  0.00    +0.000 NA
ATOM      9  C   UNL     1      -0.564   1.541  -2.942  0.00  0.00    +0.000 C 
BRANCH   7  11
ATOM     10  H   UNL     1       2.211  -0.067  -4.129  0.00  0.00    +0.000 HD
ATOM     11  O   UNL     1       1.382   0.515  -4.096  0.00  0.00    +0.000 OA
ENDBRANCH   7  11
ENDBRANCH   1   8
BRANCH   5  12
ATOM     12  O   UNL     1       1.755  -0.716   2.884  0.00  0.00    +0.000 OA
ATOM     13  H   UNL     1       2.219   0.117   3.162  0.00  0.00    +0.000 HD
ENDBRANCH   5  12
BRANCH   6  14
ATOM     14  O   UNL     1       2.377   0.891   0.578  0.00  0.00    +0.000 OA
ATOM     15  H   UNL     1       1.877   1.721   0.795  0.00  0.00    +0.000 HD
ENDBRANCH   6  14
BRANCH   2  16
ATOM     16  O   UNL     1      -0.103  -2.318  -0.809  0.00  0.00    +0.000 OA
BRANCH  16  17
ATOM     17  P   UNL     1      -1.347  -3.422  -1.196  0.00  0.00    +0.000 P 
ATOM     18  O   UNL     1      -2.265  -3.620  -0.011  0.00  0.00    +0.000 OA
ATOM     19  O   UNL     1      -0.649  -4.908  -1.604  0.00  0.00    +0.000 OA
ATOM     20  O   UNL     1      -2.240  -2.856  -2.517  0.00  0.00    +0.000 OA
ENDBRANCH  16  17
ENDBRANCH   2  16
BRANCH   4  21
ATOM     21  C   UNL     1      -1.064  -1.584   3.175  0.00  0.00    +0.000 C 
BRANCH  21  22
ATOM     22  O   UNL     1      -0.233  -2.093   4.183  0.00  0.00    +0.000 OA
ATOM     23  H   UNL     1      -0.118  -3.061   3.995  0.00  0.00    +0.000 HD
ENDBRANCH  21  22
ENDBRANCH   4  21
TORSDOF 8
