REMARK  Name = 24779679
REMARK  12 active torsions:
REMARK  status: ('A' for Active; 'I' for Inactive)
REMARK    1  A    between atoms: O_2  and  C_3
REMARK    2  A    between atoms: C_3  and  C_40
REMARK    3  A    between atoms: N_4  and  C_5
REMARK    4  A    between atoms: C_7  and  O_9
REMARK    5  A    between atoms: O_9  and  C_10
REMARK    6  A    between atoms: N_12  and  C_14
REMARK    7  A    between atoms: C_14  and  C_17
REMARK    8  A    between atoms: C_17  and  C_20
REMARK    9  A    between atoms: C_25  and  C_27
REMARK   10  A    between atoms: C_27  and  O_30
REMARK   11  A    between atoms: C_32  and  O_34
REMARK   12  A    between atoms: C_36  and  O_38
REMARK                            x       y       z     vdW  Elec       q    Type
REMARK                         _______ _______ _______ _____ _____    ______ ____
ROOT
ATOM      1  C   UNL     1       0.076  -2.055  -0.595  0.00  0.00    +0.000 C 
ATOM      2  C   UNL     1      -0.896  -0.884  -0.852  0.00  0.00    +0.000 C 
ATOM      3  O   UNL     1      -0.932  -0.558  -2.231  0.00  0.00    +0.000 OA
ATOM      4  C   UNL     1      -1.450  -1.617  -3.029  0.00  0.00    +0.000 C 
ATOM      5  C   UNL     1      -0.638  -2.934  -2.869  0.00  0.00    +0.000 C 
ATOM      6  C   UNL     1      -0.387  -3.289  -1.391  0.00  0.00    +0.000 C 
ENDROOT
BRANCH   1   8
ATOM      7  C   UNL     1       2.328  -1.141  -0.241  0.00  0.00    +0.000 C 
ATOM      8  N   UNL     1       1.436  -1.693  -1.008  0.00  0.00    +0.000 NA
ATOM      9  C   UNL     1       3.677  -0.819  -0.799  0.00  0.00    +0.000 C 
BRANCH   7  11
ATOM     10  H   UNL     1       2.751  -0.469   1.709  0.00  0.00    +0.000 HD
ATOM     11  O   UNL     1       2.056  -0.886   1.102  0.00  0.00    +0.000 OA
ENDBRANCH   7  11
ENDBRANCH   1   8
BRANCH   5  12
ATOM     12  O   UNL     1       0.601  -2.801  -3.521  0.00  0.00    +0.000 OA
ATOM     13  H   UNL     1       0.431  -2.910  -4.493  0.00  0.00    +0.000 HD
ENDBRANCH   5  12
BRANCH   6  14
ATOM     14  O   UNL     1      -1.559  -3.821  -0.827  0.00  0.00    +0.000 OA
ATOM     15  H   UNL     1      -1.292  -4.292   0.005  0.00  0.00    +0.000 HD
ENDBRANCH   6  14
BRANCH   2  16
ATOM     16  O   UNL     1      -0.473   0.275  -0.134  0.00  0.00    +0.000 OA
BRANCH  16  17
ATOM     17  C   UNL     1      -0.674   0.451   1.240  0.00  0.00    +0.000 C 
ATOM     18  O   UNL     1      -1.292  -0.418   1.915  0.00  0.00    +0.000 OA
ATOM     19  N   UNL     1      -0.158   1.626   1.875  0.00  0.00    +0.000 N 
ATOM     20  H   UNL     1       0.406   2.294   1.302  0.00  0.00    +0.000 HD
BRANCH  19  21
ATOM     21  C   UNL     1      -0.302   1.879   3.307  0.00  0.00    +0.000 C 
BRANCH  21  22
ATOM     22  C   UNL     1      -1.731   2.326   3.630  0.00  0.00    +0.000 C 
ATOM     23  C   UNL     1      -1.891   2.630   5.117  0.00  0.00    +0.000 C 
ENDBRANCH  21  22
ENDBRANCH  19  21
ENDBRANCH  16  17
ENDBRANCH   2  16
BRANCH   4  24
ATOM     24  C   UNL     1      -2.976  -1.786  -2.856  0.00  0.00    +0.000 C 
BRANCH  24  25
ATOM     25  O   UNL     1      -3.521  -2.477  -3.950  0.00  0.00    +0.000 OA
ATOM     26  H   UNL     1      -3.520  -3.441  -3.714  0.00  0.00    +0.000 HD
ENDBRANCH  24  25
ENDBRANCH   4  24
TORSDOF 10
