REMARK  Name = 2733787
REMARK  10 active torsions:
REMARK  status: ('A' for Active; 'I' for Inactive)
REMARK    1  A    between atoms: O_2  and  C_3
REMARK    2  A    between atoms: C_3  and  C_45
REMARK    3  A    between atoms: N_4  and  C_5
REMARK    4  A    between atoms: C_7  and  O_9
REMARK    5  A    between atoms: O_9  and  C_10
REMARK    6  A    between atoms: C_16  and  C_17
REMARK    7  A    between atoms: C_30  and  C_32
REMARK    8  A    between atoms: C_32  and  O_35
REMARK    9  A    between atoms: C_37  and  O_39
REMARK   10  A    between atoms: C_41  and  O_43
REMARK                            x       y       z     vdW  Elec       q    Type
REMARK                         _______ _______ _______ _____ _____    ______ ____
ROOT
ATOM      1  C   UNL     1      -2.409  -0.286  -0.766  0.00  0.00    +0.000 C 
ATOM      2  C   UNL     1      -1.076   0.262  -0.224  0.00  0.00    +0.000 C 
ATOM      3  O   UNL     1      -1.266   0.834   1.059  0.00  0.00    +0.000 OA
ATOM      4  C   UNL     1      -2.083   1.988   0.971  0.00  0.00    +0.000 C 
ATOM      5  C   UNL     1      -3.510   1.597   0.507  0.00  0.00    +0.000 C 
ATOM      6  C   UNL     1      -3.443   0.854  -0.843  0.00  0.00    +0.000 C 
ENDROOT
BRANCH   1   8
ATOM      7  C   UNL     1      -2.913  -1.792  -2.632  0.00  0.00    +0.000 C 
ATOM      8  N   UNL     1      -2.183  -0.860  -2.095  0.00  0.00    +0.000 NA
ATOM      9  C   UNL     1      -2.595  -2.272  -4.011  0.00  0.00    +0.000 C 
BRANCH   7  11
ATOM     10  H   UNL     1      -4.582  -3.047  -2.362  0.00  0.00    +0.000 HD
ATOM     11  O   UNL     1      -4.000  -2.331  -1.944  0.00  0.00    +0.000 OA
ENDBRANCH   7  11
ENDBRANCH   1   8
BRANCH   5  12
ATOM     12  O   UNL     1      -4.343   2.727   0.412  0.00  0.00    +0.000 OA
ATOM     13  H   UNL     1      -3.934   3.347  -0.248  0.00  0.00    +0.000 HD
ENDBRANCH   5  12
BRANCH   6  14
ATOM     14  O   UNL     1      -4.706   0.327  -1.157  0.00  0.00    +0.000 OA
ATOM     15  H   UNL     1      -5.247   1.074  -1.524  0.00  0.00    +0.000 HD
ENDBRANCH   6  14
BRANCH   2  16
ATOM     16  O   UNL     1      -0.147  -0.816  -0.116  0.00  0.00    +0.000 OA
BRANCH  16  17
ATOM     17  C   UNL     1       1.205  -0.679   0.237  0.00  0.00    +0.000 A 
ATOM     18  C   UNL     1       1.796   0.571   0.500  0.00  0.00    +0.000 A 
ATOM     19  C   UNL     1       3.146   0.658   0.849  0.00  0.00    +0.000 A 
ATOM     20  C   UNL     1       3.934  -0.506   0.942  0.00  0.00    +0.000 A 
ATOM     21  C   UNL     1       5.304  -0.477   1.291  0.00  0.00    +0.000 A 
ATOM     22  C   UNL     1       6.025   0.811   1.592  0.00  0.00    +0.000 C 
ATOM     23  C   UNL     1       6.006  -1.688   1.357  0.00  0.00    +0.000 A 
ATOM     24  C   UNL     1       5.340  -2.884   1.079  0.00  0.00    +0.000 A 
ATOM     25  O   UNL     1       5.962  -3.977   1.136  0.00  0.00    +0.000 OA
ATOM     26  O   UNL     1       4.053  -2.878   0.754  0.00  0.00    +0.000 OA
ATOM     27  C   UNL     1       3.337  -1.761   0.676  0.00  0.00    +0.000 A 
ATOM     28  C   UNL     1       1.985  -1.836   0.327  0.00  0.00    +0.000 A 
ENDBRANCH  16  17
ENDBRANCH   2  16
BRANCH   4  29
ATOM     29  C   UNL     1      -2.099   2.685   2.339  0.00  0.00    +0.000 C 
BRANCH  29  30
ATOM     30  O   UNL     1      -2.547   1.813   3.344  0.00  0.00    +0.000 OA
ATOM     31  H   UNL     1      -3.527   1.947   3.427  0.00  0.00    +0.000 HD
ENDBRANCH  29  30
ENDBRANCH   4  29
TORSDOF 8
