REMARK  Name = 3052142
REMARK  16 active torsions:
REMARK  status: ('A' for Active; 'I' for Inactive)
REMARK    1  A    between atoms: O_2  and  C_3
REMARK    2  A    between atoms: C_3  and  C_47
REMARK    3  A    between atoms: N_4  and  C_5
REMARK    4  A    between atoms: C_7  and  O_9
REMARK    5  A    between atoms: O_9  and  C_10
REMARK    6  A    between atoms: C_10  and  C_12
REMARK    7  A    between atoms: C_17  and  C_19
REMARK    8  A    between atoms: C_19  and  O_22
REMARK    9  A    between atoms: O_22  and  C_23
REMARK   10  A    between atoms: C_23  and  C_25
REMARK   11  A    between atoms: C_29  and  O_31
REMARK   12  A    between atoms: O_31  and  C_32
REMARK   13  A    between atoms: C_32  and  C_34
REMARK   14  A    between atoms: C_38  and  O_40
REMARK   15  A    between atoms: O_40  and  C_41
REMARK   16  A    between atoms: C_41  and  C_43
REMARK                            x       y       z     vdW  Elec       q    Type
REMARK                         _______ _______ _______ _____ _____    ______ ____
ROOT
ATOM      1  C   UNL     1       0.626   0.237  -0.328  0.00  0.00    +0.000 C 
ATOM      2  C   UNL     1      -0.731  -0.470  -0.109  0.00  0.00    +0.000 C 
ATOM      3  O   UNL     1      -0.659  -1.332   1.014  0.00  0.00    +0.000 OA
ATOM      4  C   UNL     1       0.259  -2.386   0.780  0.00  0.00    +0.000 C 
ATOM      5  C   UNL     1       1.692  -1.824   0.667  0.00  0.00    +0.000 C 
ATOM      6  C   UNL     1       1.732  -0.821  -0.502  0.00  0.00    +0.000 C 
ENDROOT
BRANCH   1   8
ATOM      7  C   UNL     1       1.090   2.254  -1.698  0.00  0.00    +0.000 C 
ATOM      8  N   UNL     1       0.557   1.076  -1.529  0.00  0.00    +0.000 NA
BRANCH   7  10
ATOM      9  H   UNL     1       0.392   2.458  -3.672  0.00  0.00    +0.000 HD
ATOM     10  O   UNL     1       0.909   2.898  -2.920  0.00  0.00    +0.000 OA
ENDBRANCH   7  10
BRANCH   7  11
ATOM     11  C   UNL     1       1.846   2.961  -0.601  0.00  0.00    +0.000 C 
ATOM     12 CL   UNL     1       2.710   4.397  -1.212  0.00  0.00    +0.000 Cl
ENDBRANCH   7  11
ENDBRANCH   1   8
BRANCH   2  13
ATOM     13  O   UNL     1      -1.742   0.504   0.155  0.00  0.00    +0.000 OA
BRANCH  13  14
ATOM     14  C   UNL     1      -2.459   1.181  -0.839  0.00  0.00    +0.000 C 
ATOM     15  O   UNL     1      -2.326   0.877  -2.056  0.00  0.00    +0.000 OA
ATOM     16  C   UNL     1      -3.433   2.240  -0.449  0.00  0.00    +0.000 C 
ENDBRANCH  13  14
ENDBRANCH   2  13
BRANCH   4  17
ATOM     17  C   UNL     1       0.162  -3.409   1.922  0.00  0.00    +0.000 C 
BRANCH  17  18
ATOM     18  O   UNL     1      -1.115  -4.047   1.919  0.00  0.00    +0.000 OA
BRANCH  18  19
ATOM     19  C   UNL     1      -2.254  -3.505   2.524  0.00  0.00    +0.000 C 
ATOM     20  O   UNL     1      -2.191  -2.427   3.175  0.00  0.00    +0.000 OA
ATOM     21  C   UNL     1      -3.566  -4.195   2.369  0.00  0.00    +0.000 C 
ENDBRANCH  18  19
ENDBRANCH  17  18
ENDBRANCH   4  17
BRANCH   5  22
ATOM     22  O   UNL     1       2.043  -1.173   1.892  0.00  0.00    +0.000 OA
BRANCH  22  23
ATOM     23  C   UNL     1       3.351  -1.064   2.374  0.00  0.00    +0.000 C 
ATOM     24  O   UNL     1       4.303  -1.670   1.811  0.00  0.00    +0.000 OA
ATOM     25  C   UNL     1       3.613  -0.268   3.606  0.00  0.00    +0.000 C 
ENDBRANCH  22  23
ENDBRANCH   5  22
BRANCH   6  26
ATOM     26  O   UNL     1       3.005  -0.179  -0.579  0.00  0.00    +0.000 OA
BRANCH  26  27
ATOM     27  C   UNL     1       4.141  -0.778  -1.135  0.00  0.00    +0.000 C 
ATOM     28  O   UNL     1       4.083  -1.932  -1.639  0.00  0.00    +0.000 OA
ATOM     29  C   UNL     1       5.424  -0.021  -1.166  0.00  0.00    +0.000 C 
ENDBRANCH  26  27
ENDBRANCH   6  26
TORSDOF 12
