REMARK  Name = 644170
REMARK  8 active torsions:
REMARK  status: ('A' for Active; 'I' for Inactive)
REMARK    1  A    between atoms: O_2  and  C_3
REMARK    2  A    between atoms: C_3  and  C_27
REMARK    3  A    between atoms: N_4  and  C_5
REMARK    4  A    between atoms: C_7  and  O_9
REMARK    5  A    between atoms: C_12  and  C_14
REMARK    6  A    between atoms: C_14  and  O_17
REMARK    7  A    between atoms: C_19  and  O_21
REMARK    8  A    between atoms: C_23  and  O_25
REMARK                            x       y       z     vdW  Elec       q    Type
REMARK                         _______ _______ _______ _____ _____    ______ ____
ROOT
ATOM      1  C   UNL     1      -1.090  -0.220   0.485  0.00  0.00    +0.000 C 
ATOM      2  C   UNL     1      -0.864   1.237   0.940  0.00  0.00    +0.000 C 
ATOM      3  O   UNL     1       0.187   1.846   0.205  0.00  0.00    +0.000 OA
ATOM      4  C   UNL     1       1.430   1.190   0.416  0.00  0.00    +0.000 C 
ATOM      5  C   UNL     1       1.373  -0.273  -0.082  0.00  0.00    +0.000 C 
ATOM      6  C   UNL     1       0.226  -1.014   0.623  0.00  0.00    +0.000 C 
ENDROOT
BRANCH   1   8
ATOM      7  C   UNL     1      -2.300  -1.130  -1.445  0.00  0.00    +0.000 C 
ATOM      8  N   UNL     1      -1.554  -0.212  -0.906  0.00  0.00    +0.000 NA
ATOM      9  C   UNL     1      -2.676  -1.019  -2.887  0.00  0.00    +0.000 C 
BRANCH   7  11
ATOM     10  H   UNL     1      -3.302  -2.952  -1.116  0.00  0.00    +0.000 HD
ATOM     11  O   UNL     1      -2.733  -2.226  -0.699  0.00  0.00    +0.000 OA
ENDBRANCH   7  11
ENDBRANCH   1   8
BRANCH   2  12
ATOM     12  O   UNL     1      -0.613   1.310   2.322  0.00  0.00    +0.000 OA
ATOM     13  H   UNL     1      -1.471   1.118   2.782  0.00  0.00    +0.000 HD
ENDBRANCH   2  12
BRANCH   5  14
ATOM     14  O   UNL     1       2.591  -0.914   0.202  0.00  0.00    +0.000 OA
ATOM     15  H   UNL     1       2.659  -1.690  -0.413  0.00  0.00    +0.000 HD
ENDBRANCH   5  14
BRANCH   6  16
ATOM     16  O   UNL     1       0.091  -2.302   0.078  0.00  0.00    +0.000 OA
ATOM     17  H   UNL     1      -0.428  -2.837   0.734  0.00  0.00    +0.000 HD
ENDBRANCH   6  16
BRANCH   4  18
ATOM     18  C   UNL     1       2.522   1.972  -0.330  0.00  0.00    +0.000 C 
BRANCH  18  19
ATOM     19  O   UNL     1       2.623   3.276   0.177  0.00  0.00    +0.000 OA
ATOM     20  H   UNL     1       1.910   3.810  -0.261  0.00  0.00    +0.000 HD
ENDBRANCH  18  19
ENDBRANCH   4  18
TORSDOF 7
