REMARK  Name = 193108
REMARK  7 active torsions:
REMARK  status: ('A' for Active; 'I' for Inactive)
REMARK    1  A    between atoms: C_2  and  C_3
REMARK    2  A    between atoms: N_5  and  C_6
REMARK    3  A    between atoms: C_7  and  O_8
REMARK    4  A    between atoms: C_10  and  C_11
REMARK    5  A    between atoms: C_11  and  O_12
REMARK    6  A    between atoms: C_13  and  O_14
REMARK    7  A    between atoms: C_15  and  O_16
REMARK                            x       y       z     vdW  Elec       q    Type
REMARK                         _______ _______ _______ _____ _____    ______ ____
ROOT
ATOM      1  C   UNL     1      -0.624   0.871   1.425  0.00  0.00    +0.000 C 
ATOM      2  C   UNL     1       0.875   0.761   1.050  0.00  0.00    +0.000 C 
ATOM      3  O   UNL     1       0.998   0.507  -0.337  0.00  0.00    +0.000 OA
ATOM      4  C   UNL     1       0.646  -0.839  -0.639  0.00  0.00    +0.000 C 
ATOM      5  C   UNL     1      -0.667  -1.295   0.091  0.00  0.00    +0.000 C 
ATOM      6  C   UNL     1      -1.491  -0.078   0.551  0.00  0.00    +0.000 C 
ENDROOT
BRANCH   1   9
ATOM      7  O   UNL     1      -2.934   1.590   2.948  0.00  0.00    +0.000 OA
ATOM      8  C   UNL     1      -2.017   0.966   3.548  0.00  0.00    +0.000 C 
ATOM      9  N   UNL     1      -0.823   0.583   2.851  0.00  0.00    +0.000 N 
ATOM     10  H   UNL     1      -0.062   0.123   3.402  0.00  0.00    +0.000 HD
BRANCH   8  11
ATOM     11  C   UNL     1      -2.162   0.669   5.006  0.00  0.00    +0.000 C 
ATOM     12 BR   UNL     1      -1.212   2.001   6.038  0.00  0.00    +0.000 Br
ENDBRANCH   8  11
ENDBRANCH   1   9
BRANCH   2  13
ATOM     13  O   UNL     1       1.517   1.969   1.356  0.00  0.00    +0.000 OA
ATOM     14  H   UNL     1       2.483   1.826   1.179  0.00  0.00    +0.000 HD
ENDBRANCH   2  13
BRANCH   5  15
ATOM     15  O   UNL     1      -1.451  -2.139  -0.716  0.00  0.00    +0.000 OA
ATOM     16  H   UNL     1      -2.094  -2.599  -0.115  0.00  0.00    +0.000 HD
ENDBRANCH   5  15
BRANCH   6  17
ATOM     17  O   UNL     1      -1.969   0.609  -0.578  0.00  0.00    +0.000 OA
ATOM     18  H   UNL     1      -2.722   1.179  -0.270  0.00  0.00    +0.000 HD
ENDBRANCH   6  17
BRANCH   4  19
ATOM     19  C   UNL     1       0.563  -0.966  -2.169  0.00  0.00    +0.000 C 
BRANCH  19  20
ATOM     20  O   UNL     1       0.565  -2.316  -2.546  0.00  0.00    +0.000 OA
ATOM     21  H   UNL     1       0.487  -2.325  -3.536  0.00  0.00    +0.000 HD
ENDBRANCH  19  20
ENDBRANCH   4  19
TORSDOF 7
