REMARK  Name = 57376616
REMARK  8 active torsions:
REMARK  status: ('A' for Active; 'I' for Inactive)
REMARK    1  A    between atoms: O_2  and  C_3
REMARK    2  A    between atoms: C_3  and  C_27
REMARK    3  A    between atoms: N_4  and  C_5
REMARK    4  A    between atoms: C_7  and  O_9
REMARK    5  A    between atoms: C_12  and  C_14
REMARK    6  A    between atoms: C_14  and  O_17
REMARK    7  A    between atoms: C_19  and  O_21
REMARK    8  A    between atoms: C_23  and  O_25
REMARK                            x       y       z     vdW  Elec       q    Type
REMARK                         _______ _______ _______ _____ _____    ______ ____
ROOT
ATOM      1  C   UNL     1      -0.536  -0.949   1.394  0.00  0.00    +0.000 C 
ATOM      2  C   UNL     1       0.343  -0.924   2.665  0.00  0.00    +0.000 C 
ATOM      3  O   UNL     1       1.515  -0.144   2.477  0.00  0.00    +0.000 OA
ATOM      4  C   UNL     1       2.339  -0.680   1.452  0.00  0.00    +0.000 C 
ATOM      5  C   UNL     1       1.621  -0.630   0.087  0.00  0.00    +0.000 C 
ATOM      6  C   UNL     1       0.298  -1.419   0.184  0.00  0.00    +0.000 C 
ENDROOT
BRANCH   1   8
ATOM      7  C   UNL     1      -2.263   0.704   0.724  0.00  0.00    +0.000 C 
ATOM      8  N   UNL     1      -1.074   0.398   1.163  0.00  0.00    +0.000 NA
ATOM      9  C   UNL     1      -3.307  -0.333   0.425  0.00  0.00    +0.000 C 
BRANCH   7  11
ATOM     10  H   UNL     1      -1.924   2.779   0.743  0.00  0.00    +0.000 HD
ATOM     11  O   UNL     1      -2.594   2.044   0.547  0.00  0.00    +0.000 OA
ENDBRANCH   7  11
ENDBRANCH   1   8
BRANCH   2  12
ATOM     12  O   UNL     1       0.675  -2.227   3.083  0.00  0.00    +0.000 OA
ATOM     13  H   UNL     1      -0.150  -2.628   3.461  0.00  0.00    +0.000 HD
ENDBRANCH   2  12
BRANCH   5  14
ATOM     14  O   UNL     1       1.373   0.706  -0.277  0.00  0.00    +0.000 OA
ATOM     15  H   UNL     1       1.261   0.721  -1.263  0.00  0.00    +0.000 HD
ENDBRANCH   5  14
BRANCH   6  16
ATOM     16  O   UNL     1      -0.444  -1.287  -1.001  0.00  0.00    +0.000 OA
ATOM     17  H   UNL     1       0.025  -1.821  -1.694  0.00  0.00    +0.000 HD
ENDBRANCH   6  16
BRANCH   4  18
ATOM     18  C   UNL     1       3.657   0.108   1.409  0.00  0.00    +0.000 C 
BRANCH  18  19
ATOM     19  O   UNL     1       4.334  -0.006   2.631  0.00  0.00    +0.000 OA
ATOM     20  H   UNL     1       4.749  -0.908   2.644  0.00  0.00    +0.000 HD
ENDBRANCH  18  19
ENDBRANCH   4  18
TORSDOF 7
