REMARK  Name = 899
REMARK  8 active torsions:
REMARK  status: ('A' for Active; 'I' for Inactive)
REMARK    1  A    between atoms: O_2  and  C_3
REMARK    2  A    between atoms: C_3  and  C_27
REMARK    3  A    between atoms: N_4  and  C_5
REMARK    4  A    between atoms: C_7  and  O_9
REMARK    5  A    between atoms: C_11  and  O_13
REMARK    6  A    between atoms: C_15  and  C_17
REMARK    7  A    between atoms: C_17  and  O_20
REMARK    8  A    between atoms: C_23  and  O_25
REMARK                            x       y       z     vdW  Elec       q    Type
REMARK                         _______ _______ _______ _____ _____    ______ ____
ROOT
ATOM      1  C   UNL     1       0.702  -0.293   0.100  0.00  0.00    +0.000 C 
ATOM      2  C   UNL     1       1.798  -0.121   1.169  0.00  0.00    +0.000 C 
ATOM      3  C   UNL     1       1.705   1.270   1.845  0.00  0.00    +0.000 C 
ATOM      4  C   UNL     1       1.129   2.334   0.865  0.00  0.00    +0.000 C 
ATOM      5  O   UNL     1       1.501   2.010  -0.461  0.00  0.00    +0.000 OA
ATOM      6  C   UNL     1       0.761   0.886  -0.928  0.00  0.00    +0.000 C 
ENDROOT
BRANCH   1   8
ATOM      7  C   UNL     1      -1.696  -0.772   0.175  0.00  0.00    +0.000 C 
ATOM      8  N   UNL     1      -0.611  -0.349   0.751  0.00  0.00    +0.000 NA
ATOM      9  C   UNL     1      -2.984  -0.762   0.932  0.00  0.00    +0.000 C 
BRANCH   7  11
ATOM     10  H   UNL     1      -2.515  -1.522  -1.614  0.00  0.00    +0.000 HD
ATOM     11  O   UNL     1      -1.672  -1.206  -1.151  0.00  0.00    +0.000 OA
ENDBRANCH   7  11
ENDBRANCH   1   8
BRANCH   2  12
ATOM     12  O   UNL     1       1.701  -1.127   2.145  0.00  0.00    +0.000 OA
ATOM     13  H   UNL     1       2.013  -1.969   1.722  0.00  0.00    +0.000 HD
ENDBRANCH   2  12
BRANCH   3  14
ATOM     14  O   UNL     1       2.962   1.641   2.360  0.00  0.00    +0.000 OA
ATOM     15  H   UNL     1       3.586   1.732   1.592  0.00  0.00    +0.000 HD
ENDBRANCH   3  14
BRANCH   6  16
ATOM     16  O   UNL     1       1.327   0.439  -2.131  0.00  0.00    +0.000 OA
ATOM     17  H   UNL     1       2.284   0.249  -1.946  0.00  0.00    +0.000 HD
ENDBRANCH   6  16
BRANCH   4  18
ATOM     18  C   UNL     1       1.586   3.764   1.195  0.00  0.00    +0.000 C 
BRANCH  18  19
ATOM     19  O   UNL     1       0.866   4.694   0.432  0.00  0.00    +0.000 OA
ATOM     20  H   UNL     1       1.267   4.691  -0.476  0.00  0.00    +0.000 HD
ENDBRANCH  18  19
ENDBRANCH   4  18
TORSDOF 7
