REMARK  Name = 440049
REMARK  6 active torsions:
REMARK  status: ('A' for Active; 'I' for Inactive)
REMARK    1  A    between atoms: N_1  and  C_2
REMARK    2  A    between atoms: C_3  and  O_4
REMARK    3  A    between atoms: C_6  and  C_7
REMARK    4  A    between atoms: C_7  and  O_8
REMARK    5  A    between atoms: C_9  and  O_10
REMARK    6  A    between atoms: C_11  and  O_12
REMARK                            x       y       z     vdW  Elec       q    Type
REMARK                         _______ _______ _______ _____ _____    ______ ____
ROOT
ATOM      1  C   UNL     1       0.573   1.452   1.051  0.00  0.00    +0.000 C 
ATOM      2  C   UNL     1       1.834   0.633   1.405  0.00  0.00    +0.000 C 
ATOM      3  O   UNL     1       1.675  -0.748   1.110  0.00  0.00    +0.000 OA
ATOM      4  C   UNL     1       1.342  -1.024  -0.247  0.00  0.00    +0.000 C 
ATOM      5  C   UNL     1       0.109  -0.233  -0.758  0.00  0.00    +0.000 C 
ATOM      6  C   UNL     1       0.202   1.267  -0.430  0.00  0.00    +0.000 C 
ENDROOT
BRANCH   1   7
ATOM      7  N   UNL     1       0.769   2.870   1.364  0.00  0.00    +0.000 NA
ATOM      8  H   UNL     1      -0.129   3.374   1.180  0.00  0.00    +0.000 HD
ATOM      9  H   UNL     1       0.943   2.959   2.392  0.00  0.00    +0.000 HD
ENDBRANCH   1   7
BRANCH   2  10
ATOM     10  O   UNL     1       2.987   1.145   0.784  0.00  0.00    +0.000 OA
ATOM     11  H   UNL     1       3.272   1.942   1.304  0.00  0.00    +0.000 HD
ENDBRANCH   2  10
BRANCH   5  12
ATOM     12  O   UNL     1      -1.046  -0.772  -0.164  0.00  0.00    +0.000 OA
ATOM     13  H   UNL     1      -1.818  -0.496  -0.724  0.00  0.00    +0.000 HD
ENDBRANCH   5  12
BRANCH   6  14
ATOM     14  O   UNL     1       1.146   1.884  -1.269  0.00  0.00    +0.000 OA
ATOM     15  H   UNL     1       0.912   2.847  -1.315  0.00  0.00    +0.000 HD
ENDBRANCH   6  14
BRANCH   4  16
ATOM     16  C   UNL     1       2.568  -0.956  -1.180  0.00  0.00    +0.000 C 
BRANCH  16  17
ATOM     17  O   UNL     1       2.298  -1.643  -2.372  0.00  0.00    +0.000 OA
ATOM     18  H   UNL     1       3.125  -1.585  -2.918  0.00  0.00    +0.000 HD
ENDBRANCH  16  17
ENDBRANCH   4  16
TORSDOF 6
