REMARK  Name = 102416
REMARK  9 active torsions:
REMARK  status: ('A' for Active; 'I' for Inactive)
REMARK    1  A    between atoms: C_1  and  C_2
REMARK    2  A    between atoms: N_4  and  C_5
REMARK    3  A    between atoms: C_6  and  O_7
REMARK    4  A    between atoms: O_7  and  C_8
REMARK    5  A    between atoms: C_11  and  N_12
REMARK    6  A    between atoms: C_18  and  C_19
REMARK    7  A    between atoms: C_19  and  O_20
REMARK    8  A    between atoms: C_21  and  O_22
REMARK    9  A    between atoms: C_23  and  O_24
REMARK                            x       y       z     vdW  Elec       q    Type
REMARK                         _______ _______ _______ _____ _____    ______ ____
ROOT
ATOM      1  C   UNL     1      -0.602  -0.629   1.964  0.00  0.00    +0.000 C 
ATOM      2  C   UNL     1      -0.403  -0.137   0.496  0.00  0.00    +0.000 C 
ATOM      3  O   UNL     1      -0.355   1.279   0.397  0.00  0.00    +0.000 OA
ATOM      4  C   UNL     1      -1.475   1.854   1.041  0.00  0.00    +0.000 C 
ATOM      5  C   UNL     1      -1.292   1.767   2.578  0.00  0.00    +0.000 C 
ATOM      6  C   UNL     1      -0.437   0.531   2.971  0.00  0.00    +0.000 C 
ENDROOT
BRANCH   1  10
ATOM      7  C   UNL     1      -3.557  -3.164   1.734  0.00  0.00    +0.000 C 
ATOM      8  C   UNL     1      -2.210  -2.550   1.536  0.00  0.00    +0.000 C 
ATOM      9  O   UNL     1      -1.333  -3.170   0.876  0.00  0.00    +0.000 OA
ATOM     10  N   UNL     1      -1.915  -1.272   2.117  0.00  0.00    +0.000 N 
ATOM     11  H   UNL     1      -2.649  -0.827   2.713  0.00  0.00    +0.000 HD
ENDBRANCH   1  10
BRANCH   5  12
ATOM     12  O   UNL     1      -2.556   1.702   3.188  0.00  0.00    +0.000 OA
ATOM     13  H   UNL     1      -2.427   1.937   4.144  0.00  0.00    +0.000 HD
ENDBRANCH   5  12
BRANCH   6  14
ATOM     14  O   UNL     1       0.922   0.892   3.016  0.00  0.00    +0.000 OA
ATOM     15  H   UNL     1       1.062   1.384   3.867  0.00  0.00    +0.000 HD
ENDBRANCH   6  14
BRANCH   2  16
ATOM     16  O   UNL     1       0.824  -0.671  -0.003  0.00  0.00    +0.000 OA
BRANCH  16  17
ATOM     17  C   UNL     1       1.271  -0.561  -1.329  0.00  0.00    +0.000 A 
ATOM     18  C   UNL     1       0.521   0.078  -2.334  0.00  0.00    +0.000 A 
ATOM     19  C   UNL     1       1.014   0.159  -3.639  0.00  0.00    +0.000 A 
ATOM     20  C   UNL     1       2.264  -0.396  -3.967  0.00  0.00    +0.000 A 
ATOM     21  C   UNL     1       3.008  -1.034  -2.961  0.00  0.00    +0.000 A 
ATOM     22  C   UNL     1       2.514  -1.114  -1.656  0.00  0.00    +0.000 A 
BRANCH  20  23
ATOM     23  N   UNL     1       2.775  -0.314  -5.311  0.00  0.00    +0.000 N 
ATOM     24  O   UNL     1       2.119   0.252  -6.209  0.00  0.00    +0.000 OA
ATOM     25  O   UNL     1       3.999  -0.859  -5.627  0.00  0.00    +0.000 OA
ENDBRANCH  20  23
ENDBRANCH  16  17
ENDBRANCH   2  16
BRANCH   4  26
ATOM     26  C   UNL     1      -1.619   3.308   0.569  0.00  0.00    +0.000 C 
BRANCH  26  27
ATOM     27  O   UNL     1      -2.732   3.921   1.163  0.00  0.00    +0.000 OA
ATOM     28  H   UNL     1      -3.534   3.557   0.706  0.00  0.00    +0.000 HD
ENDBRANCH  26  27
ENDBRANCH   4  26
TORSDOF 8
