REMARK  Name = 440552
REMARK  8 active torsions:
REMARK  status: ('A' for Active; 'I' for Inactive)
REMARK    1  A    between atoms: O_2  and  C_3
REMARK    2  A    between atoms: C_3  and  C_27
REMARK    3  A    between atoms: N_4  and  C_5
REMARK    4  A    between atoms: C_7  and  O_9
REMARK    5  A    between atoms: C_12  and  C_14
REMARK    6  A    between atoms: C_14  and  O_17
REMARK    7  A    between atoms: C_19  and  O_21
REMARK    8  A    between atoms: C_23  and  O_25
REMARK                            x       y       z     vdW  Elec       q    Type
REMARK                         _______ _______ _______ _____ _____    ______ ____
ROOT
ATOM      1  C   UNL     1       0.696  -0.187  -0.469  0.00  0.00    +0.000 C 
ATOM      2  C   UNL     1      -0.256  -1.312  -0.936  0.00  0.00    +0.000 C 
ATOM      3  O   UNL     1      -1.507  -0.785  -1.351  0.00  0.00    +0.000 OA
ATOM      4  C   UNL     1      -2.196  -0.214  -0.251  0.00  0.00    +0.000 C 
ATOM      5  C   UNL     1      -1.430   1.024   0.282  0.00  0.00    +0.000 C 
ATOM      6  C   UNL     1       0.014   0.620   0.661  0.00  0.00    +0.000 C 
ENDROOT
BRANCH   1   8
ATOM      7  C   UNL     1       3.122  -0.266   0.066  0.00  0.00    +0.000 C 
ATOM      8  N   UNL     1       1.933  -0.799   0.026  0.00  0.00    +0.000 NA
ATOM      9  C   UNL     1       4.246  -1.062   0.639  0.00  0.00    +0.000 C 
BRANCH   7  11
ATOM     10  H   UNL     1       2.712   1.592  -0.897  0.00  0.00    +0.000 HD
ATOM     11  O   UNL     1       3.395   1.010  -0.435  0.00  0.00    +0.000 OA
ENDBRANCH   7  11
ENDBRANCH   1   8
BRANCH   2  12
ATOM     12  O   UNL     1       0.325  -2.019  -2.001  0.00  0.00    +0.000 OA
ATOM     13  H   UNL     1       0.336  -1.410  -2.786  0.00  0.00    +0.000 HD
ENDBRANCH   2  12
BRANCH   5  14
ATOM     14  O   UNL     1      -1.449   2.085  -0.644  0.00  0.00    +0.000 OA
ATOM     15  H   UNL     1      -1.064   1.757  -1.498  0.00  0.00    +0.000 HD
ENDBRANCH   5  14
BRANCH   6  16
ATOM     16  O   UNL     1       0.777   1.739   1.040  0.00  0.00    +0.000 OA
ATOM     17  H   UNL     1       0.837   2.346   0.258  0.00  0.00    +0.000 HD
ENDBRANCH   6  16
BRANCH   4  18
ATOM     18  C   UNL     1      -3.622   0.145  -0.696  0.00  0.00    +0.000 C 
BRANCH  18  19
ATOM     19  O   UNL     1      -4.359   0.689   0.367  0.00  0.00    +0.000 OA
ATOM     20  H   UNL     1      -4.595  -0.067   0.965  0.00  0.00    +0.000 HD
ENDBRANCH  18  19
ENDBRANCH   4  18
TORSDOF 7
