REMARK  Name = 440271
REMARK  8 active torsions:
REMARK  status: ('A' for Active; 'I' for Inactive)
REMARK    1  A    between atoms: C_1  and  C_2
REMARK    2  A    between atoms: N_4  and  C_5
REMARK    3  A    between atoms: C_6  and  O_7
REMARK    4  A    between atoms: C_9  and  C_10
REMARK    5  A    between atoms: C_10  and  O_11
REMARK    6  A    between atoms: O_11  and  S_12
REMARK    7  A    between atoms: C_16  and  O_17
REMARK    8  A    between atoms: C_18  and  O_19
REMARK                            x       y       z     vdW  Elec       q    Type
REMARK                         _______ _______ _______ _____ _____    ______ ____
ROOT
ATOM      1  C   UNL     1       0.976  -0.326  -0.763  0.00  0.00    +0.000 C 
ATOM      2  C   UNL     1       1.127   1.021  -1.541  0.00  0.00    +0.000 C 
ATOM      3  O   UNL     1       1.290   2.142  -0.681  0.00  0.00    +0.000 OA
ATOM      4  C   UNL     1       0.304   2.135   0.334  0.00  0.00    +0.000 C 
ATOM      5  C   UNL     1       0.629   1.029   1.378  0.00  0.00    +0.000 C 
ATOM      6  C   UNL     1       1.389  -0.151   0.717  0.00  0.00    +0.000 C 
ENDROOT
BRANCH   1  10
ATOM      7  C   UNL     1      -2.335  -1.881  -2.116  0.00  0.00    +0.000 C 
ATOM      8  C   UNL     1      -0.930  -1.377  -2.076  0.00  0.00    +0.000 C 
ATOM      9  O   UNL     1      -0.215  -1.437  -3.114  0.00  0.00    +0.000 OA
ATOM     10  N   UNL     1      -0.402  -0.828  -0.861  0.00  0.00    +0.000 N 
ATOM     11  H   UNL     1      -1.012  -0.846  -0.013  0.00  0.00    +0.000 HD
ENDBRANCH   1  10
BRANCH   2  12
ATOM     12  O   UNL     1       2.248   0.935  -2.379  0.00  0.00    +0.000 OA
ATOM     13  H   UNL     1       2.243   1.751  -2.944  0.00  0.00    +0.000 HD
ENDBRANCH   2  12
BRANCH   5  14
ATOM     14  O   UNL     1       1.384   1.546   2.447  0.00  0.00    +0.000 OA
ATOM     15  H   UNL     1       1.329   0.883   3.184  0.00  0.00    +0.000 HD
ENDBRANCH   5  14
BRANCH   6  16
ATOM     16  O   UNL     1       2.775   0.078   0.788  0.00  0.00    +0.000 OA
ATOM     17  H   UNL     1       3.221  -0.799   0.652  0.00  0.00    +0.000 HD
ENDBRANCH   6  16
BRANCH   4  18
ATOM     18  C   UNL     1       0.205   3.539   0.945  0.00  0.00    +0.000 C 
BRANCH  18  19
ATOM     19  O   UNL     1      -0.785   3.549   1.946  0.00  0.00    +0.000 OA
BRANCH  19  20
ATOM     20  S   UNL     1      -0.851   5.104   2.615  0.00  0.00    +0.000 S 
ATOM     21  O   UNL     1      -1.862   5.110   3.726  0.00  0.00    +0.000 OA
ATOM     22  O   UNL     1      -1.267   6.101   1.571  0.00  0.00    +0.000 OA
ATOM     23  O   UNL     1       0.648   5.534   3.244  0.00  0.00    +0.000 OA
ENDBRANCH  19  20
ENDBRANCH  18  19
ENDBRANCH   4  18
TORSDOF 7
