REMARK  Name = 122253
REMARK  10 active torsions:
REMARK  status: ('A' for Active; 'I' for Inactive)
REMARK    1  A    between atoms: O_2  and  C_3
REMARK    2  A    between atoms: C_3  and  C_40
REMARK    3  A    between atoms: N_4  and  C_5
REMARK    4  A    between atoms: C_7  and  O_9
REMARK    5  A    between atoms: O_9  and  C_10
REMARK    6  A    between atoms: C_10  and  C_13
REMARK    7  A    between atoms: C_25  and  C_27
REMARK    8  A    between atoms: C_27  and  O_30
REMARK    9  A    between atoms: C_32  and  O_34
REMARK   10  A    between atoms: C_36  and  O_38
REMARK                            x       y       z     vdW  Elec       q    Type
REMARK                         _______ _______ _______ _____ _____    ______ ____
ROOT
ATOM      1  C   UNL     1      -0.411   2.314  -0.954  0.00  0.00    +0.000 C 
ATOM      2  C   UNL     1      -0.235   1.309   0.207  0.00  0.00    +0.000 C 
ATOM      3  O   UNL     1       0.980   1.564   0.902  0.00  0.00    +0.000 OA
ATOM      4  C   UNL     1       2.109   1.403   0.053  0.00  0.00    +0.000 C 
ATOM      5  C   UNL     1       2.098   2.456  -1.079  0.00  0.00    +0.000 C 
ATOM      6  C   UNL     1       0.803   2.299  -1.902  0.00  0.00    +0.000 C 
ENDROOT
BRANCH   1   8
ATOM      7  C   UNL     1      -2.071   1.175  -2.435  0.00  0.00    +0.000 C 
ATOM      8  N   UNL     1      -1.694   2.147  -1.653  0.00  0.00    +0.000 NA
ATOM      9  C   UNL     1      -3.436   1.216  -3.041  0.00  0.00    +0.000 C 
BRANCH   7  11
ATOM     10  H   UNL     1      -1.512  -0.632  -3.358  0.00  0.00    +0.000 HD
ATOM     11  O   UNL     1      -1.219   0.117  -2.743  0.00  0.00    +0.000 OA
ENDBRANCH   7  11
ENDBRANCH   1   8
BRANCH   5  12
ATOM     12  O   UNL     1       2.175   3.748  -0.529  0.00  0.00    +0.000 OA
ATOM     13  H   UNL     1       2.542   4.342  -1.234  0.00  0.00    +0.000 HD
ENDBRANCH   5  12
BRANCH   6  14
ATOM     14  O   UNL     1       0.683   3.338  -2.839  0.00  0.00    +0.000 OA
ATOM     15  H   UNL     1       1.349   3.157  -3.553  0.00  0.00    +0.000 HD
ENDBRANCH   6  14
BRANCH   2  16
ATOM     16  O   UNL     1      -0.280  -0.026  -0.267  0.00  0.00    +0.000 OA
BRANCH  16  17
ATOM     17  C   UNL     1      -0.510  -0.922   0.799  0.00  0.00    +0.000 C 
BRANCH  17  18
ATOM     18  C   UNL     1      -0.374  -2.322   0.279  0.00  0.00    +0.000 A 
ATOM     19  C   UNL     1       0.873  -2.967   0.301  0.00  0.00    +0.000 A 
ATOM     20  C   UNL     1       1.010  -4.254  -0.230  0.00  0.00    +0.000 A 
ATOM     21  C   UNL     1      -0.093  -4.897  -0.799  0.00  0.00    +0.000 A 
ATOM     22  C   UNL     1      -1.333  -4.253  -0.843  0.00  0.00    +0.000 A 
ATOM     23  C   UNL     1      -1.473  -2.966  -0.313  0.00  0.00    +0.000 A 
ENDBRANCH  17  18
ENDBRANCH  16  17
ENDBRANCH   2  16
BRANCH   4  24
ATOM     24  C   UNL     1       3.388   1.514   0.895  0.00  0.00    +0.000 C 
BRANCH  24  25
ATOM     25  O   UNL     1       3.463   0.452   1.809  0.00  0.00    +0.000 OA
ATOM     26  H   UNL     1       2.864   0.683   2.566  0.00  0.00    +0.000 HD
ENDBRANCH  24  25
ENDBRANCH   4  24
TORSDOF 9
