REMARK  Name = 112106
REMARK  9 active torsions:
REMARK  status: ('A' for Active; 'I' for Inactive)
REMARK    1  A    between atoms: O_2  and  C_3
REMARK    2  A    between atoms: C_3  and  C_43
REMARK    3  A    between atoms: N_4  and  C_5
REMARK    4  A    between atoms: C_7  and  O_9
REMARK    5  A    between atoms: O_9  and  C_10
REMARK    6  A    between atoms: C_28  and  C_30
REMARK    7  A    between atoms: C_30  and  O_33
REMARK    8  A    between atoms: C_35  and  O_37
REMARK    9  A    between atoms: C_39  and  O_41
REMARK                            x       y       z     vdW  Elec       q    Type
REMARK                         _______ _______ _______ _____ _____    ______ ____
ROOT
ATOM      1  C   UNL     1      -0.807  -1.311   0.155  0.00  0.00    +0.000 C 
ATOM      2  C   UNL     1       0.229  -0.944   1.243  0.00  0.00    +0.000 C 
ATOM      3  O   UNL     1       0.863  -2.124   1.703  0.00  0.00    +0.000 OA
ATOM      4  C   UNL     1      -0.056  -2.958   2.391  0.00  0.00    +0.000 C 
ATOM      5  C   UNL     1      -1.145  -3.469   1.418  0.00  0.00    +0.000 C 
ATOM      6  C   UNL     1      -1.846  -2.274   0.750  0.00  0.00    +0.000 C 
ENDROOT
BRANCH   1   8
ATOM      7  C   UNL     1      -1.286   0.506  -1.464  0.00  0.00    +0.000 C 
ATOM      8  N   UNL     1      -1.496  -0.112  -0.335  0.00  0.00    +0.000 NA
ATOM      9  C   UNL     1      -0.282   0.030  -2.473  0.00  0.00    +0.000 C 
BRANCH   7  11
ATOM     10  H   UNL     1      -2.713   2.008  -1.104  0.00  0.00    +0.000 HD
ATOM     11  O   UNL     1      -2.027   1.647  -1.757  0.00  0.00    +0.000 OA
ENDBRANCH   7  11
ENDBRANCH   1   8
BRANCH   5  12
ATOM     12  O   UNL     1      -2.101  -4.227   2.116  0.00  0.00    +0.000 OA
ATOM     13  H   UNL     1      -1.847  -5.182   2.020  0.00  0.00    +0.000 HD
ENDBRANCH   5  12
BRANCH   6  14
ATOM     14  O   UNL     1      -2.694  -2.727  -0.274  0.00  0.00    +0.000 OA
ATOM     15  H   UNL     1      -3.523  -3.056   0.162  0.00  0.00    +0.000 HD
ENDBRANCH   6  14
BRANCH   2  16
ATOM     16  O   UNL     1       1.243  -0.097   0.695  0.00  0.00    +0.000 OA
BRANCH  16  17
ATOM     17  C   UNL     1       1.197   1.304   0.554  0.00  0.00    +0.000 A 
ATOM     18  C   UNL     1       0.166   2.087   1.116  0.00  0.00    +0.000 A 
ATOM     19  C   UNL     1       0.150   3.472   0.944  0.00  0.00    +0.000 A 
ATOM     20  C   UNL     1       1.157   4.105   0.218  0.00  0.00    +0.000 A 
ATOM     21  C   UNL     1       2.196   3.354  -0.346  0.00  0.00    +0.000 A 
ATOM     22  C   UNL     1       3.210   3.989  -1.080  0.00  0.00    +0.000 A 
ATOM     23  C   UNL     1       4.243   3.238  -1.646  0.00  0.00    +0.000 A 
ATOM     24  C   UNL     1       4.272   1.852  -1.485  0.00  0.00    +0.000 A 
ATOM     25  C   UNL     1       3.271   1.206  -0.756  0.00  0.00    +0.000 A 
ATOM     26  C   UNL     1       2.221   1.945  -0.177  0.00  0.00    +0.000 A 
ENDBRANCH  16  17
ENDBRANCH   2  16
BRANCH   4  27
ATOM     27  C   UNL     1       0.720  -4.130   3.010  0.00  0.00    +0.000 C 
BRANCH  27  28
ATOM     28  O   UNL     1       1.681  -3.655   3.915  0.00  0.00    +0.000 OA
ATOM     29  H   UNL     1       2.475  -3.392   3.379  0.00  0.00    +0.000 HD
ENDBRANCH  27  28
ENDBRANCH   4  27
TORSDOF 8
