REMARK  Name = 127132
REMARK  16 active torsions:
REMARK  status: ('A' for Active; 'I' for Inactive)
REMARK    1  A    between atoms: O_2  and  C_3
REMARK    2  A    between atoms: C_3  and  C_47
REMARK    3  A    between atoms: N_4  and  C_5
REMARK    4  A    between atoms: C_7  and  O_9
REMARK    5  A    between atoms: O_9  and  C_10
REMARK    6  A    between atoms: C_10  and  C_12
REMARK    7  A    between atoms: C_17  and  C_19
REMARK    8  A    between atoms: C_19  and  O_22
REMARK    9  A    between atoms: O_22  and  C_23
REMARK   10  A    between atoms: C_23  and  C_25
REMARK   11  A    between atoms: C_29  and  O_31
REMARK   12  A    between atoms: O_31  and  C_32
REMARK   13  A    between atoms: C_32  and  C_34
REMARK   14  A    between atoms: C_38  and  O_40
REMARK   15  A    between atoms: O_40  and  C_41
REMARK   16  A    between atoms: C_41  and  C_43
REMARK                            x       y       z     vdW  Elec       q    Type
REMARK                         _______ _______ _______ _____ _____    ______ ____
ROOT
ATOM      1  C   UNL     1      -1.533   0.921   0.305  0.00  0.00    +0.000 C 
ATOM      2  C   UNL     1      -0.677   2.204   0.312  0.00  0.00    +0.000 C 
ATOM      3  O   UNL     1       0.441   2.050  -0.543  0.00  0.00    +0.000 OA
ATOM      4  C   UNL     1       1.325   1.061  -0.040  0.00  0.00    +0.000 C 
ATOM      5  C   UNL     1       0.640  -0.329  -0.060  0.00  0.00    +0.000 C 
ATOM      6  C   UNL     1      -0.669  -0.273   0.752  0.00  0.00    +0.000 C 
ENDROOT
BRANCH   1   8
ATOM      7  C   UNL     1      -3.243   0.253  -1.364  0.00  0.00    +0.000 C 
ATOM      8  N   UNL     1      -2.061   0.699  -1.048  0.00  0.00    +0.000 NA
ATOM      9  C   UNL     1      -4.287  -0.067  -0.329  0.00  0.00    +0.000 C 
BRANCH   7  11
ATOM     10  H   UNL     1      -4.459  -0.232  -3.018  0.00  0.00    +0.000 HD
ATOM     11  O   UNL     1      -3.550   0.098  -2.714  0.00  0.00    +0.000 OA
ENDBRANCH   7  11
ENDBRANCH   1   8
BRANCH   2  12
ATOM     12  O   UNL     1      -1.451   3.307  -0.160  0.00  0.00    +0.000 OA
BRANCH  12  13
ATOM     13  C   UNL     1      -2.463   3.921   0.587  0.00  0.00    +0.000 C 
ATOM     14  O   UNL     1      -2.682   3.582   1.782  0.00  0.00    +0.000 OA
ATOM     15  C   UNL     1      -3.255   5.027  -0.022  0.00  0.00    +0.000 C 
ENDBRANCH  12  13
ENDBRANCH   2  12
BRANCH   4  16
ATOM     16  C   UNL     1       2.593   1.077  -0.903  0.00  0.00    +0.000 C 
BRANCH  16  17
ATOM     17  O   UNL     1       3.628   0.327  -0.274  0.00  0.00    +0.000 OA
BRANCH  17  18
ATOM     18  C   UNL     1       4.878   0.120  -0.863  0.00  0.00    +0.000 C 
ATOM     19  O   UNL     1       5.148   0.613  -1.991  0.00  0.00    +0.000 OA
ATOM     20  C   UNL     1       5.882  -0.736  -0.170  0.00  0.00    +0.000 C 
ENDBRANCH  17  18
ENDBRANCH  16  17
ENDBRANCH   4  16
BRANCH   5  21
ATOM     21  O   UNL     1       1.501  -1.314   0.517  0.00  0.00    +0.000 OA
BRANCH  21  22
ATOM     22  C   UNL     1       2.173  -2.297  -0.219  0.00  0.00    +0.000 C 
ATOM     23  O   UNL     1       2.025  -2.390  -1.468  0.00  0.00    +0.000 OA
ATOM     24  C   UNL     1       3.042  -3.275   0.495  0.00  0.00    +0.000 C 
ENDBRANCH  21  22
ENDBRANCH   5  21
BRANCH   6  25
ATOM     25  O   UNL     1      -1.407  -1.485   0.586  0.00  0.00    +0.000 OA
BRANCH  25  26
ATOM     26  C   UNL     1      -1.165  -2.655   1.315  0.00  0.00    +0.000 C 
ATOM     27  O   UNL     1      -0.333  -2.668   2.263  0.00  0.00    +0.000 OA
ATOM     28  C   UNL     1      -1.948  -3.884   1.006  0.00  0.00    +0.000 C 
ENDBRANCH  25  26
ENDBRANCH   6  25
TORSDOF 11
