REMARK  Name = ZINC000004027859
REMARK  5 active torsions:
REMARK  status: ('A' for Active; 'I' for Inactive)
REMARK    1  A    between atoms: C_1  and  C_2
REMARK    2  A    between atoms: N_4  and  C_5
REMARK    3  A    between atoms: C_6  and  O_7
REMARK    4  A    between atoms: C_10  and  C_11
REMARK    5  A    between atoms: C_21  and  O_22
REMARK                            x       y       z     vdW  Elec       q    Type
REMARK                         _______ _______ _______ _____ _____    ______ ____
ROOT
ATOM      1  C   UNL     1       2.637  -0.207  -0.453  0.00  0.00    +0.000 C 
ATOM      2  C   UNL     1       1.306   0.535  -0.195  0.00  0.00    +0.000 C 
ATOM      3  C   UNL     1       0.138  -0.432  -0.443  0.00  0.00    +0.000 C 
ATOM      4  O   UNL     1      -1.096   0.166  -0.100  0.00  0.00    +0.000 OA
ATOM      5  C   UNL     1      -2.154  -0.745  -0.363  0.00  0.00    +0.000 C 
ATOM      6  O   UNL     1      -2.047  -1.904   0.453  0.00  0.00    +0.000 OA
ATOM      7  C   UNL     1      -0.856  -2.604   0.150  0.00  0.00    +0.000 C 
ATOM      8  C   UNL     1       0.354  -1.705   0.387  0.00  0.00    +0.000 C 
ATOM      9  O   UNL     1       1.545  -2.355  -0.015  0.00  0.00    +0.000 OA
ATOM     10  C   UNL     1       2.669  -1.551   0.318  0.00  0.00    +0.000 C 
ENDROOT
BRANCH   5  11
ATOM     11  C   UNL     1      -3.458  -0.061  -0.046  0.00  0.00    +0.000 A 
ATOM     12  C   UNL     1      -3.699   0.424   1.252  0.00  0.00    +0.000 A 
ATOM     13  C   UNL     1      -4.907   1.059   1.555  0.00  0.00    +0.000 A 
ATOM     14  C   UNL     1      -5.884   1.214   0.567  0.00  0.00    +0.000 A 
ATOM     15  C   UNL     1      -5.654   0.734  -0.725  0.00  0.00    +0.000 A 
ATOM     16  C   UNL     1      -4.447   0.099  -1.033  0.00  0.00    +0.000 A 
ENDBRANCH   5  11
BRANCH   1  20
ATOM     17  C   UNL     1       5.345   2.600  -0.407  0.00  0.00    +0.000 C 
ATOM     18  C   UNL     1       4.196   1.760  -0.861  0.00  0.00    +0.000 C 
ATOM     19  O   UNL     1       3.627   2.023  -1.954  0.00  0.00    +0.000 OA
ATOM     20  N   UNL     1       3.775   0.638  -0.072  0.00  0.00    +0.000 N 
ATOM     21  H   UNL     1       4.319   0.410   0.791  0.00  0.00    +0.000 HD
ENDBRANCH   1  20
BRANCH   2  22
ATOM     22  O   UNL     1       1.277   1.017   1.126  0.00  0.00    +0.000 OA
ATOM     23  H   UNL     1       0.613   1.754   1.150  0.00  0.00    +0.000 HD
ENDBRANCH   2  22
BRANCH  10  24
ATOM     24  O   UNL     1       3.837  -2.243  -0.028  0.00  0.00    +0.000 OA
ATOM     25  H   UNL     1       3.879  -3.038   0.566  0.00  0.00    +0.000 HD
ENDBRANCH  10  24
TORSDOF 4
