REMARK  Name = 24139
REMARK  8 active torsions:
REMARK  status: ('A' for Active; 'I' for Inactive)
REMARK    1  A    between atoms: O_2  and  C_3
REMARK    2  A    between atoms: C_3  and  C_27
REMARK    3  A    between atoms: N_4  and  C_5
REMARK    4  A    between atoms: C_7  and  O_9
REMARK    5  A    between atoms: C_12  and  C_14
REMARK    6  A    between atoms: C_14  and  O_17
REMARK    7  A    between atoms: C_19  and  O_21
REMARK    8  A    between atoms: C_23  and  O_25
REMARK                            x       y       z     vdW  Elec       q    Type
REMARK                         _______ _______ _______ _____ _____    ______ ____
ROOT
ATOM      1  C   UNL     1       0.484   0.933   0.536  0.00  0.00    +0.000 C 
ATOM      2  C   UNL     1      -0.440   1.258  -0.660  0.00  0.00    +0.000 C 
ATOM      3  O   UNL     1      -1.567   0.401  -0.654  0.00  0.00    +0.000 OA
ATOM      4  C   UNL     1      -1.177  -0.944  -0.874  0.00  0.00    +0.000 C 
ATOM      5  C   UNL     1      -0.309  -1.452   0.299  0.00  0.00    +0.000 C 
ATOM      6  C   UNL     1       0.920  -0.542   0.462  0.00  0.00    +0.000 C 
ENDROOT
BRANCH   1   8
ATOM      7  C   UNL     1       1.891   2.868   1.194  0.00  0.00    +0.000 C 
ATOM      8  N   UNL     1       1.677   1.787   0.496  0.00  0.00    +0.000 NA
ATOM      9  C   UNL     1       0.911   3.385   2.205  0.00  0.00    +0.000 C 
BRANCH   7  11
ATOM     10  H   UNL     1       3.779   3.246   0.348  0.00  0.00    +0.000 HD
ATOM     11  O   UNL     1       3.084   3.562   1.014  0.00  0.00    +0.000 OA
ENDBRANCH   7  11
ENDBRANCH   1   8
BRANCH   2  12
ATOM     12  O   UNL     1      -0.901   2.579  -0.560  0.00  0.00    +0.000 OA
ATOM     13  H   UNL     1      -0.199   3.165  -0.949  0.00  0.00    +0.000 HD
ENDBRANCH   2  12
BRANCH   5  14
ATOM     14  O   UNL     1       0.108  -2.769   0.044  0.00  0.00    +0.000 OA
ATOM     15  H   UNL     1       0.350  -3.170   0.919  0.00  0.00    +0.000 HD
ENDBRANCH   5  14
BRANCH   6  16
ATOM     16  O   UNL     1       1.606  -0.897   1.636  0.00  0.00    +0.000 OA
ATOM     17  H   UNL     1       2.538  -0.570   1.537  0.00  0.00    +0.000 HD
ENDBRANCH   6  16
BRANCH   4  18
ATOM     18  C   UNL     1      -2.441  -1.798  -1.058  0.00  0.00    +0.000 C 
BRANCH  18  19
ATOM     19  O   UNL     1      -3.290  -1.687   0.054  0.00  0.00    +0.000 OA
ATOM     20  H   UNL     1      -3.059  -2.430   0.670  0.00  0.00    +0.000 HD
ENDBRANCH  18  19
ENDBRANCH   4  18
TORSDOF 7
