REMARK  Name = 99461
REMARK  15 active torsions:
REMARK  status: ('A' for Active; 'I' for Inactive)
REMARK    1  A    between atoms: C_1  and  C_2
REMARK    2  A    between atoms: N_4  and  C_5
REMARK    3  A    between atoms: C_6  and  O_7
REMARK    4  A    between atoms: O_7  and  C_8
REMARK    5  A    between atoms: C_8  and  C_9
REMARK    6  A    between atoms: C_12  and  C_13
REMARK    7  A    between atoms: C_13  and  O_14
REMARK    8  A    between atoms: O_14  and  C_15
REMARK    9  A    between atoms: C_15  and  C_16
REMARK   10  A    between atoms: C_18  and  O_19
REMARK   11  A    between atoms: O_19  and  C_20
REMARK   12  A    between atoms: C_20  and  C_21
REMARK   13  A    between atoms: C_23  and  O_24
REMARK   14  A    between atoms: O_24  and  C_25
REMARK   15  A    between atoms: C_25  and  C_26
REMARK                            x       y       z     vdW  Elec       q    Type
REMARK                         _______ _______ _______ _____ _____    ______ ____
ROOT
ATOM      1  C   UNL     1      -0.672  -0.342   1.557  0.00  0.00    +0.000 C 
ATOM      2  C   UNL     1       0.394  -1.369   1.115  0.00  0.00    +0.000 C 
ATOM      3  O   UNL     1       1.605  -0.701   0.814  0.00  0.00    +0.000 OA
ATOM      4  C   UNL     1       1.449   0.141  -0.317  0.00  0.00    +0.000 C 
ATOM      5  C   UNL     1       0.464   1.290   0.005  0.00  0.00    +0.000 C 
ATOM      6  C   UNL     1      -0.887   0.699   0.446  0.00  0.00    +0.000 C 
ENDROOT
BRANCH   1  10
ATOM      7  C   UNL     1      -3.695  -1.967   3.415  0.00  0.00    +0.000 C 
ATOM      8  C   UNL     1      -2.447  -1.180   3.186  0.00  0.00    +0.000 C 
ATOM      9  O   UNL     1      -1.824  -0.704   4.173  0.00  0.00    +0.000 OA
ATOM     10  N   UNL     1      -1.941  -1.014   1.853  0.00  0.00    +0.000 N 
ATOM     11  H   UNL     1      -2.459  -1.468   1.067  0.00  0.00    +0.000 HD
ENDBRANCH   1  10
BRANCH   2  12
ATOM     12  O   UNL     1       0.652  -2.283   2.181  0.00  0.00    +0.000 OA
BRANCH  12  13
ATOM     13  C   UNL     1      -0.071  -3.463   2.394  0.00  0.00    +0.000 C 
ATOM     14  C   UNL     1       0.216  -4.291   3.599  0.00  0.00    +0.000 C 
ATOM     15  O   UNL     1      -0.931  -3.856   1.560  0.00  0.00    +0.000 OA
ENDBRANCH  12  13
ENDBRANCH   2  12
BRANCH   4  16
ATOM     16  C   UNL     1       2.832   0.685  -0.706  0.00  0.00    +0.000 C 
BRANCH  16  17
ATOM     17  O   UNL     1       3.760  -0.383  -0.890  0.00  0.00    +0.000 OA
BRANCH  17  18
ATOM     18  C   UNL     1       3.758  -1.220  -2.010  0.00  0.00    +0.000 C 
ATOM     19  C   UNL     1       4.738  -2.341  -2.090  0.00  0.00    +0.000 C 
ATOM     20  O   UNL     1       2.972  -1.010  -2.974  0.00  0.00    +0.000 OA
ENDBRANCH  17  18
ENDBRANCH  16  17
ENDBRANCH   4  16
BRANCH   5  21
ATOM     21  O   UNL     1       0.257   2.104  -1.152  0.00  0.00    +0.000 OA
BRANCH  21  22
ATOM     22  C   UNL     1       0.881   3.340  -1.363  0.00  0.00    +0.000 C 
ATOM     23  C   UNL     1       0.604   4.091  -2.620  0.00  0.00    +0.000 C 
ATOM     24  O   UNL     1       1.702   3.804  -0.527  0.00  0.00    +0.000 OA
ENDBRANCH  21  22
ENDBRANCH   5  21
BRANCH   6  25
ATOM     25  O   UNL     1      -1.740   1.733   0.943  0.00  0.00    +0.000 OA
BRANCH  25  26
ATOM     26  C   UNL     1      -2.537   2.545   0.129  0.00  0.00    +0.000 C 
ATOM     27  C   UNL     1      -3.300   3.670   0.739  0.00  0.00    +0.000 C 
ATOM     28  O   UNL     1      -2.596   2.356  -1.117  0.00  0.00    +0.000 OA
ENDBRANCH  25  26
ENDBRANCH   6  25
TORSDOF 10
