REMARK  Name = 198514
REMARK  15 active torsions:
REMARK  status: ('A' for Active; 'I' for Inactive)
REMARK    1  A    between atoms: C_1  and  C_2
REMARK    2  A    between atoms: C_2  and  O_4
REMARK    3  A    between atoms: O_4  and  C_5
REMARK    4  A    between atoms: C_5  and  C_6
REMARK    5  A    between atoms: C_8  and  O_9
REMARK    6  A    between atoms: O_9  and  C_10
REMARK    7  A    between atoms: C_10  and  C_11
REMARK    8  A    between atoms: C_13  and  N_14
REMARK    9  A    between atoms: C_15  and  C_17
REMARK   10  A    between atoms: C_19  and  O_20
REMARK   11  A    between atoms: O_20  and  C_21
REMARK   12  A    between atoms: C_21  and  C_22
REMARK   13  A    between atoms: C_24  and  O_25
REMARK   14  A    between atoms: O_25  and  C_26
REMARK   15  A    between atoms: C_26  and  C_27
REMARK                            x       y       z     vdW  Elec       q    Type
REMARK                         _______ _______ _______ _____ _____    ______ ____
ROOT
ATOM      1  C   UNL     1       1.641   1.288   0.485  0.00  0.00    +0.000 C 
ATOM      2  O   UNL     1       2.156   0.115  -0.121  0.00  0.00    +0.000 OA
ATOM      3  C   UNL     1       1.182  -0.495  -0.945  0.00  0.00    +0.000 C 
ATOM      4  C   UNL     1       0.012  -1.009  -0.080  0.00  0.00    +0.000 C 
ATOM      5  C   UNL     1      -0.597   0.153   0.729  0.00  0.00    +0.000 C 
ATOM      6  C   UNL     1       0.510   0.921   1.473  0.00  0.00    +0.000 C 
ENDROOT
BRANCH   4   7
ATOM      7  N   UNL     1      -1.014  -1.622  -0.928  0.00  0.00    +0.000 N 
ATOM      8  C   UNL     1      -1.291  -3.030  -0.932  0.00  0.00    +0.000 C 
ATOM      9  O   UNL     1      -0.710  -3.800  -0.120  0.00  0.00    +0.000 OA
ATOM     10  H   UNL     1      -1.521  -1.013  -1.611  0.00  0.00    +0.000 HD
BRANCH   8  11
ATOM     11  C   UNL     1      -2.306  -3.590  -1.874  0.00  0.00    +0.000 C 
ATOM     12 BR   UNL     1      -4.072  -3.421  -1.102  0.00  0.00    +0.000 Br
ENDBRANCH   8  11
ENDBRANCH   4   7
BRANCH   1  13
ATOM     13  C   UNL     1       2.784   2.012   1.214  0.00  0.00    +0.000 C 
BRANCH  13  14
ATOM     14  O   UNL     1       3.786   2.432   0.288  0.00  0.00    +0.000 OA
BRANCH  14  16
ATOM     15  C   UNL     1       5.772   2.119  -1.192  0.00  0.00    +0.000 C 
ATOM     16  C   UNL     1       4.818   1.605  -0.168  0.00  0.00    +0.000 C 
ATOM     17  O   UNL     1       4.983   0.451   0.313  0.00  0.00    +0.000 OA
ENDBRANCH  14  16
ENDBRANCH  13  14
ENDBRANCH   1  13
BRANCH   3  18
ATOM     18  O   UNL     1       1.803  -1.594  -1.615  0.00  0.00    +0.000 OA
BRANCH  18  19
ATOM     19  C   UNL     1       1.401  -2.079  -2.865  0.00  0.00    +0.000 C 
ATOM     20  C   UNL     1       2.022  -3.323  -3.402  0.00  0.00    +0.000 C 
ATOM     21  O   UNL     1       0.498  -1.499  -3.527  0.00  0.00    +0.000 OA
ENDBRANCH  18  19
ENDBRANCH   3  18
BRANCH   5  22
ATOM     22  O   UNL     1      -1.534  -0.358   1.679  0.00  0.00    +0.000 OA
BRANCH  22  23
ATOM     23  C   UNL     1      -2.889  -0.570   1.404  0.00  0.00    +0.000 C 
ATOM     24  C   UNL     1      -3.759  -1.184   2.447  0.00  0.00    +0.000 C 
ATOM     25  O   UNL     1      -3.395  -0.199   0.310  0.00  0.00    +0.000 OA
ENDBRANCH  22  23
ENDBRANCH   5  22
BRANCH   6  26
ATOM     26  O   UNL     1      -0.030   2.117   2.041  0.00  0.00    +0.000 OA
BRANCH  26  27
ATOM     27  C   UNL     1      -0.702   2.162   3.267  0.00  0.00    +0.000 C 
ATOM     28  C   UNL     1      -1.284   3.452   3.735  0.00  0.00    +0.000 C 
ATOM     29  O   UNL     1      -0.773   1.142   4.005  0.00  0.00    +0.000 OA
ENDBRANCH  26  27
ENDBRANCH   6  26
TORSDOF 11
