REMARK  Name = 112106
REMARK  8 active torsions:
REMARK  status: ('A' for Active; 'I' for Inactive)
REMARK    1  A    between atoms: C_1  and  C_2
REMARK    2  A    between atoms: N_4  and  C_5
REMARK    3  A    between atoms: C_6  and  O_7
REMARK    4  A    between atoms: O_7  and  C_8
REMARK    5  A    between atoms: C_19  and  C_20
REMARK    6  A    between atoms: C_20  and  O_21
REMARK    7  A    between atoms: C_22  and  O_23
REMARK    8  A    between atoms: C_24  and  O_25
REMARK                            x       y       z     vdW  Elec       q    Type
REMARK                         _______ _______ _______ _____ _____    ______ ____
ROOT
ATOM      1  C   UNL     1       0.691  -1.940  -0.684  0.00  0.00    +0.000 C 
ATOM      2  C   UNL     1       0.304  -0.459  -0.537  0.00  0.00    +0.000 C 
ATOM      3  O   UNL     1      -0.492  -0.058  -1.637  0.00  0.00    +0.000 OA
ATOM      4  C   UNL     1       0.265  -0.081  -2.835  0.00  0.00    +0.000 C 
ATOM      5  C   UNL     1       0.682  -1.534  -3.176  0.00  0.00    +0.000 C 
ATOM      6  C   UNL     1       1.466  -2.142  -1.996  0.00  0.00    +0.000 C 
ENDROOT
BRANCH   1  10
ATOM      7  C   UNL     1       1.825  -3.305   2.786  0.00  0.00    +0.000 C 
ATOM      8  C   UNL     1       0.976  -3.070   1.580  0.00  0.00    +0.000 C 
ATOM      9  O   UNL     1      -0.218  -3.474   1.573  0.00  0.00    +0.000 OA
ATOM     10  N   UNL     1       1.513  -2.357   0.456  0.00  0.00    +0.000 N 
ATOM     11  H   UNL     1       2.490  -1.992   0.526  0.00  0.00    +0.000 HD
ENDBRANCH   1  10
BRANCH   5  12
ATOM     12  O   UNL     1       1.487  -1.540  -4.328  0.00  0.00    +0.000 OA
ATOM     13  H   UNL     1       1.390  -2.436  -4.744  0.00  0.00    +0.000 HD
ENDBRANCH   5  12
BRANCH   6  14
ATOM     14  O   UNL     1       1.663  -3.517  -2.206  0.00  0.00    +0.000 OA
ATOM     15  H   UNL     1       2.462  -3.610  -2.788  0.00  0.00    +0.000 HD
ENDBRANCH   6  14
BRANCH   2  16
ATOM     16  O   UNL     1      -0.450  -0.300   0.664  0.00  0.00    +0.000 OA
BRANCH  16  17
ATOM     17  C   UNL     1      -0.865   0.930   1.205  0.00  0.00    +0.000 A 
ATOM     18  C   UNL     1      -0.575   2.154   0.570  0.00  0.00    +0.000 A 
ATOM     19  C   UNL     1      -1.000   3.362   1.127  0.00  0.00    +0.000 A 
ATOM     20  C   UNL     1      -1.716   3.373   2.323  0.00  0.00    +0.000 A 
ATOM     21  C   UNL     1      -2.015   2.170   2.976  0.00  0.00    +0.000 A 
ATOM     22  C   UNL     1      -2.734   2.178   4.182  0.00  0.00    +0.000 A 
ATOM     23  C   UNL     1      -3.028   0.978   4.833  0.00  0.00    +0.000 A 
ATOM     24  C   UNL     1      -2.610  -0.237   4.287  0.00  0.00    +0.000 A 
ATOM     25  C   UNL     1      -1.895  -0.262   3.088  0.00  0.00    +0.000 A 
ATOM     26  C   UNL     1      -1.588   0.937   2.417  0.00  0.00    +0.000 A 
ENDBRANCH  16  17
ENDBRANCH   2  16
BRANCH   4  27
ATOM     27  C   UNL     1      -0.595   0.533  -3.948  0.00  0.00    +0.000 C 
BRANCH  27  28
ATOM     28  O   UNL     1       0.172   0.747  -5.101  0.00  0.00    +0.000 OA
ATOM     29  H   UNL     1      -0.446   1.131  -5.776  0.00  0.00    +0.000 HD
ENDBRANCH  27  28
ENDBRANCH   4  27
TORSDOF 7
