REMARK  Name = 118328
REMARK  9 active torsions:
REMARK  status: ('A' for Active; 'I' for Inactive)
REMARK    1  A    between atoms: C_1  and  C_2
REMARK    2  A    between atoms: N_4  and  C_5
REMARK    3  A    between atoms: C_6  and  O_7
REMARK    4  A    between atoms: O_7  and  C_8
REMARK    5  A    between atoms: C_12  and  C_13
REMARK    6  A    between atoms: C_21  and  C_22
REMARK    7  A    between atoms: C_22  and  O_23
REMARK    8  A    between atoms: C_24  and  O_25
REMARK    9  A    between atoms: C_26  and  O_27
REMARK                            x       y       z     vdW  Elec       q    Type
REMARK                         _______ _______ _______ _____ _____    ______ ____
ROOT
ATOM      1  C   UNL     1      -0.844  -1.104  -0.965  0.00  0.00    +0.000 C 
ATOM      2  C   UNL     1      -1.304   0.327  -1.317  0.00  0.00    +0.000 C 
ATOM      3  O   UNL     1      -2.215   0.287  -2.399  0.00  0.00    +0.000 OA
ATOM      4  C   UNL     1      -3.424  -0.351  -2.020  0.00  0.00    +0.000 C 
ATOM      5  C   UNL     1      -3.168  -1.846  -1.705  0.00  0.00    +0.000 C 
ATOM      6  C   UNL     1      -2.067  -1.978  -0.632  0.00  0.00    +0.000 C 
ENDROOT
BRANCH   1  10
ATOM      7  C   UNL     1       2.079  -2.298  -3.261  0.00  0.00    +0.000 C 
ATOM      8  C   UNL     1       1.350  -1.836  -2.042  0.00  0.00    +0.000 C 
ATOM      9  O   UNL     1       2.002  -1.550  -1.002  0.00  0.00    +0.000 OA
ATOM     10  N   UNL     1      -0.076  -1.676  -2.079  0.00  0.00    +0.000 N 
ATOM     11  H   UNL     1      -0.565  -1.863  -2.983  0.00  0.00    +0.000 HD
ENDBRANCH   1  10
BRANCH   5  12
ATOM     12  O   UNL     1      -4.351  -2.438  -1.231  0.00  0.00    +0.000 OA
ATOM     13  H   UNL     1      -4.293  -3.408  -1.436  0.00  0.00    +0.000 HD
ENDBRANCH   5  12
BRANCH   6  14
ATOM     14  O   UNL     1      -1.665  -3.319  -0.506  0.00  0.00    +0.000 OA
ATOM     15  H   UNL     1      -2.330  -3.768   0.079  0.00  0.00    +0.000 HD
ENDBRANCH   6  14
BRANCH   2  16
ATOM     16  O   UNL     1      -0.182   1.118  -1.714  0.00  0.00    +0.000 OA
BRANCH  16  17
ATOM     17  C   UNL     1       0.840   1.583  -0.870  0.00  0.00    +0.000 A 
ATOM     18  C   UNL     1       1.969   2.157  -1.463  0.00  0.00    +0.000 A 
ATOM     19  C   UNL     1       3.026   2.630  -0.682  0.00  0.00    +0.000 A 
ATOM     20  C   UNL     1       2.969   2.540   0.721  0.00  0.00    +0.000 A 
ATOM     21  C   UNL     1       4.009   2.999   1.561  0.00  0.00    +0.000 A 
ATOM     22  C   UNL     1       5.266   3.620   1.010  0.00  0.00    +0.000 C 
ATOM     23  C   UNL     1       3.859   2.870   2.949  0.00  0.00    +0.000 A 
ATOM     24  C   UNL     1       2.695   2.294   3.463  0.00  0.00    +0.000 A 
ATOM     25  O   UNL     1       2.552   2.173   4.707  0.00  0.00    +0.000 OA
ATOM     26  O   UNL     1       1.736   1.871   2.648  0.00  0.00    +0.000 OA
ATOM     27  C   UNL     1       1.823   1.968   1.325  0.00  0.00    +0.000 A 
ATOM     28  C   UNL     1       0.770   1.498   0.533  0.00  0.00    +0.000 A 
ENDBRANCH  16  17
ENDBRANCH   2  16
BRANCH   4  29
ATOM     29  C   UNL     1      -4.424  -0.182  -3.174  0.00  0.00    +0.000 C 
BRANCH  29  30
ATOM     30  O   UNL     1      -5.714  -0.572  -2.781  0.00  0.00    +0.000 OA
ATOM     31  H   UNL     1      -5.887  -1.461  -3.188  0.00  0.00    +0.000 HD
ENDBRANCH  29  30
ENDBRANCH   4  29
TORSDOF 7
