REMARK  Name = 57339292
REMARK  10 active torsions:
REMARK  status: ('A' for Active; 'I' for Inactive)
REMARK    1  A    between atoms: N_1  and  C_2
REMARK    2  A    between atoms: C_3  and  O_4
REMARK    3  A    between atoms: O_4  and  C_5
REMARK    4  A    between atoms: C_5  and  C_6
REMARK    5  A    between atoms: C_5  and  C_10
REMARK    6  A    between atoms: C_6  and  C_7
REMARK    7  A    between atoms: C_14  and  C_15
REMARK    8  A    between atoms: C_15  and  O_16
REMARK    9  A    between atoms: C_17  and  O_18
REMARK   10  A    between atoms: C_19  and  O_20
REMARK                            x       y       z     vdW  Elec       q    Type
REMARK                         _______ _______ _______ _____ _____    ______ ____
ROOT
ATOM      1  C   UNL     1       2.360   0.841   0.457  0.00  0.00    +0.000 C 
ATOM      2  C   UNL     1       0.883   0.369   0.481  0.00  0.00    +0.000 C 
ATOM      3  O   UNL     1       0.317   0.635   1.754  0.00  0.00    +0.000 OA
ATOM      4  C   UNL     1       0.090   2.028   1.956  0.00  0.00    +0.000 C 
ATOM      5  C   UNL     1       1.199   2.940   1.344  0.00  0.00    +0.000 C 
ATOM      6  C   UNL     1       2.522   2.156   1.271  0.00  0.00    +0.000 C 
ENDROOT
BRANCH   1   7
ATOM      7  N   UNL     1       3.252  -0.189   1.002  0.00  0.00    +0.000 NA
ATOM      8  H   UNL     1       4.225   0.196   1.026  0.00  0.00    +0.000 HD
ATOM      9  H   UNL     1       3.291  -0.988   0.327  0.00  0.00    +0.000 HD
ENDBRANCH   1   7
BRANCH   5  10
ATOM     10  O   UNL     1       1.383   4.084   2.139  0.00  0.00    +0.000 OA
ATOM     11  H   UNL     1       0.726   4.761   1.831  0.00  0.00    +0.000 HD
ENDBRANCH   5  10
BRANCH   6  12
ATOM     12  O   UNL     1       3.554   2.951   0.740  0.00  0.00    +0.000 OA
ATOM     13  H   UNL     1       3.275   3.239  -0.168  0.00  0.00    +0.000 HD
ENDBRANCH   6  12
BRANCH   2  14
ATOM     14  O   UNL     1       0.808  -1.017   0.200  0.00  0.00    +0.000 OA
BRANCH  14  15
ATOM     15  C   UNL     1      -0.539  -1.455   0.091  0.00  0.00    +0.000 C 
BRANCH  15  16
ATOM     16  C   UNL     1      -0.912  -2.203   1.338  0.00  0.00    +0.000 C 
ATOM     17  O   UNL     1      -2.041  -2.027   1.868  0.00  0.00    +0.000 OA
ATOM     18  O   UNL     1      -0.029  -3.120   1.894  0.00  0.00    +0.000 OA
ENDBRANCH  15  16
BRANCH  15  19
ATOM     19  C   UNL     1      -0.667  -2.385  -1.121  0.00  0.00    +0.000 C 
BRANCH  19  20
ATOM     20  C   UNL     1      -0.377  -1.647  -2.391  0.00  0.00    +0.000 C 
ATOM     21  O   UNL     1      -1.296  -1.023  -2.984  0.00  0.00    +0.000 OA
ATOM     22  O   UNL     1       0.918  -1.605  -2.891  0.00  0.00    +0.000 OA
ENDBRANCH  19  20
ENDBRANCH  15  19
ENDBRANCH  14  15
ENDBRANCH   2  14
BRANCH   4  23
ATOM     23  C   UNL     1      -1.319   2.405   1.472  0.00  0.00    +0.000 C 
BRANCH  23  24
ATOM     24  O   UNL     1      -1.666   3.680   1.938  0.00  0.00    +0.000 OA
ATOM     25  H   UNL     1      -2.578   3.862   1.590  0.00  0.00    +0.000 HD
ENDBRANCH  23  24
ENDBRANCH   4  23
TORSDOF 10
