REMARK  Name = 35717
REMARK  7 active torsions:
REMARK  status: ('A' for Active; 'I' for Inactive)
REMARK    1  A    between atoms: C_1  and  C_2
REMARK    2  A    between atoms: N_4  and  C_5
REMARK    3  A    between atoms: C_6  and  O_7
REMARK    4  A    between atoms: C_9  and  C_10
REMARK    5  A    between atoms: C_10  and  O_11
REMARK    6  A    between atoms: C_12  and  O_13
REMARK    7  A    between atoms: C_14  and  O_15
REMARK                            x       y       z     vdW  Elec       q    Type
REMARK                         _______ _______ _______ _____ _____    ______ ____
ROOT
ATOM      1  C   UNL     1       0.661  -0.566   0.241  0.00  0.00    +0.000 C 
ATOM      2  C   UNL     1      -0.317  -0.332   1.416  0.00  0.00    +0.000 C 
ATOM      3  O   UNL     1      -1.627  -0.734   1.057  0.00  0.00    +0.000 OA
ATOM      4  C   UNL     1      -2.127   0.077   0.006  0.00  0.00    +0.000 C 
ATOM      5  C   UNL     1      -1.310  -0.156  -1.286  0.00  0.00    +0.000 C 
ATOM      6  C   UNL     1       0.167   0.179  -1.012  0.00  0.00    +0.000 C 
ENDROOT
BRANCH   1  10
ATOM      7  C   UNL     1       4.534  -0.218   0.561  0.00  0.00    +0.000 C 
ATOM      8  C   UNL     1       3.198  -0.803   0.239  0.00  0.00    +0.000 C 
ATOM      9  O   UNL     1       3.132  -1.902  -0.375  0.00  0.00    +0.000 OA
ATOM     10  N   UNL     1       2.003  -0.095   0.599  0.00  0.00    +0.000 N 
ATOM     11  H   UNL     1       2.101   0.856   1.023  0.00  0.00    +0.000 HD
ENDBRANCH   1  10
BRANCH   2  12
ATOM     12  O   UNL     1       0.086  -1.101   2.519  0.00  0.00    +0.000 OA
ATOM     13  H   UNL     1       0.818  -0.605   2.971  0.00  0.00    +0.000 HD
ENDBRANCH   2  12
BRANCH   5  14
ATOM     14  O   UNL     1      -1.417  -1.496  -1.701  0.00  0.00    +0.000 OA
ATOM     15  H   UNL     1      -2.171  -1.543  -2.345  0.00  0.00    +0.000 HD
ENDBRANCH   5  14
BRANCH   6  16
ATOM     16  O   UNL     1       0.960  -0.178  -2.115  0.00  0.00    +0.000 OA
ATOM     17  H   UNL     1       0.784   0.496  -2.823  0.00  0.00    +0.000 HD
ENDBRANCH   6  16
BRANCH   4  18
ATOM     18  C   UNL     1      -3.611  -0.240  -0.208  0.00  0.00    +0.000 C 
BRANCH  18  19
ATOM     19  O   UNL     1      -4.335   0.102   0.941  0.00  0.00    +0.000 OA
ATOM     20  H   UNL     1      -5.282  -0.121   0.747  0.00  0.00    +0.000 HD
ENDBRANCH  18  19
ENDBRANCH   4  18
TORSDOF 6
