REMARK  Name = 408523
REMARK  14 active torsions:
REMARK  status: ('A' for Active; 'I' for Inactive)
REMARK    1  A    between atoms: C_1  and  C_2
REMARK    2  A    between atoms: C_2  and  O_4
REMARK    3  A    between atoms: O_4  and  C_5
REMARK    4  A    between atoms: C_5  and  C_6
REMARK    5  A    between atoms: C_8  and  O_9
REMARK    6  A    between atoms: O_9  and  C_10
REMARK    7  A    between atoms: C_10  and  C_11
REMARK    8  A    between atoms: C_13  and  N_14
REMARK    9  A    between atoms: C_15  and  O_16
REMARK   10  A    between atoms: O_16  and  C_17
REMARK   11  A    between atoms: C_17  and  C_18
REMARK   12  A    between atoms: C_20  and  O_21
REMARK   13  A    between atoms: O_21  and  C_22
REMARK   14  A    between atoms: C_22  and  C_23
REMARK                            x       y       z     vdW  Elec       q    Type
REMARK                         _______ _______ _______ _____ _____    ______ ____
ROOT
ATOM      1  C   UNL     1      -0.528  -1.032   0.545  0.00  0.00    +0.000 C 
ATOM      2  O   UNL     1      -1.609  -0.326   1.133  0.00  0.00    +0.000 OA
ATOM      3  C   UNL     1      -2.483   0.169   0.134  0.00  0.00    +0.000 C 
ATOM      4  C   UNL     1      -1.776   1.260  -0.692  0.00  0.00    +0.000 C 
ATOM      5  C   UNL     1      -0.536   0.630  -1.365  0.00  0.00    +0.000 C 
ATOM      6  C   UNL     1       0.343  -0.082  -0.317  0.00  0.00    +0.000 C 
ENDROOT
BRANCH   4   7
ATOM      7  N   UNL     1      -1.385   2.384   0.168  0.00  0.00    +0.000 NA
ATOM      8  H   UNL     1      -0.967   3.133  -0.429  0.00  0.00    +0.000 HD
ATOM      9  H   UNL     1      -2.248   2.809   0.577  0.00  0.00    +0.000 HD
ENDBRANCH   4   7
BRANCH   1  10
ATOM     10  C   UNL     1       0.292  -1.663   1.684  0.00  0.00    +0.000 C 
BRANCH  10  11
ATOM     11  O   UNL     1       1.373  -2.451   1.187  0.00  0.00    +0.000 OA
BRANCH  11  13
ATOM     12  C   UNL     1       2.380  -4.385  -0.026  0.00  0.00    +0.000 C 
ATOM     13  C   UNL     1       1.206  -3.707   0.594  0.00  0.00    +0.000 C 
ATOM     14  O   UNL     1       0.071  -4.254   0.545  0.00  0.00    +0.000 OA
ENDBRANCH  11  13
ENDBRANCH  10  11
ENDBRANCH   1  10
BRANCH   3  15
ATOM     15  O   UNL     1      -3.645   0.717   0.754  0.00  0.00    +0.000 OA
BRANCH  15  16
ATOM     16  C   UNL     1      -4.548  -0.053   1.493  0.00  0.00    +0.000 C 
ATOM     17  C   UNL     1      -5.742   0.600   2.101  0.00  0.00    +0.000 C 
ATOM     18  O   UNL     1      -4.388  -1.298   1.611  0.00  0.00    +0.000 OA
ENDBRANCH  15  16
ENDBRANCH   3  15
BRANCH   5  19
ATOM     19  O   UNL     1       0.235   1.620  -2.047  0.00  0.00    +0.000 OA
BRANCH  19  20
ATOM     20  C   UNL     1      -0.143   2.191  -3.267  0.00  0.00    +0.000 C 
ATOM     21  C   UNL     1       0.704   3.258  -3.870  0.00  0.00    +0.000 C 
ATOM     22  O   UNL     1      -1.206   1.836  -3.846  0.00  0.00    +0.000 OA
ENDBRANCH  19  20
ENDBRANCH   5  19
BRANCH   6  23
ATOM     23  O   UNL     1       1.354  -0.842  -0.984  0.00  0.00    +0.000 OA
BRANCH  23  24
ATOM     24  C   UNL     1       2.577  -0.312  -1.410  0.00  0.00    +0.000 C 
ATOM     25  C   UNL     1       3.550  -1.198  -2.109  0.00  0.00    +0.000 C 
ATOM     26  O   UNL     1       2.888   0.884  -1.159  0.00  0.00    +0.000 OA
ENDBRANCH  23  24
ENDBRANCH   6  23
TORSDOF 10
