REMARK  Name = ZINC000101361998
REMARK  11 active torsions:
REMARK  status: ('A' for Active; 'I' for Inactive)
REMARK    1  A    between atoms: C_2  and  O_22
REMARK    2  A    between atoms: N_3  and  C_4
REMARK    3  A    between atoms: C_5  and  O_6
REMARK    4  A    between atoms: C_7  and  O_8
REMARK    5  A    between atoms: C_9  and  C_10
REMARK    6  A    between atoms: C_10  and  O_11
REMARK    7  A    between atoms: C_13  and  O_14
REMARK    8  A    between atoms: O_14  and  C_15
REMARK    9  A    between atoms: C_15  and  C_16
REMARK   10  A    between atoms: O_22  and  C_23
REMARK   11  A    between atoms: C_23  and  C_24
REMARK                            x       y       z     vdW  Elec       q    Type
REMARK                         _______ _______ _______ _____ _____    ______ ____
ROOT
ATOM      1  C   UNL     1       0.878  -1.151  -2.440  0.00  0.00    +0.000 C 
ATOM      2  C   UNL     1       1.296  -1.439  -3.897  0.00  0.00    +0.000 C 
ATOM      3  C   UNL     1       0.379  -2.531  -4.482  0.00  0.00    +0.000 C 
ATOM      4  C   UNL     1      -1.113  -2.168  -4.250  0.00  0.00    +0.000 C 
ATOM      5  O   UNL     1      -1.358  -1.983  -2.864  0.00  0.00    +0.000 OA
ATOM      6  C   UNL     1      -0.635  -0.868  -2.369  0.00  0.00    +0.000 C 
ENDROOT
BRANCH   1   9
ATOM      7  O   UNL     1       2.116  -1.052   0.150  0.00  0.00    +0.000 OA
ATOM      8  C   UNL     1       2.176  -0.015  -0.567  0.00  0.00    +0.000 C 
ATOM      9  N   UNL     1       1.632  -0.017  -1.892  0.00  0.00    +0.000 N 
ATOM     10  H   UNL     1       1.629   0.891  -2.409  0.00  0.00    +0.000 HD
BRANCH   8  11
ATOM     11  O   UNL     1       2.783   1.149  -0.080  0.00  0.00    +0.000 OA
BRANCH  11  12
ATOM     12  C   UNL     1       3.286   1.274   1.249  0.00  0.00    +0.000 C 
BRANCH  12  13
ATOM     13  C   UNL     1       2.154   1.494   2.216  0.00  0.00    +0.000 A 
ATOM     14  C   UNL     1       1.582   2.770   2.346  0.00  0.00    +0.000 A 
ATOM     15  C   UNL     1       0.506   2.974   3.217  0.00  0.00    +0.000 A 
ATOM     16  C   UNL     1      -0.011   1.905   3.954  0.00  0.00    +0.000 A 
ATOM     17  C   UNL     1       0.549   0.631   3.824  0.00  0.00    +0.000 A 
ATOM     18  C   UNL     1       1.627   0.423   2.958  0.00  0.00    +0.000 A 
ENDBRANCH  12  13
ENDBRANCH  11  12
ENDBRANCH   8  11
ENDBRANCH   1   9
BRANCH   2  19
ATOM     19  O   UNL     1       1.202  -0.272  -4.678  0.00  0.00    +0.000 OA
ATOM     20  H   UNL     1       2.098   0.155  -4.677  0.00  0.00    +0.000 HD
ENDBRANCH   2  19
BRANCH   3  21
ATOM     21  O   UNL     1       0.664  -2.746  -5.843  0.00  0.00    +0.000 OA
ATOM     22  H   UNL     1       0.347  -1.954  -6.351  0.00  0.00    +0.000 HD
ENDBRANCH   3  21
BRANCH   4  23
ATOM     23  C   UNL     1      -2.031  -3.285  -4.763  0.00  0.00    +0.000 C 
BRANCH  23  24
ATOM     24  O   UNL     1      -3.377  -2.926  -4.595  0.00  0.00    +0.000 OA
ATOM     25  H   UNL     1      -3.617  -3.144  -3.657  0.00  0.00    +0.000 HD
ENDBRANCH  23  24
ENDBRANCH   4  23
BRANCH   6  26
ATOM     26  O   UNL     1      -0.984  -0.662  -1.011  0.00  0.00    +0.000 OA
BRANCH  26  27
ATOM     27  C   UNL     1      -2.210   0.036  -0.905  0.00  0.00    +0.000 C 
BRANCH  27  28
ATOM     28  C   UNL     1      -1.984   1.521  -1.026  0.00  0.00    +0.000 A 
ATOM     29  C   UNL     1      -1.200   2.192  -0.074  0.00  0.00    +0.000 A 
ATOM     30  C   UNL     1      -0.967   3.566  -0.198  0.00  0.00    +0.000 A 
ATOM     31  C   UNL     1      -1.510   4.275  -1.273  0.00  0.00    +0.000 A 
ATOM     32  C   UNL     1      -2.288   3.612  -2.227  0.00  0.00    +0.000 A 
ATOM     33  C   UNL     1      -2.524   2.239  -2.107  0.00  0.00    +0.000 A 
ENDBRANCH  27  28
ENDBRANCH  26  27
ENDBRANCH   6  26
TORSDOF 11
