REMARK  Name = ZINC000257346903
REMARK  12 active torsions:
REMARK  status: ('A' for Active; 'I' for Inactive)
REMARK    1  A    between atoms: O_2  and  C_3
REMARK    2  A    between atoms: C_3  and  C_39
REMARK    3  A    between atoms: N_4  and  C_5
REMARK    4  A    between atoms: C_7  and  O_9
REMARK    5  A    between atoms: O_9  and  S_10
REMARK    6  A    between atoms: S_10  and  C_13
REMARK    7  A    between atoms: C_17  and  O_19
REMARK    8  A    between atoms: C_21  and  C_23
REMARK    9  A    between atoms: C_23  and  O_26
REMARK   10  A    between atoms: C_29  and  O_31
REMARK   11  A    between atoms: O_31  and  C_32
REMARK   12  A    between atoms: C_32  and  C_35
REMARK                            x       y       z     vdW  Elec       q    Type
REMARK                         _______ _______ _______ _____ _____    ______ ____
ROOT
ATOM      1  C   UNL     1      -0.451   0.050  -1.218  0.00  0.00    +0.000 C 
ATOM      2  C   UNL     1      -1.253   1.302  -0.801  0.00  0.00    +0.000 C 
ATOM      3  C   UNL     1      -2.709   1.136  -1.289  0.00  0.00    +0.000 C 
ATOM      4  C   UNL     1      -3.268  -0.244  -0.853  0.00  0.00    +0.000 C 
ATOM      5  O   UNL     1      -2.455  -1.294  -1.356  0.00  0.00    +0.000 OA
ATOM      6  C   UNL     1      -1.162  -1.248  -0.777  0.00  0.00    +0.000 C 
ENDROOT
BRANCH   1   8
ATOM      7  C   UNL     1       1.455  -0.036   0.399  0.00  0.00    +0.000 C 
ATOM      8  N   UNL     1       0.957   0.110  -0.796  0.00  0.00    +0.000 NA
BRANCH   7   9
ATOM      9  C   UNL     1       2.925   0.053   0.581  0.00  0.00    +0.000 A 
ATOM     10  C   UNL     1       3.479   0.450   1.813  0.00  0.00    +0.000 A 
ATOM     11  C   UNL     1       4.866   0.537   1.971  0.00  0.00    +0.000 A 
ATOM     12  C   UNL     1       5.714   0.234   0.904  0.00  0.00    +0.000 A 
ATOM     13  C   UNL     1       5.178  -0.152  -0.326  0.00  0.00    +0.000 A 
ATOM     14  C   UNL     1       3.792  -0.240  -0.490  0.00  0.00    +0.000 A 
ENDBRANCH   7   9
BRANCH   7  16
ATOM     15  H   UNL     1       0.977  -0.502   2.411  0.00  0.00    +0.000 HD
ATOM     16  O   UNL     1       0.621  -0.280   1.491  0.00  0.00    +0.000 OA
ENDBRANCH   7  16
ENDBRANCH   1   8
BRANCH   3  17
ATOM     17  O   UNL     1      -3.501   2.172  -0.764  0.00  0.00    +0.000 OA
ATOM     18  H   UNL     1      -4.180   2.401  -1.452  0.00  0.00    +0.000 HD
ENDBRANCH   3  17
BRANCH   2  19
ATOM     19  O   UNL     1      -1.239   1.448   0.608  0.00  0.00    +0.000 OA
BRANCH  19  20
ATOM     20  S   UNL     1      -0.827   3.037   1.049  0.00  0.00    +0.000 S 
ATOM     21  O   UNL     1      -1.623   4.037   0.256  0.00  0.00    +0.000 OA
ATOM     22  O   UNL     1      -1.137   3.224   2.507  0.00  0.00    +0.000 OA
ATOM     23  C   UNL     1       0.912   3.330   0.800  0.00  0.00    +0.000 C 
ENDBRANCH  19  20
ENDBRANCH   2  19
BRANCH   4  24
ATOM     24  C   UNL     1      -4.706  -0.460  -1.353  0.00  0.00    +0.000 C 
BRANCH  24  25
ATOM     25  O   UNL     1      -4.779  -0.369  -2.751  0.00  0.00    +0.000 OA
ATOM     26  H   UNL     1      -4.448  -1.232  -3.112  0.00  0.00    +0.000 HD
ENDBRANCH  24  25
ENDBRANCH   4  24
BRANCH   6  27
ATOM     27  O   UNL     1      -0.407  -2.348  -1.249  0.00  0.00    +0.000 OA
BRANCH  27  28
ATOM     28  C   UNL     1      -0.767  -3.542  -0.578  0.00  0.00    +0.000 C 
ATOM     29  C   UNL     1       0.195  -3.808   0.575  0.00  0.00    +0.000 C 
ENDBRANCH  27  28
ENDBRANCH   6  27
TORSDOF 10
