REMARK  Name = ZINC000164373873
REMARK  7 active torsions:
REMARK  status: ('A' for Active; 'I' for Inactive)
REMARK    1  A    between atoms: C_1  and  O_2
REMARK    2  A    between atoms: O_2  and  C_3
REMARK    3  A    between atoms: C_5  and  C_6
REMARK    4  A    between atoms: C_6  and  O_7
REMARK    5  A    between atoms: C_8  and  O_9
REMARK    6  A    between atoms: C_10  and  O_11
REMARK    7  A    between atoms: C_12  and  N_13
REMARK                            x       y       z     vdW  Elec       q    Type
REMARK                         _______ _______ _______ _____ _____    ______ ____
ROOT
ATOM      1  C   UNL     1      -1.371   0.066  -0.140  0.00  0.00    +0.000 C 
ATOM      2  O   UNL     1      -0.754   0.567   1.043  0.00  0.00    +0.000 OA
ATOM      3  C   UNL     1       0.654   0.766   0.939  0.00  0.00    +0.000 C 
ATOM      4  C   UNL     1       1.418  -0.504   0.484  0.00  0.00    +0.000 C 
ATOM      5  C   UNL     1       0.785  -1.109  -0.779  0.00  0.00    +0.000 C 
ATOM      6  C   UNL     1      -0.736  -1.257  -0.624  0.00  0.00    +0.000 C 
ENDROOT
BRANCH   6   7
ATOM      7  N   UNL     1      -1.072  -2.373   0.270  0.00  0.00    +0.000 NA
ATOM      8  H   UNL     1      -1.003  -2.069   1.268  0.00  0.00    +0.000 HD
ATOM      9  H   UNL     1      -2.071  -2.637   0.107  0.00  0.00    +0.000 HD
ENDBRANCH   6   7
BRANCH   1  11
ATOM     10  C   UNL     1      -2.327   2.015  -0.961  0.00  0.00    +0.000 C 
ATOM     11  O   UNL     1      -1.348   1.023  -1.185  0.00  0.00    +0.000 OA
ENDBRANCH   1  11
BRANCH   4  12
ATOM     12  O   UNL     1       1.424  -1.456   1.518  0.00  0.00    +0.000 OA
ATOM     13  H   UNL     1       2.103  -1.162   2.180  0.00  0.00    +0.000 HD
ENDBRANCH   4  12
BRANCH   5  14
ATOM     14  O   UNL     1       1.358  -2.359  -1.069  0.00  0.00    +0.000 OA
ATOM     15  H   UNL     1       2.276  -2.183  -1.404  0.00  0.00    +0.000 HD
ENDBRANCH   5  14
BRANCH   3  16
ATOM     16  C   UNL     1       1.016   2.029   0.127  0.00  0.00    +0.000 C 
BRANCH  16  17
ATOM     17  O   UNL     1       2.295   2.489   0.478  0.00  0.00    +0.000 OA
ATOM     18  H   UNL     1       2.940   2.060  -0.142  0.00  0.00    +0.000 HD
ENDBRANCH  16  17
ENDBRANCH   3  16
TORSDOF 6
