REMARK  Name = ZINC000102863660
REMARK  11 active torsions:
REMARK  status: ('A' for Active; 'I' for Inactive)
REMARK    1  A    between atoms: C_1  and  C_2
REMARK    2  A    between atoms: N_4  and  C_5
REMARK    3  A    between atoms: C_6  and  O_7
REMARK    4  A    between atoms: O_7  and  C_8
REMARK    5  A    between atoms: C_8  and  C_9
REMARK    6  A    between atoms: C_8  and  C_10
REMARK    7  A    between atoms: C_8  and  C_11
REMARK    8  A    between atoms: C_13  and  C_14
REMARK    9  A    between atoms: C_14  and  O_15
REMARK   10  A    between atoms: C_16  and  O_17
REMARK   11  A    between atoms: C_18  and  O_19
REMARK                            x       y       z     vdW  Elec       q    Type
REMARK                         _______ _______ _______ _____ _____    ______ ____
ROOT
ATOM      1  C   UNL     1       1.226  -0.177  -0.703  0.00  0.00    +0.000 C 
ATOM      2  C   UNL     1      -0.216   0.082  -0.211  0.00  0.00    +0.000 C 
ATOM      3  O   UNL     1      -0.646   1.350  -0.670  0.00  0.00    +0.000 OA
ATOM      4  C   UNL     1      -0.021   2.389   0.071  0.00  0.00    +0.000 C 
ATOM      5  C   UNL     1       1.534   2.218   0.150  0.00  0.00    +0.000 C 
ATOM      6  C   UNL     1       2.012   1.152  -0.857  0.00  0.00    +0.000 C 
ENDROOT
BRANCH   1  10
ATOM      7  C   UNL     1       2.366  -3.415   1.139  0.00  0.00    +0.000 C 
ATOM      8  C   UNL     1       1.826  -2.526   0.068  0.00  0.00    +0.000 C 
ATOM      9  O   UNL     1       1.274  -3.036  -0.945  0.00  0.00    +0.000 OA
ATOM     10  N   UNL     1       1.901  -1.101   0.216  0.00  0.00    +0.000 N 
ATOM     11  H   UNL     1       2.305  -0.723   1.103  0.00  0.00    +0.000 HD
ENDBRANCH   1  10
BRANCH   5  12
ATOM     12  O   UNL     1       1.911   1.838   1.449  0.00  0.00    +0.000 OA
ATOM     13  H   UNL     1       1.833   2.648   2.017  0.00  0.00    +0.000 HD
ENDBRANCH   5  12
BRANCH   6  14
ATOM     14  O   UNL     1       3.394   0.928  -0.729  0.00  0.00    +0.000 OA
ATOM     15  H   UNL     1       3.851   1.728  -1.098  0.00  0.00    +0.000 HD
ENDBRANCH   6  14
BRANCH   2  16
ATOM     16  O   UNL     1      -1.064  -0.916  -0.760  0.00  0.00    +0.000 OA
BRANCH  16  17
ATOM     17  C   UNL     1      -2.167  -1.295   0.065  0.00  0.00    +0.000 C 
ATOM     18  C   UNL     1      -3.090  -2.146  -0.823  0.00  0.00    +0.000 C 
ATOM     19  C   UNL     1      -1.699  -2.177   1.245  0.00  0.00    +0.000 C 
ATOM     20  C   UNL     1      -2.988  -0.086   0.578  0.00  0.00    +0.000 C 
ENDBRANCH  16  17
ENDBRANCH   2  16
BRANCH   4  21
ATOM     21  C   UNL     1      -0.403   3.727  -0.577  0.00  0.00    +0.000 C 
BRANCH  21  22
ATOM     22  O   UNL     1      -0.043   4.797   0.257  0.00  0.00    +0.000 OA
ATOM     23  H   UNL     1       0.779   5.204  -0.123  0.00  0.00    +0.000 HD
ENDBRANCH  21  22
ENDBRANCH   4  21
TORSDOF 7
