REMARK  Name = 54758613
REMARK  8 active torsions:
REMARK  status: ('A' for Active; 'I' for Inactive)
REMARK    1  A    between atoms: C_1  and  C_2
REMARK    2  A    between atoms: N_4  and  C_5
REMARK    3  A    between atoms: C_6  and  O_7
REMARK    4  A    between atoms: C_9  and  C_10
REMARK    5  A    between atoms: C_10  and  O_11
REMARK    6  A    between atoms: O_11  and  S_12
REMARK    7  A    between atoms: C_16  and  O_17
REMARK    8  A    between atoms: C_18  and  O_19
REMARK                            x       y       z     vdW  Elec       q    Type
REMARK                         _______ _______ _______ _____ _____    ______ ____
ROOT
ATOM      1  C   UNL     1      -0.945  -0.752   0.701  0.00  0.00    +0.000 C 
ATOM      2  C   UNL     1      -1.657   0.616   0.950  0.00  0.00    +0.000 C 
ATOM      3  O   UNL     1      -1.569   1.497  -0.164  0.00  0.00    +0.000 OA
ATOM      4  C   UNL     1      -0.233   1.586  -0.620  0.00  0.00    +0.000 C 
ATOM      5  C   UNL     1       0.158   0.278  -1.365  0.00  0.00    +0.000 C 
ATOM      6  C   UNL     1      -0.627  -0.936  -0.802  0.00  0.00    +0.000 C 
ENDROOT
BRANCH   1  10
ATOM      7  C   UNL     1       1.522  -1.143   3.696  0.00  0.00    +0.000 C 
ATOM      8  C   UNL     1       0.246  -1.036   2.928  0.00  0.00    +0.000 C 
ATOM      9  O   UNL     1      -0.856  -1.112   3.536  0.00  0.00    +0.000 OA
ATOM     10  N   UNL     1       0.280  -0.851   1.506  0.00  0.00    +0.000 N 
ATOM     11  H   UNL     1       1.214  -0.845   1.038  0.00  0.00    +0.000 HD
ENDBRANCH   1  10
BRANCH   2  12
ATOM     12  O   UNL     1      -3.011   0.377   1.224  0.00  0.00    +0.000 OA
ATOM     13  H   UNL     1      -3.404   1.248   1.495  0.00  0.00    +0.000 HD
ENDBRANCH   2  12
BRANCH   5  14
ATOM     14  O   UNL     1      -0.067   0.394  -2.749  0.00  0.00    +0.000 OA
ATOM     15  H   UNL     1       0.433  -0.346  -3.183  0.00  0.00    +0.000 HD
ENDBRANCH   5  14
BRANCH   6  16
ATOM     16  O   UNL     1      -1.829  -1.095  -1.515  0.00  0.00    +0.000 OA
ATOM     17  H   UNL     1      -2.140  -2.025  -1.355  0.00  0.00    +0.000 HD
ENDBRANCH   6  16
BRANCH   4  18
ATOM     18  C   UNL     1      -0.083   2.845  -1.483  0.00  0.00    +0.000 C 
BRANCH  18  19
ATOM     19  O   UNL     1       1.248   2.956  -1.929  0.00  0.00    +0.000 OA
BRANCH  19  20
ATOM     20  S   UNL     1       1.357   4.299  -2.955  0.00  0.00    +0.000 S 
ATOM     21  O   UNL     1       2.798   4.520  -3.313  0.00  0.00    +0.000 OA
ATOM     22  O   UNL     1       0.572   4.051  -4.213  0.00  0.00    +0.000 OA
ATOM     23  O   UNL     1       0.772   5.675  -2.185  0.00  0.00    +0.000 OA
ENDBRANCH  19  20
ENDBRANCH  18  19
ENDBRANCH   4  18
TORSDOF 7
