REMARK  Name = ZINC000101178654
REMARK  11 active torsions:
REMARK  status: ('A' for Active; 'I' for Inactive)
REMARK    1  A    between atoms: O_2  and  C_3
REMARK    2  A    between atoms: C_3  and  C_36
REMARK    3  A    between atoms: N_4  and  C_5
REMARK    4  A    between atoms: C_7  and  O_9
REMARK    5  A    between atoms: C_11  and  O_13
REMARK    6  A    between atoms: C_15  and  C_17
REMARK    7  A    between atoms: C_17  and  O_20
REMARK    8  A    between atoms: C_23  and  O_25
REMARK    9  A    between atoms: O_25  and  C_26
REMARK   10  A    between atoms: C_26  and  C_28
REMARK   11  A    between atoms: C_26  and  C_32
REMARK                            x       y       z     vdW  Elec       q    Type
REMARK                         _______ _______ _______ _____ _____    ______ ____
ROOT
ATOM      1  C   UNL     1       0.204  -1.416  -0.400  0.00  0.00    +0.000 C 
ATOM      2  C   UNL     1       0.953  -2.638  -0.970  0.00  0.00    +0.000 C 
ATOM      3  C   UNL     1       0.746  -2.704  -2.495  0.00  0.00    +0.000 C 
ATOM      4  C   UNL     1       1.081  -1.337  -3.143  0.00  0.00    +0.000 C 
ATOM      5  O   UNL     1       0.281  -0.318  -2.567  0.00  0.00    +0.000 OA
ATOM      6  C   UNL     1       0.591  -0.147  -1.193  0.00  0.00    +0.000 C 
ENDROOT
BRANCH   1   8
ATOM      7  C   UNL     1      -0.223  -0.671   1.897  0.00  0.00    +0.000 C 
ATOM      8  N   UNL     1       0.534  -1.259   1.019  0.00  0.00    +0.000 NA
ATOM      9  C   UNL     1       0.239  -0.569   3.315  0.00  0.00    +0.000 C 
BRANCH   7  11
ATOM     10  H   UNL     1      -2.074   0.279   2.220  0.00  0.00    +0.000 HD
ATOM     11  O   UNL     1      -1.473  -0.169   1.538  0.00  0.00    +0.000 OA
ENDBRANCH   7  11
ENDBRANCH   1   8
BRANCH   2  12
ATOM     12  O   UNL     1       2.327  -2.550  -0.678  0.00  0.00    +0.000 OA
ATOM     13  H   UNL     1       2.459  -2.943   0.224  0.00  0.00    +0.000 HD
ENDBRANCH   2  12
BRANCH   3  14
ATOM     14  O   UNL     1       1.498  -3.753  -3.056  0.00  0.00    +0.000 OA
ATOM     15  H   UNL     1       2.457  -3.500  -3.011  0.00  0.00    +0.000 HD
ENDBRANCH   3  14
BRANCH   4  16
ATOM     16  C   UNL     1       0.811  -1.371  -4.654  0.00  0.00    +0.000 C 
BRANCH  16  17
ATOM     17  O   UNL     1       1.087  -0.122  -5.229  0.00  0.00    +0.000 OA
ATOM     18  H   UNL     1       2.075  -0.045  -5.281  0.00  0.00    +0.000 HD
ENDBRANCH  16  17
ENDBRANCH   4  16
BRANCH   6  19
ATOM     19  O   UNL     1      -0.161   0.944  -0.696  0.00  0.00    +0.000 OA
BRANCH  19  20
ATOM     20  C   UNL     1       0.433   2.184  -1.041  0.00  0.00    +0.000 C 
ATOM     21  C   UNL     1       1.281   2.687   0.131  0.00  0.00    +0.000 C 
ATOM     22  C   UNL     1      -0.680   3.183  -1.353  0.00  0.00    +0.000 C 
ENDBRANCH  19  20
ENDBRANCH   6  19
TORSDOF 8
