REMARK  Name = ZINC000196304985
REMARK  8 active torsions:
REMARK  status: ('A' for Active; 'I' for Inactive)
REMARK    1  A    between atoms: C_1  and  O_2
REMARK    2  A    between atoms: O_2  and  C_3
REMARK    3  A    between atoms: C_5  and  C_6
REMARK    4  A    between atoms: C_6  and  O_7
REMARK    5  A    between atoms: C_8  and  O_9
REMARK    6  A    between atoms: C_10  and  O_11
REMARK    7  A    between atoms: C_12  and  N_13
REMARK    8  A    between atoms: C_14  and  C_15
REMARK                            x       y       z     vdW  Elec       q    Type
REMARK                         _______ _______ _______ _____ _____    ______ ____
ROOT
ATOM      1  C   UNL     1      -0.009  -0.571  -0.745  0.00  0.00    +0.000 C 
ATOM      2  O   UNL     1      -1.389  -0.302  -0.959  0.00  0.00    +0.000 OA
ATOM      3  C   UNL     1      -2.031   0.149   0.225  0.00  0.00    +0.000 C 
ATOM      4  C   UNL     1      -1.430   1.495   0.690  0.00  0.00    +0.000 C 
ATOM      5  C   UNL     1       0.083   1.335   0.933  0.00  0.00    +0.000 C 
ATOM      6  C   UNL     1       0.739   0.712  -0.316  0.00  0.00    +0.000 C 
ENDROOT
BRANCH   6   7
ATOM      7  N   UNL     1       2.163   0.435  -0.085  0.00  0.00    +0.000 N 
ATOM      8  C   UNL     1       3.083   0.194  -1.159  0.00  0.00    +0.000 C 
ATOM      9  C   UNL     1       4.513  -0.120  -0.859  0.00  0.00    +0.000 C 
ATOM     10  O   UNL     1       2.705   0.283  -2.358  0.00  0.00    +0.000 OA
ATOM     11  H   UNL     1       2.547   0.458   0.887  0.00  0.00    +0.000 HD
ENDBRANCH   6   7
BRANCH   1  13
ATOM     12  C   UNL     1      -0.186  -2.847  -0.333  0.00  0.00    +0.000 C 
ATOM     13  O   UNL     1       0.182  -1.600   0.214  0.00  0.00    +0.000 OA
ENDBRANCH   1  13
BRANCH   4  14
ATOM     14  O   UNL     1      -2.066   1.925   1.867  0.00  0.00    +0.000 OA
ATOM     15  H   UNL     1      -1.835   2.884   1.982  0.00  0.00    +0.000 HD
ENDBRANCH   4  14
BRANCH   5  16
ATOM     16  O   UNL     1       0.311   0.522   2.059  0.00  0.00    +0.000 OA
ATOM     17  H   UNL     1       0.243   1.108   2.858  0.00  0.00    +0.000 HD
ENDBRANCH   5  16
BRANCH   3  18
ATOM     18  C   UNL     1      -3.531   0.297  -0.068  0.00  0.00    +0.000 C 
BRANCH  18  19
ATOM     19  O   UNL     1      -4.065  -0.921  -0.514  0.00  0.00    +0.000 OA
ATOM     20  H   UNL     1      -4.144  -1.506   0.284  0.00  0.00    +0.000 HD
ENDBRANCH  18  19
ENDBRANCH   3  18
TORSDOF 6
