REMARK  Name = ZINC000575124647
REMARK  10 active torsions:
REMARK  status: ('A' for Active; 'I' for Inactive)
REMARK    1  A    between atoms: C_1  and  C_2
REMARK    2  A    between atoms: C_2  and  C_3
REMARK    3  A    between atoms: C_3  and  O_4
REMARK    4  A    between atoms: O_4  and  C_5
REMARK    5  A    between atoms: C_7  and  C_8
REMARK    6  A    between atoms: C_8  and  O_9
REMARK    7  A    between atoms: C_10  and  O_11
REMARK    8  A    between atoms: C_12  and  O_13
REMARK    9  A    between atoms: C_14  and  N_15
REMARK   10  A    between atoms: C_16  and  C_17
REMARK                            x       y       z     vdW  Elec       q    Type
REMARK                         _______ _______ _______ _____ _____    ______ ____
ROOT
ATOM      1  C   UNL     1       0.194  -0.403   0.019  0.00  0.00    +0.000 C 
ATOM      2  O   UNL     1       0.341  -1.731  -0.463  0.00  0.00    +0.000 OA
ATOM      3  C   UNL     1      -0.926  -2.330  -0.681  0.00  0.00    +0.000 C 
ATOM      4  C   UNL     1      -1.677  -1.586  -1.815  0.00  0.00    +0.000 C 
ATOM      5  C   UNL     1      -1.823  -0.090  -1.475  0.00  0.00    +0.000 C 
ATOM      6  C   UNL     1      -0.446   0.482  -1.072  0.00  0.00    +0.000 C 
ENDROOT
BRANCH   6   7
ATOM      7  N   UNL     1      -0.578   1.868  -0.606  0.00  0.00    +0.000 N 
ATOM      8  C   UNL     1      -0.793   2.963  -1.507  0.00  0.00    +0.000 C 
ATOM      9  C   UNL     1      -0.939   4.349  -0.970  0.00  0.00    +0.000 C 
ATOM     10  O   UNL     1      -0.865   2.765  -2.750  0.00  0.00    +0.000 OA
ATOM     11  H   UNL     1      -0.484   2.079   0.414  0.00  0.00    +0.000 HD
ENDBRANCH   6   7
BRANCH   4  12
ATOM     12  O   UNL     1      -2.933  -2.162  -2.083  0.00  0.00    +0.000 OA
ATOM     13  H   UNL     1      -3.432  -2.218  -1.227  0.00  0.00    +0.000 HD
ENDBRANCH   4  12
BRANCH   5  14
ATOM     14  O   UNL     1      -2.745   0.074  -0.425  0.00  0.00    +0.000 OA
ATOM     15  H   UNL     1      -3.120   0.990  -0.508  0.00  0.00    +0.000 HD
ENDBRANCH   5  14
BRANCH   1  16
ATOM     16  O   UNL     1       1.474   0.121   0.318  0.00  0.00    +0.000 OA
BRANCH  16  17
ATOM     17  C   UNL     1       1.949  -0.408   1.539  0.00  0.00    +0.000 C 
BRANCH  17  19
ATOM     18  C   UNL     1       3.367   1.635   2.011  0.00  0.00    +0.000 C 
ATOM     19  C   UNL     1       3.357   0.120   1.812  0.00  0.00    +0.000 C 
ENDBRANCH  17  19
ENDBRANCH  16  17
ENDBRANCH   1  16
BRANCH   3  20
ATOM     20  C   UNL     1      -0.709  -3.804  -1.049  0.00  0.00    +0.000 C 
BRANCH  20  21
ATOM     21  O   UNL     1      -0.003  -4.464  -0.033  0.00  0.00    +0.000 OA
ATOM     22  H   UNL     1      -0.646  -4.613   0.710  0.00  0.00    +0.000 HD
ENDBRANCH  20  21
ENDBRANCH   3  20
TORSDOF 8
