REMARK  Name = ZINC000257346492
REMARK  6 active torsions:
REMARK  status: ('A' for Active; 'I' for Inactive)
REMARK    1  A    between atoms: O_2  and  C_3
REMARK    2  A    between atoms: C_8  and  C_10
REMARK    3  A    between atoms: C_10  and  C_13
REMARK    4  A    between atoms: C_31  and  O_33
REMARK    5  A    between atoms: O_33  and  C_34
REMARK    6  A    between atoms: C_38  and  N_40
REMARK                            x       y       z     vdW  Elec       q    Type
REMARK                         _______ _______ _______ _____ _____    ______ ____
ROOT
ATOM      1  C   UNL     1       1.075  -1.481  -0.923  0.00  0.00    +0.000 C 
ATOM      2  C   UNL     1       0.707  -0.131  -0.293  0.00  0.00    +0.000 C 
ATOM      3  O   UNL     1       0.678   0.896  -1.262  0.00  0.00    +0.000 OA
ATOM      4  C   UNL     1       0.373   2.167  -0.679  0.00  0.00    +0.000 C 
ATOM      5  O   UNL     1       0.214   2.141   0.739  0.00  0.00    +0.000 OA
ATOM      6  C   UNL     1       1.374   1.612   1.353  0.00  0.00    +0.000 C 
ATOM      7  C   UNL     1       1.724   0.219   0.799  0.00  0.00    +0.000 C 
ATOM      8  O   UNL     1       1.685  -0.761   1.821  0.00  0.00    +0.000 OA
ATOM      9  C   UNL     1       2.155  -2.008   1.321  0.00  0.00    +0.000 C 
ATOM     10  C   UNL     1       1.223  -2.531   0.202  0.00  0.00    +0.000 C 
ENDROOT
BRANCH  10  11
ATOM     11  N   UNL     1       1.746  -3.787  -0.328  0.00  0.00    +0.000 NA
ATOM     12  N   UNL     1       1.104  -4.449  -1.145  0.00  0.00    +0.000 NA
ATOM     13  N   UNL     1       0.463  -5.109  -1.961  0.00  0.00    +0.000 NA
ENDBRANCH  10  11
BRANCH   1  15
ATOM     14  H   UNL     1       2.052  -0.986  -2.529  0.00  0.00    +0.000 HD
ATOM     15  O   UNL     1       2.278  -1.379  -1.645  0.00  0.00    +0.000 OA
ENDBRANCH   1  15
BRANCH   9  16
ATOM     16  O   UNL     1       2.157  -2.955   2.373  0.00  0.00    +0.000 OA
ATOM     17  C   UNL     1       3.243  -2.716   3.241  0.00  0.00    +0.000 C 
ENDBRANCH   9  16
BRANCH   4  18
ATOM     18  C   UNL     1      -0.906   2.719  -1.319  0.00  0.00    +0.000 C 
BRANCH  18  19
ATOM     19  C   UNL     1      -2.087   1.815  -1.071  0.00  0.00    +0.000 A 
ATOM     20  C   UNL     1      -2.869   1.969   0.086  0.00  0.00    +0.000 A 
ATOM     21  C   UNL     1      -3.931   1.096   0.340  0.00  0.00    +0.000 A 
ATOM     22  C   UNL     1      -4.216   0.060  -0.554  0.00  0.00    +0.000 A 
ATOM     23  C   UNL     1      -3.438  -0.105  -1.703  0.00  0.00    +0.000 A 
ATOM     24  C   UNL     1      -2.376   0.766  -1.962  0.00  0.00    +0.000 A 
ENDBRANCH  18  19
ENDBRANCH   4  18
TORSDOF 5
