REMARK  Name = ZINC000106384102
REMARK  9 active torsions:
REMARK  status: ('A' for Active; 'I' for Inactive)
REMARK    1  A    between atoms: C_1  and  C_2
REMARK    2  A    between atoms: N_4  and  C_5
REMARK    3  A    between atoms: C_6  and  O_7
REMARK    4  A    between atoms: O_7  and  C_8
REMARK    5  A    between atoms: C_13  and  C_14
REMARK    6  A    between atoms: C_16  and  C_17
REMARK    7  A    between atoms: C_17  and  O_18
REMARK    8  A    between atoms: C_19  and  O_20
REMARK    9  A    between atoms: C_21  and  O_22
REMARK                            x       y       z     vdW  Elec       q    Type
REMARK                         _______ _______ _______ _____ _____    ______ ____
ROOT
ATOM      1  C   UNL     1      -1.169   0.219  -0.497  0.00  0.00    +0.000 C 
ATOM      2  C   UNL     1      -0.281  -0.940   0.017  0.00  0.00    +0.000 C 
ATOM      3  O   UNL     1      -0.599  -2.127  -0.687  0.00  0.00    +0.000 OA
ATOM      4  C   UNL     1      -1.913  -2.563  -0.381  0.00  0.00    +0.000 C 
ATOM      5  C   UNL     1      -2.951  -1.550  -0.918  0.00  0.00    +0.000 C 
ATOM      6  C   UNL     1      -2.669  -0.133  -0.370  0.00  0.00    +0.000 C 
ENDROOT
BRANCH   1  10
ATOM      7  C   UNL     1       0.166   3.770   0.430  0.00  0.00    +0.000 C 
ATOM      8  C   UNL     1      -0.191   2.574  -0.391  0.00  0.00    +0.000 C 
ATOM      9  O   UNL     1       0.086   2.562  -1.620  0.00  0.00    +0.000 OA
ATOM     10  N   UNL     1      -0.875   1.467   0.216  0.00  0.00    +0.000 N 
ATOM     11  H   UNL     1      -1.091   1.523   1.238  0.00  0.00    +0.000 HD
ENDBRANCH   1  10
BRANCH   5  12
ATOM     12  O   UNL     1      -4.249  -1.955  -0.563  0.00  0.00    +0.000 OA
ATOM     13  H   UNL     1      -4.876  -1.440  -1.135  0.00  0.00    +0.000 HD
ENDBRANCH   5  12
BRANCH   6  14
ATOM     14  O   UNL     1      -3.141   0.014   0.950  0.00  0.00    +0.000 OA
ATOM     15  H   UNL     1      -2.642  -0.613   1.532  0.00  0.00    +0.000 HD
ENDBRANCH   6  14
BRANCH   2  16
ATOM     16  O   UNL     1       1.093  -0.643  -0.248  0.00  0.00    +0.000 OA
BRANCH  16  17
ATOM     17  C   UNL     1       1.935   0.195   0.508  0.00  0.00    +0.000 A 
ATOM     18  C   UNL     1       1.655   0.543   1.846  0.00  0.00    +0.000 A 
ATOM     19  C   UNL     1       2.513   1.393   2.549  0.00  0.00    +0.000 A 
ATOM     20  C   UNL     1       3.656   1.901   1.934  0.00  0.00    +0.000 A 
ATOM     21  C   UNL     1       3.953   1.556   0.615  0.00  0.00    +0.000 A 
ATOM     22  C   UNL     1       3.104   0.695  -0.101  0.00  0.00    +0.000 A 
ATOM     23  C   UNL     1       3.417   0.351  -1.530  0.00  0.00    +0.000 C 
ENDBRANCH  16  17
ENDBRANCH   2  16
BRANCH   4  24
ATOM     24  C   UNL     1      -2.128  -3.944  -1.020  0.00  0.00    +0.000 C 
BRANCH  24  25
ATOM     25  O   UNL     1      -1.230  -4.877  -0.480  0.00  0.00    +0.000 OA
ATOM     26  H   UNL     1      -0.369  -4.757  -0.960  0.00  0.00    +0.000 HD
ENDBRANCH  24  25
ENDBRANCH   4  24
TORSDOF 7
