REMARK  Name = ZINC000015205956
REMARK  9 active torsions:
REMARK  status: ('A' for Active; 'I' for Inactive)
REMARK    1  A    between atoms: O_2  and  C_3
REMARK    2  A    between atoms: C_3  and  C_37
REMARK    3  A    between atoms: N_4  and  C_5
REMARK    4  A    between atoms: C_7  and  O_9
REMARK    5  A    between atoms: C_11  and  O_13
REMARK    6  A    between atoms: C_15  and  C_17
REMARK    7  A    between atoms: C_17  and  O_20
REMARK    8  A    between atoms: C_23  and  O_25
REMARK    9  A    between atoms: O_25  and  C_26
REMARK                            x       y       z     vdW  Elec       q    Type
REMARK                         _______ _______ _______ _____ _____    ______ ____
ROOT
ATOM      1  C   UNL     1       0.005  -0.310   0.120  0.00  0.00    +0.000 C 
ATOM      2  C   UNL     1       1.281  -0.563   0.940  0.00  0.00    +0.000 C 
ATOM      3  C   UNL     1       1.312   0.323   2.200  0.00  0.00    +0.000 C 
ATOM      4  C   UNL     1       0.992   1.799   1.848  0.00  0.00    +0.000 C 
ATOM      5  O   UNL     1      -0.205   1.919   1.089  0.00  0.00    +0.000 OA
ATOM      6  C   UNL     1      -0.155   1.202  -0.135  0.00  0.00    +0.000 C 
ENDROOT
BRANCH   1   8
ATOM      7  C   UNL     1      -1.800  -1.939   0.615  0.00  0.00    +0.000 C 
ATOM      8  N   UNL     1      -1.181  -0.812   0.827  0.00  0.00    +0.000 NA
ATOM      9  C   UNL     1      -1.384  -2.901  -0.459  0.00  0.00    +0.000 C 
BRANCH   7  11
ATOM     10  H   UNL     1      -3.230  -1.635   2.127  0.00  0.00    +0.000 HD
ATOM     11  O   UNL     1      -2.908  -2.258   1.395  0.00  0.00    +0.000 OA
ENDBRANCH   7  11
ENDBRANCH   1   8
BRANCH   2  12
ATOM     12  O   UNL     1       1.366  -1.920   1.293  0.00  0.00    +0.000 OA
ATOM     13  H   UNL     1       2.300  -2.082   1.591  0.00  0.00    +0.000 HD
ENDBRANCH   2  12
BRANCH   3  14
ATOM     14  O   UNL     1       0.376  -0.154   3.133  0.00  0.00    +0.000 OA
ATOM     15  H   UNL     1       0.636   0.212   4.018  0.00  0.00    +0.000 HD
ENDBRANCH   3  14
BRANCH   4  16
ATOM     16  C   UNL     1       2.175   2.558   1.206  0.00  0.00    +0.000 C 
BRANCH  16  17
ATOM     17  O   UNL     1       3.161   2.836   2.165  0.00  0.00    +0.000 OA
ATOM     18  H   UNL     1       3.796   2.072   2.159  0.00  0.00    +0.000 HD
ENDBRANCH  16  17
ENDBRANCH   4  16
BRANCH   6  19
ATOM     19  O   UNL     1      -1.379   1.445  -0.833  0.00  0.00    +0.000 OA
BRANCH  19  20
ATOM     20  C   UNL     1      -1.643   1.120  -2.174  0.00  0.00    +0.000 A 
ATOM     21  C   UNL     1      -2.962   1.236  -2.631  0.00  0.00    +0.000 A 
ATOM     22  C   UNL     1      -3.287   0.922  -3.954  0.00  0.00    +0.000 A 
ATOM     23  C   UNL     1      -2.292   0.491  -4.835  0.00  0.00    +0.000 A 
ATOM     24  C   UNL     1      -0.971   0.379  -4.394  0.00  0.00    +0.000 A 
ATOM     25  C   UNL     1      -0.643   0.693  -3.071  0.00  0.00    +0.000 A 
ENDBRANCH  19  20
ENDBRANCH   6  19
TORSDOF 8
