REMARK  Name = ZINC000015205956
REMARK  9 active torsions:
REMARK  status: ('A' for Active; 'I' for Inactive)
REMARK    1  A    between atoms: O_2  and  C_3
REMARK    2  A    between atoms: C_3  and  C_37
REMARK    3  A    between atoms: N_4  and  C_5
REMARK    4  A    between atoms: C_7  and  O_9
REMARK    5  A    between atoms: C_11  and  O_13
REMARK    6  A    between atoms: C_15  and  C_17
REMARK    7  A    between atoms: C_17  and  O_20
REMARK    8  A    between atoms: C_23  and  O_25
REMARK    9  A    between atoms: O_25  and  C_26
REMARK                            x       y       z     vdW  Elec       q    Type
REMARK                         _______ _______ _______ _____ _____    ______ ____
ROOT
ATOM      1  C   UNL     1      -0.139  -1.170   1.036  0.00  0.00    +0.000 C 
ATOM      2  C   UNL     1      -0.042  -0.154   2.194  0.00  0.00    +0.000 C 
ATOM      3  C   UNL     1       1.137   0.821   1.974  0.00  0.00    +0.000 C 
ATOM      4  C   UNL     1       1.150   1.375   0.523  0.00  0.00    +0.000 C 
ATOM      5  O   UNL     1       1.176   0.306  -0.410  0.00  0.00    +0.000 OA
ATOM      6  C   UNL     1       0.001  -0.486  -0.343  0.00  0.00    +0.000 C 
ENDROOT
BRANCH   1   8
ATOM      7  C   UNL     1      -1.638  -3.038   0.533  0.00  0.00    +0.000 C 
ATOM      8  N   UNL     1      -1.401  -1.908   1.129  0.00  0.00    +0.000 NA
ATOM      9  C   UNL     1      -2.969  -3.696   0.706  0.00  0.00    +0.000 C 
BRANCH   7  11
ATOM     10  H   UNL     1      -0.824  -4.549  -0.688  0.00  0.00    +0.000 HD
ATOM     11  O   UNL     1      -0.652  -3.660  -0.234  0.00  0.00    +0.000 OA
ENDBRANCH   7  11
ENDBRANCH   1   8
BRANCH   2  12
ATOM     12  O   UNL     1      -1.262   0.518   2.407  0.00  0.00    +0.000 OA
ATOM     13  H   UNL     1      -1.432   1.115   1.636  0.00  0.00    +0.000 HD
ENDBRANCH   2  12
BRANCH   3  14
ATOM     14  O   UNL     1       1.119   1.846   2.937  0.00  0.00    +0.000 OA
ATOM     15  H   UNL     1       0.361   2.451   2.724  0.00  0.00    +0.000 HD
ENDBRANCH   3  14
BRANCH   4  16
ATOM     16  C   UNL     1       2.390   2.245   0.265  0.00  0.00    +0.000 C 
BRANCH  16  17
ATOM     17  O   UNL     1       2.305   3.458   0.967  0.00  0.00    +0.000 OA
ATOM     18  H   UNL     1       2.939   3.401   1.728  0.00  0.00    +0.000 HD
ENDBRANCH  16  17
ENDBRANCH   4  16
BRANCH   6  19
ATOM     19  O   UNL     1      -1.167   0.277  -0.664  0.00  0.00    +0.000 OA
BRANCH  19  20
ATOM     20  C   UNL     1      -1.407   0.904  -1.896  0.00  0.00    +0.000 A 
ATOM     21  C   UNL     1      -0.519   0.801  -2.987  0.00  0.00    +0.000 A 
ATOM     22  C   UNL     1      -0.807   1.452  -4.191  0.00  0.00    +0.000 A 
ATOM     23  C   UNL     1      -1.977   2.205  -4.319  0.00  0.00    +0.000 A 
ATOM     24  C   UNL     1      -2.861   2.310  -3.243  0.00  0.00    +0.000 A 
ATOM     25  C   UNL     1      -2.577   1.661  -2.037  0.00  0.00    +0.000 A 
ENDBRANCH  19  20
ENDBRANCH   6  19
TORSDOF 8
