REMARK  Name = ZINC000616589990
REMARK  7 active torsions:
REMARK  status: ('A' for Active; 'I' for Inactive)
REMARK    1  A    between atoms: C_1  and  C_2
REMARK    2  A    between atoms: C_2  and  O_3
REMARK    3  A    between atoms: O_3  and  C_4
REMARK    4  A    between atoms: C_6  and  C_7
REMARK    5  A    between atoms: C_10  and  O_11
REMARK    6  A    between atoms: C_12  and  O_13
REMARK    7  A    between atoms: C_14  and  N_15
REMARK                            x       y       z     vdW  Elec       q    Type
REMARK                         _______ _______ _______ _____ _____    ______ ____
ROOT
ATOM      1  C   UNL     1       0.769   0.238   1.080  0.00  0.00    +0.000 C 
ATOM      2  O   UNL     1      -0.224   0.894   0.307  0.00  0.00    +0.000 OA
ATOM      3  C   UNL     1       0.307   1.331  -0.932  0.00  0.00    +0.000 C 
ATOM      4  C   UNL     1       0.721   0.120  -1.800  0.00  0.00    +0.000 C 
ATOM      5  C   UNL     1       1.744  -0.741  -1.042  0.00  0.00    +0.000 C 
ATOM      6  C   UNL     1       1.211  -1.064   0.373  0.00  0.00    +0.000 C 
ENDROOT
BRANCH   6   7
ATOM      7  N   UNL     1       2.213  -1.787   1.168  0.00  0.00    +0.000 N 
ATOM      8  H   UNL     1       1.781  -2.130   2.056  0.00  0.00    +0.000 HD
ATOM      9  H   UNL     1       3.022  -1.167   1.404  0.00  0.00    +0.000 HD
ATOM     10  H   UNL     1       2.559  -2.618   0.635  0.00  0.00    +0.000 HD
ENDBRANCH   6   7
BRANCH   3  11
ATOM     11  C   UNL     1      -0.746   2.136  -1.635  0.00  0.00    +0.000 C 
ATOM     12  O   UNL     1      -0.448   3.232  -2.179  0.00  0.00    +0.000 OA
ATOM     13  O   UNL     1      -2.048   1.659  -1.722  0.00  0.00    +0.000 OA
ENDBRANCH   3  11
BRANCH   4  14
ATOM     14  O   UNL     1       1.287   0.551  -3.013  0.00  0.00    +0.000 OA
ATOM     15  H   UNL     1       0.538   0.697  -3.648  0.00  0.00    +0.000 HD
ENDBRANCH   4  14
BRANCH   5  16
ATOM     16  O   UNL     1       2.970  -0.053  -0.964  0.00  0.00    +0.000 OA
ATOM     17  H   UNL     1       3.690  -0.737  -0.959  0.00  0.00    +0.000 HD
ENDBRANCH   5  16
BRANCH   1  18
ATOM     18  O   UNL     1       0.215  -0.099   2.338  0.00  0.00    +0.000 OA
BRANCH  18  20
ATOM     19  C   UNL     1       1.387   1.035   4.115  0.00  0.00    +0.000 C 
ATOM     20  C   UNL     1       0.171   1.027   3.195  0.00  0.00    +0.000 C 
ENDBRANCH  18  20
ENDBRANCH   1  18
TORSDOF 6
