REMARK  Name = 51351654
REMARK  7 active torsions:
REMARK  status: ('A' for Active; 'I' for Inactive)
REMARK    1  A    between atoms: S_2  and  N_5
REMARK    2  A    between atoms: N_5  and  C_6
REMARK    3  A    between atoms: C_7  and  O_8
REMARK    4  A    between atoms: C_10  and  C_11
REMARK    5  A    between atoms: C_11  and  O_12
REMARK    6  A    between atoms: C_13  and  O_14
REMARK    7  A    between atoms: C_15  and  O_16
REMARK                            x       y       z     vdW  Elec       q    Type
REMARK                         _______ _______ _______ _____ _____    ______ ____
ROOT
ATOM      1  C   UNL     1       0.248  -1.752  -1.628  0.00  0.00    +0.000 C 
ATOM      2  C   UNL     1      -0.531  -1.563  -0.300  0.00  0.00    +0.000 C 
ATOM      3  O   UNL     1       0.132  -0.635   0.547  0.00  0.00    +0.000 OA
ATOM      4  C   UNL     1       1.415  -1.103   0.940  0.00  0.00    +0.000 C 
ATOM      5  C   UNL     1       2.338  -1.270  -0.294  0.00  0.00    +0.000 C 
ATOM      6  C   UNL     1       1.683  -2.217  -1.320  0.00  0.00    +0.000 C 
ENDROOT
BRANCH   1   7
ATOM      7  N   UNL     1      -0.396  -2.723  -2.534  0.00  0.00    +0.000 NA
ATOM      8  H   UNL     1      -0.931  -3.446  -2.002  0.00  0.00    +0.000 HD
BRANCH   7  10
ATOM      9  O   UNL     1      -2.126  -2.988  -4.515  0.00  0.00    +0.000 OA
ATOM     10  S   UNL     1      -1.492  -1.945  -3.639  0.00  0.00    +0.000 S 
ATOM     11  O   UNL     1      -0.739  -0.972  -4.501  0.00  0.00    +0.000 OA
ATOM     12  O   UNL     1      -2.697  -1.131  -2.798  0.00  0.00    +0.000 OA
ENDBRANCH   7  10
ENDBRANCH   1   7
BRANCH   2  13
ATOM     13  O   UNL     1      -0.735  -2.791   0.356  0.00  0.00    +0.000 OA
ATOM     14  H   UNL     1      -1.331  -2.601   1.127  0.00  0.00    +0.000 HD
ENDBRANCH   2  13
BRANCH   5  15
ATOM     15  O   UNL     1       3.608  -1.750   0.075  0.00  0.00    +0.000 OA
ATOM     16  H   UNL     1       3.481  -2.627   0.524  0.00  0.00    +0.000 HD
ENDBRANCH   5  15
BRANCH   6  17
ATOM     17  O   UNL     1       2.452  -2.291  -2.496  0.00  0.00    +0.000 OA
ATOM     18  H   UNL     1       2.488  -1.381  -2.892  0.00  0.00    +0.000 HD
ENDBRANCH   6  17
BRANCH   4  19
ATOM     19  C   UNL     1       2.018  -0.097   1.931  0.00  0.00    +0.000 C 
BRANCH  19  20
ATOM     20  O   UNL     1       1.218  -0.004   3.080  0.00  0.00    +0.000 OA
ATOM     21  H   UNL     1       0.474   0.616   2.863  0.00  0.00    +0.000 HD
ENDBRANCH  19  20
ENDBRANCH   4  19
TORSDOF 7
