REMARK  Name = ZINC000616582904
REMARK  10 active torsions:
REMARK  status: ('A' for Active; 'I' for Inactive)
REMARK    1  A    between atoms: C_3  and  C_4
REMARK    2  A    between atoms: C_4  and  O_7
REMARK    3  A    between atoms: O_7  and  C_8
REMARK    4  A    between atoms: C_11  and  C_13
REMARK    5  A    between atoms: C_13  and  O_16
REMARK    6  A    between atoms: C_18  and  O_20
REMARK    7  A    between atoms: C_22  and  O_24
REMARK    8  A    between atoms: C_26  and  N_28
REMARK    9  A    between atoms: C_29  and  O_30
REMARK   10  A    between atoms: C_29  and  C_32
REMARK                            x       y       z     vdW  Elec       q    Type
REMARK                         _______ _______ _______ _____ _____    ______ ____
ROOT
ATOM      1  C   UNL     1      -0.252   0.801  -0.081  0.00  0.00    +0.000 C 
ATOM      2  O   UNL     1      -1.413   0.458   0.657  0.00  0.00    +0.000 OA
ATOM      3  C   UNL     1      -2.048  -0.680   0.102  0.00  0.00    +0.000 C 
ATOM      4  C   UNL     1      -1.131  -1.924   0.263  0.00  0.00    +0.000 C 
ATOM      5  C   UNL     1       0.270  -1.674  -0.344  0.00  0.00    +0.000 C 
ATOM      6  C   UNL     1       0.820  -0.294   0.090  0.00  0.00    +0.000 C 
ENDROOT
BRANCH   6   7
ATOM      7  N   UNL     1       2.005   0.061  -0.699  0.00  0.00    +0.000 NA
ATOM      8  C   UNL     1       3.238  -0.281  -0.456  0.00  0.00    +0.000 C 
ATOM      9  C   UNL     1       3.626  -1.092   0.751  0.00  0.00    +0.000 C 
BRANCH   8  10
ATOM     10  O   UNL     1       4.226   0.142  -1.341  0.00  0.00    +0.000 OA
ATOM     11  H   UNL     1       5.202  -0.088  -1.198  0.00  0.00    +0.000 HD
ENDBRANCH   8  10
ENDBRANCH   6   7
BRANCH   4  12
ATOM     12  O   UNL     1      -1.709  -3.086  -0.281  0.00  0.00    +0.000 OA
ATOM     13  H   UNL     1      -1.965  -2.888  -1.220  0.00  0.00    +0.000 HD
ENDBRANCH   4  12
BRANCH   5  14
ATOM     14  O   UNL     1       0.275  -1.819  -1.745  0.00  0.00    +0.000 OA
ATOM     15  H   UNL     1      -0.353  -1.157  -2.131  0.00  0.00    +0.000 HD
ENDBRANCH   5  14
BRANCH   1  16
ATOM     16  O   UNL     1       0.274   2.013   0.427  0.00  0.00    +0.000 OA
BRANCH  16  17
ATOM     17  C   UNL     1      -0.507   3.106  -0.006  0.00  0.00    +0.000 C 
BRANCH  17  19
ATOM     18  C   UNL     1       0.422   5.335   1.130  0.00  0.00    +0.000 C 
ATOM     19  C   UNL     1       0.002   4.328   0.617  0.00  0.00    +0.000 C 
ENDBRANCH  17  19
ENDBRANCH  16  17
ENDBRANCH   1  16
BRANCH   3  20
ATOM     20  C   UNL     1      -3.387  -0.874   0.832  0.00  0.00    +0.000 C 
BRANCH  20  21
ATOM     21  O   UNL     1      -4.156  -1.881   0.230  0.00  0.00    +0.000 OA
ATOM     22  H   UNL     1      -4.521  -1.496  -0.610  0.00  0.00    +0.000 HD
ENDBRANCH  20  21
ENDBRANCH   3  20
TORSDOF 9
