REMARK  Name = ZINC000616589990
REMARK  7 active torsions:
REMARK  status: ('A' for Active; 'I' for Inactive)
REMARK    1  A    between atoms: C_1  and  C_2
REMARK    2  A    between atoms: C_2  and  O_3
REMARK    3  A    between atoms: O_3  and  C_4
REMARK    4  A    between atoms: C_6  and  C_7
REMARK    5  A    between atoms: C_10  and  O_11
REMARK    6  A    between atoms: C_12  and  O_13
REMARK    7  A    between atoms: C_14  and  N_15
REMARK                            x       y       z     vdW  Elec       q    Type
REMARK                         _______ _______ _______ _____ _____    ______ ____
ROOT
ATOM      1  C   UNL     1      -0.069  -0.341  -0.969  0.00  0.00    +0.000 C 
ATOM      2  O   UNL     1      -1.246   0.249  -0.424  0.00  0.00    +0.000 OA
ATOM      3  C   UNL     1      -1.594  -0.244   0.866  0.00  0.00    +0.000 C 
ATOM      4  C   UNL     1      -1.740  -1.789   0.910  0.00  0.00    +0.000 C 
ATOM      5  C   UNL     1      -0.516  -2.479   0.281  0.00  0.00    +0.000 C 
ATOM      6  C   UNL     1      -0.200  -1.872  -1.098  0.00  0.00    +0.000 C 
ENDROOT
BRANCH   3   7
ATOM      7  C   UNL     1      -0.712   0.336   1.946  0.00  0.00    +0.000 C 
ATOM      8  O   UNL     1       0.050  -0.395   2.634  0.00  0.00    +0.000 OA
ATOM      9  O   UNL     1      -0.733   1.705   2.180  0.00  0.00    +0.000 OA
ENDBRANCH   3   7
BRANCH   6  10
ATOM     10  N   UNL     1      -1.240  -2.210  -2.077  0.00  0.00    +0.000 NA
ATOM     11  H   UNL     1      -0.973  -1.801  -3.002  0.00  0.00    +0.000 HD
ATOM     12  H   UNL     1      -1.239  -3.246  -2.222  0.00  0.00    +0.000 HD
ENDBRANCH   6  10
BRANCH   4  13
ATOM     13  O   UNL     1      -2.903  -2.175   0.220  0.00  0.00    +0.000 OA
ATOM     14  H   UNL     1      -3.671  -1.996   0.824  0.00  0.00    +0.000 HD
ENDBRANCH   4  13
BRANCH   5  15
ATOM     15  O   UNL     1      -0.733  -3.862   0.166  0.00  0.00    +0.000 OA
ATOM     16  H   UNL     1      -0.694  -4.237   1.085  0.00  0.00    +0.000 HD
ENDBRANCH   5  15
BRANCH   1  17
ATOM     17  O   UNL     1       1.080  -0.018  -0.201  0.00  0.00    +0.000 OA
BRANCH  17  19
ATOM     18  C   UNL     1       2.610   1.681   0.495  0.00  0.00    +0.000 C 
ATOM     19  C   UNL     1       1.497   1.304  -0.470  0.00  0.00    +0.000 C 
ENDBRANCH  17  19
ENDBRANCH   1  17
TORSDOF 6
