REMARK  Name = ZINC000616582904
REMARK  10 active torsions:
REMARK  status: ('A' for Active; 'I' for Inactive)
REMARK    1  A    between atoms: C_3  and  C_4
REMARK    2  A    between atoms: C_4  and  O_7
REMARK    3  A    between atoms: O_7  and  C_8
REMARK    4  A    between atoms: C_11  and  C_13
REMARK    5  A    between atoms: C_13  and  O_16
REMARK    6  A    between atoms: C_18  and  O_20
REMARK    7  A    between atoms: C_22  and  O_24
REMARK    8  A    between atoms: C_26  and  N_28
REMARK    9  A    between atoms: C_29  and  O_30
REMARK   10  A    between atoms: C_29  and  C_32
REMARK                            x       y       z     vdW  Elec       q    Type
REMARK                         _______ _______ _______ _____ _____    ______ ____
ROOT
ATOM      1  C   UNL     1       1.217  -1.190   0.264  0.00  0.00    +0.000 C 
ATOM      2  O   UNL     1       0.033  -1.844  -0.164  0.00  0.00    +0.000 OA
ATOM      3  C   UNL     1      -1.117  -1.120   0.241  0.00  0.00    +0.000 C 
ATOM      4  C   UNL     1      -1.163   0.256  -0.469  0.00  0.00    +0.000 C 
ATOM      5  C   UNL     1       0.122   1.045  -0.161  0.00  0.00    +0.000 C 
ATOM      6  C   UNL     1       1.357   0.168  -0.451  0.00  0.00    +0.000 C 
ENDROOT
BRANCH   6   7
ATOM      7  N   UNL     1       2.582   0.832   0.000  0.00  0.00    +0.000 NA
ATOM      8  C   UNL     1       3.145   1.828  -0.615  0.00  0.00    +0.000 C 
ATOM      9  C   UNL     1       4.399   2.421  -0.060  0.00  0.00    +0.000 C 
BRANCH   8  10
ATOM     10  O   UNL     1       2.611   2.323  -1.805  0.00  0.00    +0.000 OA
ATOM     11  H   UNL     1       3.054   3.088  -2.300  0.00  0.00    +0.000 HD
ENDBRANCH   8  10
ENDBRANCH   6   7
BRANCH   4  12
ATOM     12  O   UNL     1      -2.279   0.996  -0.042  0.00  0.00    +0.000 OA
ATOM     13  H   UNL     1      -3.016   0.812  -0.681  0.00  0.00    +0.000 HD
ENDBRANCH   4  12
BRANCH   5  14
ATOM     14  O   UNL     1       0.137   1.453   1.186  0.00  0.00    +0.000 OA
ATOM     15  H   UNL     1      -0.381   2.298   1.241  0.00  0.00    +0.000 HD
ENDBRANCH   5  14
BRANCH   1  16
ATOM     16  O   UNL     1       2.333  -1.991  -0.082  0.00  0.00    +0.000 OA
BRANCH  16  17
ATOM     17  C   UNL     1       2.493  -3.059   0.831  0.00  0.00    +0.000 C 
BRANCH  17  19
ATOM     18  C   UNL     1       4.077  -2.307   2.849  0.00  0.00    +0.000 C 
ATOM     19  C   UNL     1       3.363  -2.648   1.939  0.00  0.00    +0.000 C 
ENDBRANCH  17  19
ENDBRANCH  16  17
ENDBRANCH   1  16
BRANCH   3  20
ATOM     20  C   UNL     1      -2.359  -1.969  -0.069  0.00  0.00    +0.000 C 
BRANCH  20  21
ATOM     21  O   UNL     1      -2.426  -2.285  -1.435  0.00  0.00    +0.000 OA
ATOM     22  H   UNL     1      -2.978  -1.583  -1.867  0.00  0.00    +0.000 HD
ENDBRANCH  20  21
ENDBRANCH   3  20
TORSDOF 9
