REMARK  Name = 44341508
REMARK  11 active torsions:
REMARK  status: ('A' for Active; 'I' for Inactive)
REMARK    1  A    between atoms: O_2  and  C_3
REMARK    2  A    between atoms: C_3  and  C_47
REMARK    3  A    between atoms: N_4  and  C_5
REMARK    4  A    between atoms: C_7  and  O_9
REMARK    5  A    between atoms: O_9  and  C_10
REMARK    6  A    between atoms: C_18  and  O_19
REMARK    7  A    between atoms: O_19  and  C_20
REMARK    8  A    between atoms: C_32  and  C_34
REMARK    9  A    between atoms: C_34  and  O_37
REMARK   10  A    between atoms: C_39  and  O_41
REMARK   11  A    between atoms: C_43  and  O_45
REMARK                            x       y       z     vdW  Elec       q    Type
REMARK                         _______ _______ _______ _____ _____    ______ ____
ROOT
ATOM      1  C   UNL     1      -2.830  -1.193   0.311  0.00  0.00    +0.000 C 
ATOM      2  C   UNL     1      -1.520  -0.816  -0.404  0.00  0.00    +0.000 C 
ATOM      3  O   UNL     1      -1.687   0.335  -1.220  0.00  0.00    +0.000 OA
ATOM      4  C   UNL     1      -2.032   1.478  -0.452  0.00  0.00    +0.000 C 
ATOM      5  C   UNL     1      -3.390   1.271   0.267  0.00  0.00    +0.000 C 
ATOM      6  C   UNL     1      -3.333   0.006   1.141  0.00  0.00    +0.000 C 
ENDROOT
BRANCH   1   8
ATOM      7  C   UNL     1      -4.678  -2.561  -0.630  0.00  0.00    +0.000 C 
ATOM      8  N   UNL     1      -3.828  -1.574  -0.697  0.00  0.00    +0.000 NA
ATOM      9  C   UNL     1      -4.724  -3.511   0.530  0.00  0.00    +0.000 C 
BRANCH   7  11
ATOM     10  H   UNL     1      -5.566  -2.147  -2.491  0.00  0.00    +0.000 HD
ATOM     11  O   UNL     1      -5.565  -2.760  -1.683  0.00  0.00    +0.000 OA
ENDBRANCH   7  11
ENDBRANCH   1   8
BRANCH   5  12
ATOM     12  O   UNL     1      -3.734   2.392   1.044  0.00  0.00    +0.000 OA
ATOM     13  H   UNL     1      -3.012   2.531   1.711  0.00  0.00    +0.000 HD
ENDBRANCH   5  12
BRANCH   6  14
ATOM     14  O   UNL     1      -4.608  -0.256   1.669  0.00  0.00    +0.000 OA
ATOM     15  H   UNL     1      -4.473  -0.796   2.490  0.00  0.00    +0.000 HD
ENDBRANCH   6  14
BRANCH   2  16
ATOM     16  O   UNL     1      -0.466  -0.635   0.548  0.00  0.00    +0.000 OA
BRANCH  16  17
ATOM     17  C   UNL     1       0.880  -0.405   0.226  0.00  0.00    +0.000 A 
ATOM     18  C   UNL     1       1.349  -0.388  -1.102  0.00  0.00    +0.000 A 
ATOM     19  C   UNL     1       2.698  -0.148  -1.373  0.00  0.00    +0.000 A 
ATOM     20  C   UNL     1       3.602   0.076  -0.324  0.00  0.00    +0.000 A 
ATOM     21  C   UNL     1       4.959   0.318  -0.587  0.00  0.00    +0.000 A 
ATOM     22  C   UNL     1       5.860   0.542   0.472  0.00  0.00    +0.000 A 
ATOM     23  C   UNL     1       5.389   0.520   1.790  0.00  0.00    +0.000 A 
ATOM     24  C   UNL     1       4.040   0.280   2.062  0.00  0.00    +0.000 A 
ATOM     25  C   UNL     1       3.138   0.057   1.012  0.00  0.00    +0.000 A 
ATOM     26  C   UNL     1       1.781  -0.185   1.274  0.00  0.00    +0.000 A 
BRANCH  22  27
ATOM     27  O   UNL     1       7.225   0.788   0.259  0.00  0.00    +0.000 OA
ATOM     28  C   UNL     1       7.843   0.840  -1.022  0.00  0.00    +0.000 C 
ENDBRANCH  22  27
ENDBRANCH  16  17
ENDBRANCH   2  16
BRANCH   4  29
ATOM     29  C   UNL     1      -2.073   2.696  -1.384  0.00  0.00    +0.000 C 
BRANCH  29  30
ATOM     30  O   UNL     1      -3.011   2.498  -2.406  0.00  0.00    +0.000 OA
ATOM     31  H   UNL     1      -2.985   3.317  -2.966  0.00  0.00    +0.000 HD
ENDBRANCH  29  30
ENDBRANCH   4  29
TORSDOF 9
