REMARK  Name = 45357367
REMARK  8 active torsions:
REMARK  status: ('A' for Active; 'I' for Inactive)
REMARK    1  A    between atoms: O_2  and  N_3
REMARK    2  A    between atoms: N_4  and  C_31
REMARK    3  A    between atoms: N_7  and  C_9
REMARK    4  A    between atoms: C_11  and  O_13
REMARK    5  A    between atoms: C_16  and  C_18
REMARK    6  A    between atoms: C_18  and  O_21
REMARK    7  A    between atoms: C_23  and  O_25
REMARK    8  A    between atoms: C_27  and  O_29
REMARK                            x       y       z     vdW  Elec       q    Type
REMARK                         _______ _______ _______ _____ _____    ______ ____
ROOT
ATOM      1  C   UNL     1       0.800  -0.660   0.051  0.00  0.00    +0.000 C 
ATOM      2  C   UNL     1       0.761  -1.332   1.437  0.00  0.00    +0.000 C 
ATOM      3  O   UNL     1      -0.436  -2.078   1.586  0.00  0.00    +0.000 OA
ATOM      4  C   UNL     1      -1.563  -1.217   1.596  0.00  0.00    +0.000 C 
ATOM      5  C   UNL     1      -1.725  -0.519   0.224  0.00  0.00    +0.000 C 
ATOM      6  C   UNL     1      -0.432   0.251  -0.115  0.00  0.00    +0.000 C 
ENDROOT
BRANCH   1  11
ATOM      7  N   UNL     1       4.973   0.833  -1.970  0.00  0.00    +0.000 NA
ATOM      8  N   UNL     1       3.842   1.148  -1.461  0.00  0.00    +0.000 N 
ATOM      9  C   UNL     1       2.765   0.203  -1.321  0.00  0.00    +0.000 C 
ATOM     10  O   UNL     1       2.441  -0.525  -2.299  0.00  0.00    +0.000 OA
ATOM     11  N   UNL     1       2.026   0.131  -0.092  0.00  0.00    +0.000 N 
ATOM     12  H   UNL     1       2.303   0.763   0.693  0.00  0.00    +0.000 HD
ATOM     13  C   UNL     1       3.659   2.514  -0.975  0.00  0.00    +0.000 C 
BRANCH   7  15
ATOM     14  H   UNL     1       4.752  -1.257  -2.149  0.00  0.00    +0.000 HD
ATOM     15  O   UNL     1       5.316  -0.446  -2.365  0.00  0.00    +0.000 OA
ENDBRANCH   7  15
ENDBRANCH   1  11
BRANCH   2  16
ATOM     16  O   UNL     1       1.854  -2.203   1.548  0.00  0.00    +0.000 OA
ATOM     17  H   UNL     1       1.854  -2.535   2.484  0.00  0.00    +0.000 HD
ENDBRANCH   2  16
BRANCH   5  18
ATOM     18  O   UNL     1      -2.809   0.373   0.272  0.00  0.00    +0.000 OA
ATOM     19  H   UNL     1      -3.083   0.543  -0.667  0.00  0.00    +0.000 HD
ENDBRANCH   5  18
BRANCH   6  20
ATOM     20  O   UNL     1      -0.491   0.784  -1.416  0.00  0.00    +0.000 OA
ATOM     21  H   UNL     1      -0.573   0.024  -2.050  0.00  0.00    +0.000 HD
ENDBRANCH   6  20
BRANCH   4  22
ATOM     22  C   UNL     1      -2.805  -2.044   1.954  0.00  0.00    +0.000 C 
BRANCH  22  23
ATOM     23  O   UNL     1      -2.990  -3.078   1.026  0.00  0.00    +0.000 OA
ATOM     24  H   UNL     1      -3.804  -3.565   1.316  0.00  0.00    +0.000 HD
ENDBRANCH  22  23
ENDBRANCH   4  22
TORSDOF 7
