REMARK  Name = 11908605
REMARK  7 active torsions:
REMARK  status: ('A' for Active; 'I' for Inactive)
REMARK    1  A    between atoms: C_1  and  C_2
REMARK    2  A    between atoms: N_4  and  C_5
REMARK    3  A    between atoms: C_6  and  O_7
REMARK    4  A    between atoms: C_8  and  O_9
REMARK    5  A    between atoms: C_10  and  C_11
REMARK    6  A    between atoms: C_11  and  O_12
REMARK    7  A    between atoms: C_14  and  O_15
REMARK                            x       y       z     vdW  Elec       q    Type
REMARK                         _______ _______ _______ _____ _____    ______ ____
ROOT
ATOM      1  C   UNL     1       1.021   0.383   1.202  0.00  0.00    +0.000 C 
ATOM      2  C   UNL     1      -0.470  -0.005   1.190  0.00  0.00    +0.000 C 
ATOM      3  C   UNL     1      -0.946  -0.252  -0.256  0.00  0.00    +0.000 C 
ATOM      4  C   UNL     1       0.021  -1.226  -0.973  0.00  0.00    +0.000 C 
ATOM      5  O   UNL     1       1.345  -0.714  -0.949  0.00  0.00    +0.000 OA
ATOM      6  C   UNL     1       1.832  -0.646   0.380  0.00  0.00    +0.000 C 
ENDROOT
BRANCH   1  10
ATOM      7  C   UNL     1       1.067   4.266   0.814  0.00  0.00    +0.000 C 
ATOM      8  C   UNL     1       0.890   2.914   1.426  0.00  0.00    +0.000 C 
ATOM      9  O   UNL     1       0.497   2.817   2.620  0.00  0.00    +0.000 OA
ATOM     10  N   UNL     1       1.201   1.739   0.664  0.00  0.00    +0.000 N 
ATOM     11  H   UNL     1       1.587   1.865  -0.299  0.00  0.00    +0.000 HD
ENDBRANCH   1  10
BRANCH   2  12
ATOM     12  O   UNL     1      -0.649  -1.162   1.970  0.00  0.00    +0.000 OA
ATOM     13  H   UNL     1      -1.594  -1.166   2.276  0.00  0.00    +0.000 HD
ENDBRANCH   2  12
BRANCH   3  14
ATOM     14  O   UNL     1      -2.249  -0.778  -0.233  0.00  0.00    +0.000 OA
ATOM     15  H   UNL     1      -2.729  -0.410  -1.020  0.00  0.00    +0.000 HD
ENDBRANCH   3  14
BRANCH   6  16
ATOM     16  O   UNL     1       3.182  -0.265   0.338  0.00  0.00    +0.000 OA
ATOM     17  H   UNL     1       3.558  -0.437   1.241  0.00  0.00    +0.000 HD
ENDBRANCH   6  16
BRANCH   4  18
ATOM     18  C   UNL     1      -0.392  -1.428  -2.438  0.00  0.00    +0.000 C 
BRANCH  18  19
ATOM     19  O   UNL     1       0.522  -2.267  -3.094  0.00  0.00    +0.000 OA
ATOM     20  H   UNL     1       0.336  -3.190  -2.780  0.00  0.00    +0.000 HD
ENDBRANCH  18  19
ENDBRANCH   4  18
TORSDOF 6
