REMARK  Name = 11096158
REMARK  8 active torsions:
REMARK  status: ('A' for Active; 'I' for Inactive)
REMARK    1  A    between atoms: O_2  and  C_3
REMARK    2  A    between atoms: C_3  and  C_27
REMARK    3  A    between atoms: N_4  and  C_5
REMARK    4  A    between atoms: C_7  and  O_9
REMARK    5  A    between atoms: C_12  and  C_14
REMARK    6  A    between atoms: C_14  and  O_17
REMARK    7  A    between atoms: C_19  and  O_21
REMARK    8  A    between atoms: C_23  and  O_25
REMARK                            x       y       z     vdW  Elec       q    Type
REMARK                         _______ _______ _______ _____ _____    ______ ____
ROOT
ATOM      1  C   UNL     1      -0.699   0.475   0.889  0.00  0.00    +0.000 C 
ATOM      2  C   UNL     1      -1.328  -0.861   0.428  0.00  0.00    +0.000 C 
ATOM      3  O   UNL     1      -0.472  -1.530  -0.485  0.00  0.00    +0.000 OA
ATOM      4  C   UNL     1      -0.342  -0.787  -1.687  0.00  0.00    +0.000 C 
ATOM      5  C   UNL     1       0.343   0.578  -1.418  0.00  0.00    +0.000 C 
ATOM      6  C   UNL     1      -0.450   1.355  -0.349  0.00  0.00    +0.000 C 
ENDROOT
BRANCH   1   8
ATOM      7  C   UNL     1       0.741  -0.017   2.851  0.00  0.00    +0.000 C 
ATOM      8  N   UNL     1       0.572   0.246   1.586  0.00  0.00    +0.000 NA
ATOM      9  C   UNL     1       2.127  -0.221   3.363  0.00  0.00    +0.000 C 
BRANCH   7  11
ATOM     10  H   UNL     1      -1.294   0.027   3.489  0.00  0.00    +0.000 HD
ATOM     11  O   UNL     1      -0.326  -0.097   3.752  0.00  0.00    +0.000 OA
ENDBRANCH   7  11
ENDBRANCH   1   8
BRANCH   2  12
ATOM     12  O   UNL     1      -1.595  -1.691   1.528  0.00  0.00    +0.000 OA
ATOM     13  H   UNL     1      -0.751  -2.155   1.767  0.00  0.00    +0.000 HD
ENDBRANCH   2  12
BRANCH   5  14
ATOM     14  O   UNL     1       0.381   1.339  -2.600  0.00  0.00    +0.000 OA
ATOM     15  H   UNL     1       1.256   1.161  -3.034  0.00  0.00    +0.000 HD
ENDBRANCH   5  14
BRANCH   6  16
ATOM     16  O   UNL     1       0.248   2.514   0.029  0.00  0.00    +0.000 OA
ATOM     17  H   UNL     1       0.105   3.185  -0.688  0.00  0.00    +0.000 HD
ENDBRANCH   6  16
BRANCH   4  18
ATOM     18  C   UNL     1       0.449  -1.630  -2.700  0.00  0.00    +0.000 C 
BRANCH  18  19
ATOM     19  O   UNL     1       1.756  -1.872  -2.251  0.00  0.00    +0.000 OA
ATOM     20  H   UNL     1       1.697  -2.602  -1.580  0.00  0.00    +0.000 HD
ENDBRANCH  18  19
ENDBRANCH   4  18
TORSDOF 7
