REMARK  Name = 7067772
REMARK  9 active torsions:
REMARK  status: ('A' for Active; 'I' for Inactive)
REMARK    1  A    between atoms: O_2  and  C_3
REMARK    2  A    between atoms: N_4  and  C_6
REMARK    3  A    between atoms: C_8  and  O_10
REMARK    4  A    between atoms: C_13  and  C_15
REMARK    5  A    between atoms: C_15  and  O_18
REMARK    6  A    between atoms: C_20  and  O_22
REMARK    7  A    between atoms: C_24  and  O_26
REMARK    8  A    between atoms: N_28  and  N_29
REMARK    9  A    between atoms: N_28  and  C_31
REMARK                            x       y       z     vdW  Elec       q    Type
REMARK                         _______ _______ _______ _____ _____    ______ ____
ROOT
ATOM      1  C   UNL     1      -0.236  -0.579   0.369  0.00  0.00    +0.000 C 
ATOM      2  C   UNL     1       0.359   0.545  -0.506  0.00  0.00    +0.000 C 
ATOM      3  O   UNL     1       1.722   0.744  -0.180  0.00  0.00    +0.000 OA
ATOM      4  C   UNL     1       1.856   1.234   1.144  0.00  0.00    +0.000 C 
ATOM      5  C   UNL     1       1.379   0.171   2.159  0.00  0.00    +0.000 C 
ATOM      6  C   UNL     1      -0.081  -0.217   1.855  0.00  0.00    +0.000 C 
ENDROOT
BRANCH   1   8
ATOM      7  C   UNL     1      -2.212  -2.035  -0.361  0.00  0.00    +0.000 C 
ATOM      8  N   UNL     1      -1.655  -0.767   0.049  0.00  0.00    +0.000 N 
ATOM      9  H   UNL     1      -2.276   0.069   0.123  0.00  0.00    +0.000 HD
ATOM     10  N   UNL     1      -3.245  -2.086  -1.175  0.00  0.00    +0.000 N 
ATOM     11  C   UNL     1      -3.844  -0.866  -1.725  0.00  0.00    +0.000 C 
BRANCH   7  13
ATOM     12  H   UNL     1      -0.924  -3.224   0.833  0.00  0.00    +0.000 HD
ATOM     13  O   UNL     1      -1.648  -3.216   0.128  0.00  0.00    +0.000 OA
ENDBRANCH   7  13
BRANCH  10  14
ATOM     14  N   UNL     1      -3.844  -3.304  -1.564  0.00  0.00    +0.000 NA
ATOM     15  O   UNL     1      -3.458  -4.419  -1.153  0.00  0.00    +0.000 OA
ENDBRANCH  10  14
ENDBRANCH   1   8
BRANCH   2  16
ATOM     16  O   UNL     1       0.287   0.172  -1.858  0.00  0.00    +0.000 OA
ATOM     17  H   UNL     1      -0.625   0.401  -2.177  0.00  0.00    +0.000 HD
ENDBRANCH   2  16
BRANCH   5  18
ATOM     18  O   UNL     1       1.468   0.690   3.463  0.00  0.00    +0.000 OA
ATOM     19  H   UNL     1       1.562  -0.085   4.077  0.00  0.00    +0.000 HD
ENDBRANCH   5  18
BRANCH   6  20
ATOM     20  O   UNL     1      -0.460  -1.316   2.644  0.00  0.00    +0.000 OA
ATOM     21  H   UNL     1      -0.741  -0.957   3.526  0.00  0.00    +0.000 HD
ENDBRANCH   6  20
BRANCH   4  22
ATOM     22  C   UNL     1       3.331   1.591   1.385  0.00  0.00    +0.000 C 
BRANCH  22  23
ATOM     23  O   UNL     1       3.738   2.604   0.505  0.00  0.00    +0.000 OA
ATOM     24  H   UNL     1       3.960   2.164  -0.357  0.00  0.00    +0.000 HD
ENDBRANCH  22  23
ENDBRANCH   4  22
TORSDOF 8
