REMARK  Name = 6713972
REMARK  9 active torsions:
REMARK  status: ('A' for Active; 'I' for Inactive)
REMARK    1  A    between atoms: O_2  and  C_3
REMARK    2  A    between atoms: N_4  and  C_6
REMARK    3  A    between atoms: C_8  and  O_10
REMARK    4  A    between atoms: C_13  and  C_15
REMARK    5  A    between atoms: C_15  and  O_18
REMARK    6  A    between atoms: C_20  and  O_22
REMARK    7  A    between atoms: C_24  and  O_26
REMARK    8  A    between atoms: N_28  and  N_29
REMARK    9  A    between atoms: N_28  and  C_31
REMARK                            x       y       z     vdW  Elec       q    Type
REMARK                         _______ _______ _______ _____ _____    ______ ____
ROOT
ATOM      1  C   UNL     1      -0.001  -0.562   0.282  0.00  0.00    +0.000 C 
ATOM      2  C   UNL     1      -1.358   0.088   0.640  0.00  0.00    +0.000 C 
ATOM      3  O   UNL     1      -2.328  -0.164  -0.365  0.00  0.00    +0.000 OA
ATOM      4  C   UNL     1      -1.952   0.401  -1.613  0.00  0.00    +0.000 C 
ATOM      5  C   UNL     1      -0.649  -0.248  -2.134  0.00  0.00    +0.000 C 
ATOM      6  C   UNL     1       0.480  -0.076  -1.100  0.00  0.00    +0.000 C 
ENDROOT
BRANCH   1   8
ATOM      7  C   UNL     1       2.405  -0.594   1.183  0.00  0.00    +0.000 C 
ATOM      8  N   UNL     1       1.003  -0.296   1.327  0.00  0.00    +0.000 N 
ATOM      9  H   UNL     1       0.749   0.344   2.113  0.00  0.00    +0.000 HD
ATOM     10  N   UNL     1       2.825  -1.780   0.820  0.00  0.00    +0.000 N 
ATOM     11  C   UNL     1       4.263  -2.036   0.653  0.00  0.00    +0.000 C 
BRANCH   7  13
ATOM     12  H   UNL     1       3.018   1.339   1.745  0.00  0.00    +0.000 HD
ATOM     13  O   UNL     1       3.326   0.416   1.466  0.00  0.00    +0.000 OA
ENDBRANCH   7  13
BRANCH  10  14
ATOM     14  N   UNL     1       1.911  -2.847   0.726  0.00  0.00    +0.000 NA
ATOM     15  O   UNL     1       2.282  -4.012   0.473  0.00  0.00    +0.000 OA
ENDBRANCH  10  14
ENDBRANCH   1   8
BRANCH   2  16
ATOM     16  O   UNL     1      -1.219   1.468   0.876  0.00  0.00    +0.000 OA
ATOM     17  H   UNL     1      -2.099   1.785   1.208  0.00  0.00    +0.000 HD
ENDBRANCH   2  16
BRANCH   5  18
ATOM     18  O   UNL     1      -0.276   0.334  -3.357  0.00  0.00    +0.000 OA
ATOM     19  H   UNL     1       0.393  -0.272  -3.770  0.00  0.00    +0.000 HD
ENDBRANCH   5  18
BRANCH   6  20
ATOM     20  O   UNL     1       0.877   1.272  -1.022  0.00  0.00    +0.000 OA
ATOM     21  H   UNL     1       1.530   1.425  -1.754  0.00  0.00    +0.000 HD
ENDBRANCH   6  20
BRANCH   4  22
ATOM     22  C   UNL     1      -3.101   0.183  -2.609  0.00  0.00    +0.000 C 
BRANCH  22  23
ATOM     23  O   UNL     1      -4.262   0.832  -2.165  0.00  0.00    +0.000 OA
ATOM     24  H   UNL     1      -4.692   0.230  -1.503  0.00  0.00    +0.000 HD
ENDBRANCH  22  23
ENDBRANCH   4  22
TORSDOF 8
