REMARK  Name = 6971258
REMARK  8 active torsions:
REMARK  status: ('A' for Active; 'I' for Inactive)
REMARK    1  A    between atoms: O_2  and  C_3
REMARK    2  A    between atoms: C_3  and  C_27
REMARK    3  A    between atoms: N_4  and  C_5
REMARK    4  A    between atoms: C_7  and  O_9
REMARK    5  A    between atoms: C_12  and  C_14
REMARK    6  A    between atoms: C_14  and  O_17
REMARK    7  A    between atoms: C_19  and  O_21
REMARK    8  A    between atoms: C_23  and  O_25
REMARK                            x       y       z     vdW  Elec       q    Type
REMARK                         _______ _______ _______ _____ _____    ______ ____
ROOT
ATOM      1  C   UNL     1       0.382  -1.381   0.615  0.00  0.00    +0.000 C 
ATOM      2  C   UNL     1       1.117  -0.624  -0.508  0.00  0.00    +0.000 C 
ATOM      3  O   UNL     1       0.259   0.297  -1.168  0.00  0.00    +0.000 OA
ATOM      4  C   UNL     1      -0.235   1.306  -0.293  0.00  0.00    +0.000 C 
ATOM      5  C   UNL     1      -0.996   0.710   0.918  0.00  0.00    +0.000 C 
ATOM      6  C   UNL     1      -0.152  -0.358   1.637  0.00  0.00    +0.000 C 
ENDROOT
BRANCH   1   8
ATOM      7  C   UNL     1      -1.195  -3.260   0.557  0.00  0.00    +0.000 C 
ATOM      8  N   UNL     1      -0.715  -2.168   0.040  0.00  0.00    +0.000 NA
ATOM      9  C   UNL     1      -2.338  -3.950  -0.114  0.00  0.00    +0.000 C 
BRANCH   7  11
ATOM     10  H   UNL     1      -1.049  -4.620   2.157  0.00  0.00    +0.000 HD
ATOM     11  O   UNL     1      -0.670  -3.779   1.740  0.00  0.00    +0.000 OA
ENDBRANCH   7  11
ENDBRANCH   1   8
BRANCH   2  12
ATOM     12  O   UNL     1       1.638  -1.536  -1.441  0.00  0.00    +0.000 OA
ATOM     13  H   UNL     1       0.885  -1.846  -2.009  0.00  0.00    +0.000 HD
ENDBRANCH   2  12
BRANCH   5  14
ATOM     14  O   UNL     1      -1.354   1.733   1.813  0.00  0.00    +0.000 OA
ATOM     15  H   UNL     1      -2.105   1.387   2.363  0.00  0.00    +0.000 HD
ENDBRANCH   5  14
BRANCH   6  16
ATOM     16  O   UNL     1      -0.933  -0.994   2.616  0.00  0.00    +0.000 OA
ATOM     17  H   UNL     1      -0.302  -1.450   3.233  0.00  0.00    +0.000 HD
ENDBRANCH   6  16
BRANCH   4  18
ATOM     18  C   UNL     1       0.853   2.337   0.090  0.00  0.00    +0.000 C 
BRANCH  18  19
ATOM     19  O   UNL     1       1.588   2.721  -1.040  0.00  0.00    +0.000 OA
ATOM     20  H   UNL     1       0.998   3.315  -1.575  0.00  0.00    +0.000 HD
ENDBRANCH  18  19
ENDBRANCH   4  18
TORSDOF 7
