REMARK  Name = 5462244
REMARK  11 active torsions:
REMARK  status: ('A' for Active; 'I' for Inactive)
REMARK    1  A    between atoms: C_1  and  C_2
REMARK    2  A    between atoms: C_2  and  O_3
REMARK    3  A    between atoms: N_4  and  C_5
REMARK    4  A    between atoms: C_6  and  O_7
REMARK    5  A    between atoms: C_9  and  C_10
REMARK    6  A    between atoms: C_10  and  O_11
REMARK    7  A    between atoms: C_12  and  O_13
REMARK    8  A    between atoms: C_14  and  O_15
REMARK    9  A    between atoms: O_15  and  C_16
REMARK   10  A    between atoms: C_16  and  C_17
REMARK   11  A    between atoms: C_16  and  C_18
REMARK                            x       y       z     vdW  Elec       q    Type
REMARK                         _______ _______ _______ _____ _____    ______ ____
ROOT
ATOM      1  C   UNL     1       0.482   0.867   0.056  0.00  0.00    +0.000 C 
ATOM      2  C   UNL     1       1.975   0.799   0.441  0.00  0.00    +0.000 C 
ATOM      3  O   UNL     1       2.677  -0.016  -0.479  0.00  0.00    +0.000 OA
ATOM      4  C   UNL     1       2.244  -1.363  -0.393  0.00  0.00    +0.000 C 
ATOM      5  C   UNL     1       0.764  -1.476  -0.834  0.00  0.00    +0.000 C 
ATOM      6  C   UNL     1      -0.113  -0.554   0.035  0.00  0.00    +0.000 C 
ENDROOT
BRANCH   1   9
ATOM      7  C   UNL     1      -0.404   3.695  -0.371  0.00  0.00    +0.000 C 
ATOM      8  C   UNL     1      -0.643   2.914   0.892  0.00  0.00    +0.000 C 
ATOM      9  N   UNL     1      -0.251   1.680   1.033  0.00  0.00    +0.000 NA
BRANCH   8  10
ATOM     10  O   UNL     1      -1.327   3.513   1.946  0.00  0.00    +0.000 OA
ATOM     11  H   UNL     1      -1.667   4.466   1.887  0.00  0.00    +0.000 HD
ENDBRANCH   8  10
ENDBRANCH   1   9
BRANCH   2  12
ATOM     12  O   UNL     1       2.536   2.084   0.396  0.00  0.00    +0.000 OA
ATOM     13  H   UNL     1       2.333   2.524   1.263  0.00  0.00    +0.000 HD
ENDBRANCH   2  12
BRANCH   5  14
ATOM     14  O   UNL     1       0.325  -2.803  -0.698  0.00  0.00    +0.000 OA
ATOM     15  H   UNL     1      -0.460  -2.910  -1.296  0.00  0.00    +0.000 HD
ENDBRANCH   5  14
BRANCH   4  16
ATOM     16  C   UNL     1       3.163  -2.212  -1.288  0.00  0.00    +0.000 C 
BRANCH  16  17
ATOM     17  O   UNL     1       2.922  -3.582  -1.115  0.00  0.00    +0.000 OA
ATOM     18  H   UNL     1       3.325  -3.835  -0.244  0.00  0.00    +0.000 HD
ENDBRANCH  16  17
ENDBRANCH   4  16
BRANCH   6  19
ATOM     19  O   UNL     1      -1.416  -0.510  -0.529  0.00  0.00    +0.000 OA
BRANCH  19  20
ATOM     20  C   UNL     1      -2.434  -0.592   0.455  0.00  0.00    +0.000 C 
ATOM     21  C   UNL     1      -2.811  -2.055   0.700  0.00  0.00    +0.000 C 
BRANCH  20  22
ATOM     22  C   UNL     1      -3.633   0.164  -0.033  0.00  0.00    +0.000 C 
ATOM     23  O   UNL     1      -4.053   0.001  -1.210  0.00  0.00    +0.000 OA
ATOM     24  O   UNL     1      -4.307   1.026   0.822  0.00  0.00    +0.000 OA
ENDBRANCH  20  22
ENDBRANCH  19  20
ENDBRANCH   6  19
TORSDOF 9
