REMARK  Name = 5317448
REMARK  6 active torsions:
REMARK  status: ('A' for Active; 'I' for Inactive)
REMARK    1  A    between atoms: N_1  and  C_2
REMARK    2  A    between atoms: C_3  and  O_4
REMARK    3  A    between atoms: C_6  and  C_7
REMARK    4  A    between atoms: C_7  and  O_8
REMARK    5  A    between atoms: C_9  and  O_10
REMARK    6  A    between atoms: C_11  and  O_12
REMARK                            x       y       z     vdW  Elec       q    Type
REMARK                         _______ _______ _______ _____ _____    ______ ____
ROOT
ATOM      1  C   UNL     1      -1.263   0.839   0.047  0.00  0.00    +0.000 C 
ATOM      2  C   UNL     1      -0.164   1.098   1.109  0.00  0.00    +0.000 C 
ATOM      3  O   UNL     1       0.226   2.463   1.127  0.00  0.00    +0.000 OA
ATOM      4  C   UNL     1       0.796   2.860  -0.112  0.00  0.00    +0.000 C 
ATOM      5  C   UNL     1      -0.238   2.761  -1.260  0.00  0.00    +0.000 C 
ATOM      6  C   UNL     1      -0.800   1.327  -1.343  0.00  0.00    +0.000 C 
ENDROOT
BRANCH   1   7
ATOM      7  N   UNL     1      -1.641  -0.580   0.007  0.00  0.00    +0.000 N 
ATOM      8  H   UNL     1      -2.469  -0.708  -0.620  0.00  0.00    +0.000 HD
ATOM      9  H   UNL     1      -1.907  -0.905   0.965  0.00  0.00    +0.000 HD
ATOM     10  H   UNL     1      -0.853  -1.168  -0.350  0.00  0.00    +0.000 HD
ENDBRANCH   1   7
BRANCH   2  11
ATOM     11  O   UNL     1       0.958   0.268   0.911  0.00  0.00    +0.000 OA
ATOM     12  H   UNL     1       0.782  -0.585   1.388  0.00  0.00    +0.000 HD
ENDBRANCH   2  11
BRANCH   5  13
ATOM     13  O   UNL     1      -1.273   3.708  -1.125  0.00  0.00    +0.000 OA
ATOM     14  H   UNL     1      -1.663   3.617  -0.218  0.00  0.00    +0.000 HD
ENDBRANCH   5  13
BRANCH   6  15
ATOM     15  O   UNL     1      -1.876   1.279  -2.245  0.00  0.00    +0.000 OA
ATOM     16  H   UNL     1      -1.488   1.346  -3.156  0.00  0.00    +0.000 HD
ENDBRANCH   6  15
BRANCH   4  17
ATOM     17  C   UNL     1       1.336   4.292   0.022  0.00  0.00    +0.000 C 
BRANCH  17  18
ATOM     18  O   UNL     1       2.331   4.348   1.008  0.00  0.00    +0.000 OA
ATOM     19  H   UNL     1       3.153   3.962   0.606  0.00  0.00    +0.000 HD
ENDBRANCH  17  18
ENDBRANCH   4  17
TORSDOF 6
