REMARK  Name = 5284365
REMARK  10 active torsions:
REMARK  status: ('A' for Active; 'I' for Inactive)
REMARK    1  A    between atoms: O_2  and  C_3
REMARK    2  A    between atoms: N_4  and  C_5
REMARK    3  A    between atoms: C_7  and  O_9
REMARK    4  A    between atoms: C_12  and  C_14
REMARK    5  A    between atoms: C_14  and  O_17
REMARK    6  A    between atoms: C_19  and  O_21
REMARK    7  A    between atoms: C_23  and  O_25
REMARK    8  A    between atoms: N_27  and  N_28
REMARK    9  A    between atoms: N_27  and  C_30
REMARK   10  A    between atoms: C_30  and  C_33
REMARK                            x       y       z     vdW  Elec       q    Type
REMARK                         _______ _______ _______ _____ _____    ______ ____
ROOT
ATOM      1  C   UNL     1       0.303  -0.339  -0.255  0.00  0.00    +0.000 C 
ATOM      2  C   UNL     1      -1.081   0.156   0.222  0.00  0.00    +0.000 C 
ATOM      3  O   UNL     1      -1.231   1.551   0.002  0.00  0.00    +0.000 OA
ATOM      4  C   UNL     1      -0.276   2.304   0.735  0.00  0.00    +0.000 C 
ATOM      5  C   UNL     1       1.163   1.966   0.280  0.00  0.00    +0.000 C 
ATOM      6  C   UNL     1       1.416   0.459   0.445  0.00  0.00    +0.000 C 
ENDROOT
BRANCH   1   8
ATOM      7  C   UNL     1      -0.058  -2.767  -0.598  0.00  0.00    +0.000 C 
ATOM      8  N   UNL     1       0.467  -1.763   0.046  0.00  0.00    +0.000 NA
ATOM      9  N   UNL     1       0.173  -4.115  -0.132  0.00  0.00    +0.000 N 
BRANCH   7  11
ATOM     10  H   UNL     1      -1.044  -1.664  -2.138  0.00  0.00    +0.000 HD
ATOM     11  O   UNL     1      -0.858  -2.570  -1.729  0.00  0.00    +0.000 OA
ENDBRANCH   7  11
BRANCH   9  12
ATOM     12  N   UNL     1       1.190  -4.423   0.793  0.00  0.00    +0.000 NA
ATOM     13  O   UNL     1       2.063  -3.595   1.124  0.00  0.00    +0.000 OA
ENDBRANCH   9  12
BRANCH   9  14
ATOM     14  C   UNL     1      -0.719  -5.203  -0.541  0.00  0.00    +0.000 C 
BRANCH  14  15
ATOM     15  C   UNL     1      -1.827  -5.415   0.491  0.00  0.00    +0.000 C 
ATOM     16 CL   UNL     1      -2.950  -4.030   0.532  0.00  0.00    +0.000 Cl
ENDBRANCH  14  15
ENDBRANCH   9  14
ENDBRANCH   1   8
BRANCH   2  17
ATOM     17  O   UNL     1      -1.293  -0.173   1.573  0.00  0.00    +0.000 OA
ATOM     18  H   UNL     1      -2.233   0.070   1.776  0.00  0.00    +0.000 HD
ENDBRANCH   2  17
BRANCH   5  19
ATOM     19  O   UNL     1       2.085   2.687   1.057  0.00  0.00    +0.000 OA
ATOM     20  H   UNL     1       2.930   2.728   0.538  0.00  0.00    +0.000 HD
ENDBRANCH   5  19
BRANCH   6  21
ATOM     21  O   UNL     1       2.663   0.136  -0.117  0.00  0.00    +0.000 OA
ATOM     22  H   UNL     1       2.959  -0.713   0.303  0.00  0.00    +0.000 HD
ENDBRANCH   6  21
BRANCH   4  23
ATOM     23  C   UNL     1      -0.586   3.795   0.545  0.00  0.00    +0.000 C 
BRANCH  23  24
ATOM     24  O   UNL     1      -0.531   4.138  -0.813  0.00  0.00    +0.000 OA
ATOM     25  H   UNL     1      -0.738   5.107  -0.861  0.00  0.00    +0.000 HD
ENDBRANCH  23  24
ENDBRANCH   4  23
TORSDOF 10
