134695375
 OpenBabel03032110343D

 34 34  0  0  0  0  0  0  0  0999 V2000
    6.0858   -1.6817    1.1869 H   0  0  0  0  0  0  0  0  0  0  0  0
    5.4111   -1.2848    0.5456 O   0  0  0  0  0  0  0  0  0  0  0  0
    4.2583   -0.7069    1.0296 N   0  0  0  0  0  0  0  0  0  0  0  0
    3.3771   -0.1930    0.2606 N   0  3  0  0  0  0  0  0  0  0  0  0
    2.1818    0.3453    0.8571 C   0  0  0  0  0  0  0  0  0  0  0  0
    2.1828    0.6421    2.0840 O   0  0  0  0  0  0  0  0  0  0  0  0
    0.9838    0.5311    0.0826 N   0  0  0  0  0  0  0  0  0  0  0  0
    0.9559    0.1883   -0.9034 H   0  0  0  0  0  0  0  0  0  0  0  0
   -0.2285    1.1340    0.6523 C   0  0  1  0  0  0  0  0  0  0  0  0
    0.0691    1.9929    1.2949 H   0  0  0  0  0  0  0  0  0  0  0  0
   -1.1484    1.6792   -0.4677 C   0  0  1  0  0  0  0  0  0  0  0  0
   -1.9933    2.2537   -0.0138 H   0  0  0  0  0  0  0  0  0  0  0  0
   -0.4238    2.5473   -1.2987 O   0  0  0  0  0  0  0  0  0  0  0  0
   -0.2686    3.3802   -0.7806 H   0  0  0  0  0  0  0  0  0  0  0  0
   -1.6540    0.6185   -1.2602 O   0  0  0  0  0  0  0  0  0  0  0  0
   -2.5075   -0.2122   -0.4902 C   0  0  1  0  0  0  0  0  0  0  0  0
   -3.3172    0.3907   -0.0146 H   0  0  0  0  0  0  0  0  0  0  0  0
   -3.1981   -1.2198   -1.4208 C   0  0  0  0  0  0  0  0  0  0  0  0
   -3.8333   -1.9195   -0.8304 H   0  0  0  0  0  0  0  0  0  0  0  0
   -2.4351   -1.8237   -1.9566 H   0  0  0  0  0  0  0  0  0  0  0  0
   -3.9779   -0.5495   -2.3741 O   0  0  0  0  0  0  0  0  0  0  0  0
   -4.8026   -0.2513   -1.9086 H   0  0  0  0  0  0  0  0  0  0  0  0
   -1.7055   -0.9365    0.6155 C   0  0  1  0  0  0  0  0  0  0  0  0
   -2.4158   -1.5282    1.2404 H   0  0  0  0  0  0  0  0  0  0  0  0
   -0.7613   -1.8014    0.0349 O   0  0  0  0  0  0  0  0  0  0  0  0
   -0.4736   -2.4319    0.7457 H   0  0  0  0  0  0  0  0  0  0  0  0
   -0.9955    0.1001    1.5102 C   0  0  2  0  0  0  0  0  0  0  0  0
   -0.2843   -0.4401    2.1779 H   0  0  0  0  0  0  0  0  0  0  0  0
   -1.9531    0.7536    2.3048 O   0  0  0  0  0  0  0  0  0  0  0  0
   -1.4606    1.1932    3.0465 H   0  0  0  0  0  0  0  0  0  0  0  0
    3.5480   -0.2040   -1.1979 C   0  0  0  0  0  0  0  0  0  0  0  0
    3.1013    0.7082   -1.6474 H   0  0  0  0  0  0  0  0  0  0  0  0
    4.6217   -0.1997   -1.4801 H   0  0  0  0  0  0  0  0  0  0  0  0
    3.0615   -1.1062   -1.6244 H   0  0  0  0  0  0  0  0  0  0  0  0
  1  2  1  0  0  0  0
  2  3  1  0  0  0  0
  3  4  2  0  0  0  0
  4  5  1  0  0  0  0
  4 31  1  0  0  0  0
  5  6  2  0  0  0  0
  5  7  1  0  0  0  0
  7  8  1  0  0  0  0
  7  9  1  0  0  0  0
  9 10  1  1  0  0  0
  9 11  1  0  0  0  0
 11 12  1  1  0  0  0
 11 13  1  0  0  0  0
 11 15  1  0  0  0  0
 13 14  1  0  0  0  0
 15 16  1  0  0  0  0
 16 17  1  1  0  0  0
 16 18  1  0  0  0  0
 16 23  1  0  0  0  0
 18 19  1  0  0  0  0
 18 20  1  0  0  0  0
 18 21  1  0  0  0  0
 21 22  1  0  0  0  0
 23 24  1  1  0  0  0
 23 25  1  0  0  0  0
 23 27  1  0  0  0  0
 25 26  1  0  0  0  0
 27 28  1  1  0  0  0
 27 29  1  0  0  0  0
 27  9  1  0  0  0  0
 29 30  1  0  0  0  0
 31 32  1  0  0  0  0
 31 33  1  0  0  0  0
 31 34  1  0  0  0  0
M  CHG  1   4   1
M  END
>  <UniqueID>
1

>  <SMILES>
C/[N+](=N/O)C(=O)N[C@H]1[C@@H](O)O[C@@H](CO)[C@@H](O)[C@@H]1O

>  <Energy>
31.12169096502958

>  <Genealogy>
C[NH+](N=O)C(=O)N[C@H]1[C@@H](O)OC(CO)C(O)[C@@H]1O (protonated)
C[N+](=NO)C(=O)N[C@H]1[C@@H](O)OC(CO)C(O)[C@@H]1O (tautomer)
C[N+](=NO)C(=O)N[C@H]1[C@@H](O)O[C@@H](CO)[C@@H](O)[C@@H]1O (chirality)
C/[N+](=N/O)C(=O)N[C@H]1[C@@H](O)O[C@@H](CO)[C@@H](O)[C@@H]1O (cis-trans isomerization)
C/[N+](=N/O)C(=O)N[C@H]1[C@@H](O)O[C@@H](CO)[C@@H](O)[C@@H]1O (3D coordinates assigned)
C/[N+](=N/O)C(=O)N[C@H]1[C@@H](O)O[C@@H](CO)[C@@H](O)[C@@H]1O (nonaromatic ring conformer: 31.12169096502958 kcal/mol)

$$$$
134695375
 OpenBabel03032110343D

 34 34  0  0  0  0  0  0  0  0999 V2000
    6.5657    1.4727    1.5439 H   0  0  0  0  0  0  0  0  0  0  0  0
    5.9184    0.8189    1.1225 O   0  0  0  0  0  0  0  0  0  0  0  0
    4.5681    1.0906    1.1216 N   0  0  0  0  0  0  0  0  0  0  0  0
    3.7133    0.2963    0.6020 N   0  3  0  0  0  0  0  0  0  0  0  0
    2.3184    0.6417    0.6882 C   0  0  0  0  0  0  0  0  0  0  0  0
    1.9889    1.8401    0.9077 O   0  0  0  0  0  0  0  0  0  0  0  0
    1.2970   -0.3607    0.5468 N   0  0  0  0  0  0  0  0  0  0  0  0
    1.5702   -1.3689    0.5606 H   0  0  0  0  0  0  0  0  0  0  0  0
   -0.1268   -0.0104    0.4590 C   0  0  1  0  0  0  0  0  0  0  0  0
   -0.3659    0.6991    1.2839 H   0  0  0  0  0  0  0  0  0  0  0  0
   -0.4636    0.6801   -0.9044 C   0  0  1  0  0  0  0  0  0  0  0  0
   -0.3932    1.7813   -0.7630 H   0  0  0  0  0  0  0  0  0  0  0  0
    0.4769    0.3328   -1.8877 O   0  0  0  0  0  0  0  0  0  0  0  0
    0.3405   -0.6297   -2.0901 H   0  0  0  0  0  0  0  0  0  0  0  0
   -1.7663    0.3720   -1.3932 O   0  0  0  0  0  0  0  0  0  0  0  0
   -2.7176    0.3732   -0.3455 C   0  0  1  0  0  0  0  0  0  0  0  0
   -2.5878    1.2806    0.2934 H   0  0  0  0  0  0  0  0  0  0  0  0
   -4.1318    0.4679   -0.9380 C   0  0  0  0  0  0  0  0  0  0  0  0
   -4.3137   -0.3620   -1.6590 H   0  0  0  0  0  0  0  0  0  0  0  0
   -4.8793    0.3823   -0.1205 H   0  0  0  0  0  0  0  0  0  0  0  0
   -4.3144    1.7066   -1.5697 O   0  0  0  0  0  0  0  0  0  0  0  0
   -3.8748    1.6426   -2.4575 H   0  0  0  0  0  0  0  0  0  0  0  0
   -2.5224   -0.8876    0.5439 C   0  0  1  0  0  0  0  0  0  0  0  0
   -2.9078   -0.6432    1.5635 H   0  0  0  0  0  0  0  0  0  0  0  0
   -3.2148   -1.9945    0.0184 O   0  0  0  0  0  0  0  0  0  0  0  0
   -4.1098   -2.0141    0.4479 H   0  0  0  0  0  0  0  0  0  0  0  0
   -1.0203   -1.2558    0.6475 C   0  0  2  0  0  0  0  0  0  0  0  0
   -0.7730   -1.9682   -0.1718 H   0  0  0  0  0  0  0  0  0  0  0  0
   -0.7489   -1.9023    1.8670 O   0  0  0  0  0  0  0  0  0  0  0  0
   -0.8871   -1.2422    2.5958 H   0  0  0  0  0  0  0  0  0  0  0  0
    4.1353   -0.9657   -0.0186 C   0  0  0  0  0  0  0  0  0  0  0  0
    5.1491   -0.8763   -0.4623 H   0  0  0  0  0  0  0  0  0  0  0  0
    4.1381   -1.7739    0.7425 H   0  0  0  0  0  0  0  0  0  0  0  0
    3.4502   -1.2394   -0.8490 H   0  0  0  0  0  0  0  0  0  0  0  0
  1  2  1  0  0  0  0
  2  3  1  0  0  0  0
  3  4  2  0  0  0  0
  4  5  1  0  0  0  0
  4 31  1  0  0  0  0
  5  6  2  0  0  0  0
  5  7  1  0  0  0  0
  7  8  1  0  0  0  0
  7  9  1  0  0  0  0
  9 10  1  1  0  0  0
  9 11  1  0  0  0  0
 11 12  1  1  0  0  0
 11 13  1  0  0  0  0
 11 15  1  0  0  0  0
 13 14  1  0  0  0  0
 15 16  1  0  0  0  0
 16 17  1  1  0  0  0
 16 18  1  0  0  0  0
 16 23  1  0  0  0  0
 18 19  1  0  0  0  0
 18 20  1  0  0  0  0
 18 21  1  0  0  0  0
 21 22  1  0  0  0  0
 23 24  1  1  0  0  0
 23 25  1  0  0  0  0
 23 27  1  0  0  0  0
 25 26  1  0  0  0  0
 27 28  1  6  0  0  0
 27 29  1  0  0  0  0
 27  9  1  0  0  0  0
 29 30  1  0  0  0  0
 31 32  1  0  0  0  0
 31 33  1  0  0  0  0
 31 34  1  0  0  0  0
M  CHG  1   4   1
M  END
>  <UniqueID>
2

>  <SMILES>
C/[N+](=N/O)C(=O)N[C@H]1[C@@H](O)O[C@@H](CO)[C@@H](O)[C@@H]1O

>  <Energy>
40.92309084294866

>  <Genealogy>
C[NH+](N=O)C(=O)N[C@H]1[C@@H](O)OC(CO)C(O)[C@@H]1O (protonated)
C[N+](=NO)C(=O)N[C@H]1[C@@H](O)OC(CO)C(O)[C@@H]1O (tautomer)
C[N+](=NO)C(=O)N[C@H]1[C@@H](O)O[C@@H](CO)[C@@H](O)[C@@H]1O (chirality)
C/[N+](=N/O)C(=O)N[C@H]1[C@@H](O)O[C@@H](CO)[C@@H](O)[C@@H]1O (cis-trans isomerization)
C/[N+](=N/O)C(=O)N[C@H]1[C@@H](O)O[C@@H](CO)[C@@H](O)[C@@H]1O (3D coordinates assigned)
C/[N+](=N/O)C(=O)N[C@H]1[C@@H](O)O[C@@H](CO)[C@@H](O)[C@@H]1O (nonaromatic ring conformer: 40.92309084294866 kcal/mol)

$$$$
129878031
 OpenBabel03032110343D

 36 36  0  0  0  0  0  0  0  0999 V2000
   -3.4318   -0.5464    1.1164 H   0  0  0  0  0  0  0  0  0  0  0  0
   -2.7675   -1.2610    1.3880 O   0  0  0  0  0  0  0  0  0  0  0  0
   -1.4496   -1.2334    0.9332 C   0  0  0  0  0  0  0  0  0  0  0  0
   -0.6025   -2.2031    1.3182 C   0  0  0  0  0  0  0  0  0  0  0  0
    0.4276   -2.2025    0.9918 H   0  0  0  0  0  0  0  0  0  0  0  0
   -1.0242   -3.3341    2.2146 C   0  0  0  0  0  0  0  0  0  0  0  0
   -1.9896   -3.7628    1.8684 H   0  0  0  0  0  0  0  0  0  0  0  0
   -0.2593   -4.1385    2.1602 H   0  0  0  0  0  0  0  0  0  0  0  0
   -1.1424   -2.8767    3.6660 C   0  0  0  0  0  0  0  0  0  0  0  0
   -1.4111   -3.7429    4.3066 H   0  0  0  0  0  0  0  0  0  0  0  0
   -1.9314   -2.1029    3.7717 H   0  0  0  0  0  0  0  0  0  0  0  0
   -0.1738   -2.4615    4.0181 H   0  0  0  0  0  0  0  0  0  0  0  0
   -1.0395   -0.1508    0.0738 N   0  0  0  0  0  0  0  0  0  0  0  0
   -1.6613    0.6880    0.0555 H   0  0  0  0  0  0  0  0  0  0  0  0
    0.2177   -0.1056   -0.6900 C   0  0  2  0  0  0  0  0  0  0  0  0
    0.5296   -1.1404   -0.9486 H   0  0  0  0  0  0  0  0  0  0  0  0
    1.3202    0.5660    0.1727 C   0  0  1  0  0  0  0  0  0  0  0  0
    1.2307    0.1433    1.1956 H   0  0  0  0  0  0  0  0  0  0  0  0
    2.6323    0.2661   -0.2477 O   0  0  0  0  0  0  0  0  0  0  0  0
    2.6553    0.2237   -1.2365 H   0  0  0  0  0  0  0  0  0  0  0  0
    1.1257    1.9656    0.3032 O   0  0  0  0  0  0  0  0  0  0  0  0
    1.1471    2.6293   -0.9506 C   0  0  2  0  0  0  0  0  0  0  0  0
    2.1054    2.4368   -1.4846 H   0  0  0  0  0  0  0  0  0  0  0  0
    1.0778    4.1430   -0.6958 C   0  0  0  0  0  0  0  0  0  0  0  0
    0.1338    4.4053   -0.1638 H   0  0  0  0  0  0  0  0  0  0  0  0
    1.0823    4.6888   -1.6630 H   0  0  0  0  0  0  0  0  0  0  0  0
    2.1919    4.5654    0.0443 O   0  0  0  0  0  0  0  0  0  0  0  0
    1.9928    4.3735    0.9978 H   0  0  0  0  0  0  0  0  0  0  0  0
   -0.0381    2.1731   -1.8295 C   0  0  1  0  0  0  0  0  0  0  0  0
   -0.9862    2.4500   -1.3116 H   0  0  0  0  0  0  0  0  0  0  0  0
    0.0270    2.8129   -3.0789 O   0  0  0  0  0  0  0  0  0  0  0  0
   -0.8815    2.7622   -3.4760 H   0  0  0  0  0  0  0  0  0  0  0  0
    0.0294    0.6444   -2.0308 C   0  0  2  0  0  0  0  0  0  0  0  0
    0.9169    0.4332   -2.6664 H   0  0  0  0  0  0  0  0  0  0  0  0
   -1.0883    0.1571   -2.7347 O   0  0  0  0  0  0  0  0  0  0  0  0
   -1.9082    0.5037   -2.2968 H   0  0  0  0  0  0  0  0  0  0  0  0
  1  2  1  0  0  0  0
  2  3  1  0  0  0  0
  3  4  2  0  0  0  0
  3 13  1  0  0  0  0
  4  5  1  0  0  0  0
  4  6  1  0  0  0  0
  6  7  1  0  0  0  0
  6  8  1  0  0  0  0
  6  9  1  0  0  0  0
  9 10  1  0  0  0  0
  9 11  1  0  0  0  0
  9 12  1  0  0  0  0
 13 14  1  0  0  0  0
 13 15  1  0  0  0  0
 15 16  1  6  0  0  0
 15 17  1  0  0  0  0
 17 18  1  1  0  0  0
 17 19  1  0  0  0  0
 17 21  1  0  0  0  0
 19 20  1  0  0  0  0
 21 22  1  0  0  0  0
 22 23  1  6  0  0  0
 22 24  1  0  0  0  0
 22 29  1  0  0  0  0
 24 25  1  0  0  0  0
 24 26  1  0  0  0  0
 24 27  1  0  0  0  0
 27 28  1  0  0  0  0
 29 30  1  1  0  0  0
 29 31  1  0  0  0  0
 29 33  1  0  0  0  0
 31 32  1  0  0  0  0
 33 34  1  6  0  0  0
 33 35  1  0  0  0  0
 33 15  1  0  0  0  0
 35 36  1  0  0  0  0
M  ISO  1  12   2
M  END
>  <UniqueID>
3

>  <SMILES>
[2H]CC/C=C(/O)N[C@@H]1[C@@H](O)O[C@H](CO)[C@@H](O)[C@@H]1O

>  <Energy>
34.93432541755163

>  <Genealogy>
[2H]CCC=C(O)N[C@@H]1C(O)O[C@H](CO)[C@@H](O)[C@@H]1O (tautomer)
[2H]CCC=C(O)N[C@@H]1[C@@H](O)O[C@H](CO)[C@@H](O)[C@@H]1O (chirality)
[2H]CC/C=C(/O)N[C@@H]1[C@@H](O)O[C@H](CO)[C@@H](O)[C@@H]1O (cis-trans isomerization)
[2H]CC/C=C(/O)N[C@@H]1[C@@H](O)O[C@H](CO)[C@@H](O)[C@@H]1O (3D coordinates assigned)
[2H]CC/C=C(/O)N[C@@H]1[C@@H](O)O[C@H](CO)[C@@H](O)[C@@H]1O (nonaromatic ring conformer: 34.93432541755163 kcal/mol)

$$$$
129878031
 OpenBabel03032110343D

 36 36  0  0  0  0  0  0  0  0999 V2000
    2.1859    0.7204    0.0985 H   0  0  0  0  0  0  0  0  0  0  0  0
    2.6201    0.0352   -0.5036 O   0  0  0  0  0  0  0  0  0  0  0  0
    2.0183   -0.4480   -1.6686 C   0  0  0  0  0  0  0  0  0  0  0  0
    2.6881   -1.3115   -2.4437 C   0  0  0  0  0  0  0  0  0  0  0  0
    2.2355   -1.6670   -3.3618 H   0  0  0  0  0  0  0  0  0  0  0  0
    4.0712   -1.7986   -2.1127 C   0  0  0  0  0  0  0  0  0  0  0  0
    4.7244   -0.9439   -1.8324 H   0  0  0  0  0  0  0  0  0  0  0  0
    4.5080   -2.2762   -3.0160 H   0  0  0  0  0  0  0  0  0  0  0  0
    4.0420   -2.8285   -0.9866 C   0  0  0  0  0  0  0  0  0  0  0  0
    3.4009   -3.6904   -1.2706 H   0  0  0  0  0  0  0  0  0  0  0  0
    3.6526   -2.3769   -0.0501 H   0  0  0  0  0  0  0  0  0  0  0  0
    5.0713   -3.1992   -0.7968 H   0  0  0  0  0  0  0  0  0  0  0  0
    0.6949   -0.0280   -2.0548 N   0  0  0  0  0  0  0  0  0  0  0  0
    0.3476   -0.3058   -3.0019 H   0  0  0  0  0  0  0  0  0  0  0  0
   -0.1905    0.7653   -1.1896 C   0  0  2  0  0  0  0  0  0  0  0  0
    0.3683    1.6659   -0.8503 H   0  0  0  0  0  0  0  0  0  0  0  0
   -0.6628   -0.0418    0.0633 C   0  0  2  0  0  0  0  0  0  0  0  0
    0.0185    0.1935    0.9139 H   0  0  0  0  0  0  0  0  0  0  0  0
   -0.5859   -1.4185   -0.1989 O   0  0  0  0  0  0  0  0  0  0  0  0
   -0.7410   -1.8804    0.6661 H   0  0  0  0  0  0  0  0  0  0  0  0
   -1.9991    0.2644    0.4482 O   0  0  0  0  0  0  0  0  0  0  0  0
   -2.2303    1.6606    0.4209 C   0  0  2  0  0  0  0  0  0  0  0  0
   -1.4103    2.1922    0.9625 H   0  0  0  0  0  0  0  0  0  0  0  0
   -3.5287    1.9589    1.1785 C   0  0  0  0  0  0  0  0  0  0  0  0
   -3.4426    1.5597    2.2140 H   0  0  0  0  0  0  0  0  0  0  0  0
   -4.3851    1.4534    0.6775 H   0  0  0  0  0  0  0  0  0  0  0  0
   -3.7512    3.3413    1.2305 O   0  0  0  0  0  0  0  0  0  0  0  0
   -4.6041    3.4643    1.7227 H   0  0  0  0  0  0  0  0  0  0  0  0
   -2.3004    2.1579   -1.0494 C   0  0  1  0  0  0  0  0  0  0  0  0
   -3.3542    2.0959   -1.4130 H   0  0  0  0  0  0  0  0  0  0  0  0
   -1.8739    3.4960   -1.0986 O   0  0  0  0  0  0  0  0  0  0  0  0
   -2.2089    3.8745   -1.9534 H   0  0  0  0  0  0  0  0  0  0  0  0
   -1.4110    1.2857   -1.9737 C   0  0  2  0  0  0  0  0  0  0  0  0
   -1.0437    1.8979   -2.8317 H   0  0  0  0  0  0  0  0  0  0  0  0
   -2.1533    0.1963   -2.4642 O   0  0  0  0  0  0  0  0  0  0  0  0
   -2.7250    0.5450   -3.1973 H   0  0  0  0  0  0  0  0  0  0  0  0
  1  2  1  0  0  0  0
  2  3  1  0  0  0  0
  3  4  2  0  0  0  0
  3 13  1  0  0  0  0
  4  5  1  0  0  0  0
  4  6  1  0  0  0  0
  6  7  1  0  0  0  0
  6  8  1  0  0  0  0
  6  9  1  0  0  0  0
  9 10  1  0  0  0  0
  9 11  1  0  0  0  0
  9 12  1  0  0  0  0
 13 14  1  0  0  0  0
 13 15  1  0  0  0  0
 15 16  1  1  0  0  0
 15 17  1  0  0  0  0
 17 18  1  1  0  0  0
 17 19  1  0  0  0  0
 17 21  1  0  0  0  0
 19 20  1  0  0  0  0
 21 22  1  0  0  0  0
 22 23  1  1  0  0  0
 22 24  1  0  0  0  0
 22 29  1  0  0  0  0
 24 25  1  0  0  0  0
 24 26  1  0  0  0  0
 24 27  1  0  0  0  0
 27 28  1  0  0  0  0
 29 30  1  6  0  0  0
 29 31  1  0  0  0  0
 29 33  1  0  0  0  0
 31 32  1  0  0  0  0
 33 34  1  6  0  0  0
 33 35  1  0  0  0  0
 33 15  1  0  0  0  0
 35 36  1  0  0  0  0
M  ISO  1  12   2
M  END
>  <UniqueID>
4

>  <SMILES>
[2H]CC/C=C(\O)N[C@@H]1[C@H](O)O[C@H](CO)[C@@H](O)[C@@H]1O

>  <Energy>
35.3991042184318

>  <Genealogy>
[2H]CCC=C(O)N[C@@H]1C(O)O[C@H](CO)[C@@H](O)[C@@H]1O (tautomer)
[2H]CCC=C(O)N[C@@H]1[C@H](O)O[C@H](CO)[C@@H](O)[C@@H]1O (chirality)
[2H]CC/C=C(\O)N[C@@H]1[C@H](O)O[C@H](CO)[C@@H](O)[C@@H]1O (cis-trans isomerization)
[2H]CC/C=C(\O)N[C@@H]1[C@H](O)O[C@H](CO)[C@@H](O)[C@@H]1O (3D coordinates assigned)
[2H]CC/C=C(\O)N[C@@H]1[C@H](O)O[C@H](CO)[C@@H](O)[C@@H]1O (nonaromatic ring conformer: 35.3991042184318 kcal/mol)

$$$$
118707521
 OpenBabel03032110343D

 58 62  0  0  0  0  0  0  0  0999 V2000
   -1.4153   -1.9513   -1.0772 C   0  0  0  0  0  0  0  0  0  0  0  0
   -1.9280   -0.7044   -0.5050 N   0  0  0  0  0  0  0  0  0  0  0  0
   -1.2410    0.4386   -0.2562 C   0  0  0  0  0  0  0  0  0  0  0  0
    0.2152    0.6238   -0.4047 C   0  0  0  0  0  0  0  0  0  0  0  0
    1.2105   -0.3310   -0.3364 C   0  0  0  0  0  0  0  0  0  0  0  0
    2.3727    0.3313   -0.4639 N   0  0  0  0  0  0  0  0  0  0  0  0
    3.7169   -0.2490   -0.4120 C   0  0  1  0  0  0  0  0  0  0  0  0
    4.5362    0.1675   -1.6516 C   0  0  2  0  0  0  0  0  0  0  0  0
    3.8918   -0.2643   -2.8215 O   0  0  0  0  0  0  0  0  0  0  0  0
    5.8362   -0.3962   -1.5967 O   0  0  0  0  0  0  0  0  0  0  0  0
    6.5678    0.1355   -0.5038 C   0  0  2  0  0  0  0  0  0  0  0  0
    8.0102   -0.3896   -0.6042 C   0  0  0  0  0  0  0  0  0  0  0  0
    8.8486    0.2391    0.3280 O   0  0  0  0  0  0  0  0  0  0  0  0
    5.9085   -0.2758    0.8373 C   0  0  1  0  0  0  0  0  0  0  0  0
    6.6084    0.3036    1.9091 O   0  0  0  0  0  0  0  0  0  0  0  0
    4.4422    0.1988    0.8666 C   0  0  2  0  0  0  0  0  0  0  0  0
    3.7829   -0.3420    1.9832 O   0  0  0  0  0  0  0  0  0  0  0  0
    2.1092    1.6234   -0.5819 N   0  0  0  0  0  0  0  0  0  0  0  0
    0.8012    1.8308   -0.5449 N   0  0  0  0  0  0  0  0  0  0  0  0
   -2.0407    1.4470    0.1504 N   0  0  0  0  0  0  0  0  0  0  0  0
   -3.2778    0.9131    0.1883 C   0  0  0  0  0  0  0  0  0  0  0  0
   -4.4666    1.6772    0.6263 C   0  0  0  0  0  0  0  0  0  0  0  0
   -4.5684    3.0434    0.3137 C   0  0  0  0  0  0  0  0  0  0  0  0
   -5.6802    3.7828    0.7289 C   0  0  0  0  0  0  0  0  0  0  0  0
   -6.6930    3.1688    1.4703 C   0  0  0  0  0  0  0  0  0  0  0  0
   -7.7697    3.8876    1.8731 F   0  0  0  0  0  0  0  0  0  0  0  0
   -6.5910    1.8159    1.8043 C   0  0  0  0  0  0  0  0  0  0  0  0
   -5.4807    1.0731    1.3915 C   0  0  0  0  0  0  0  0  0  0  0  0
   -3.2151   -0.4151   -0.2109 C   0  0  0  0  0  0  0  0  0  0  0  0
   -4.3550   -1.3391   -0.3988 C   0  0  0  0  0  0  0  0  0  0  0  0
   -5.4661   -0.9513   -1.1616 C   0  0  0  0  0  0  0  0  0  0  0  0
   -6.5363   -1.8354   -1.3162 C   0  0  0  0  0  0  0  0  0  0  0  0
   -6.4977   -3.0620   -0.7312 N   0  0  0  0  0  0  0  0  0  0  0  0
   -5.4329   -3.4634    0.0128 C   0  0  0  0  0  0  0  0  0  0  0  0
   -4.3422   -2.6096    0.1935 C   0  0  0  0  0  0  0  0  0  0  0  0
   -2.2200   -2.5053   -1.6032 H   0  0  0  0  0  0  0  0  0  0  0  0
   -0.6312   -1.7355   -1.8323 H   0  0  0  0  0  0  0  0  0  0  0  0
   -1.0025   -2.5916   -0.2703 H   0  0  0  0  0  0  0  0  0  0  0  0
    1.1160   -1.3938   -0.1637 H   0  0  0  0  0  0  0  0  0  0  0  0
    3.6397   -1.3610   -0.4027 H   0  0  0  0  0  0  0  0  0  0  0  0
    4.6012    1.2788   -1.7057 H   0  0  0  0  0  0  0  0  0  0  0  0
    3.9406   -1.2561   -2.8346 H   0  0  0  0  0  0  0  0  0  0  0  0
    6.6116    1.2482   -0.5758 H   0  0  0  0  0  0  0  0  0  0  0  0
    8.0269   -1.4854   -0.4217 H   0  0  0  0  0  0  0  0  0  0  0  0
    8.3998   -0.2203   -1.6343 H   0  0  0  0  0  0  0  0  0  0  0  0
    9.0225    1.1537   -0.0169 H   0  0  0  0  0  0  0  0  0  0  0  0
    5.9323   -1.3897    0.9156 H   0  0  0  0  0  0  0  0  0  0  0  0
    6.4547   -0.2739    2.7018 H   0  0  0  0  0  0  0  0  0  0  0  0
    4.4242    1.3148    0.9134 H   0  0  0  0  0  0  0  0  0  0  0  0
    3.9850    0.2501    2.7539 H   0  0  0  0  0  0  0  0  0  0  0  0
   -3.7940    3.5343   -0.2629 H   0  0  0  0  0  0  0  0  0  0  0  0
   -5.7552    4.8324    0.4753 H   0  0  0  0  0  0  0  0  0  0  0  0
   -7.3684    1.3429    2.3904 H   0  0  0  0  0  0  0  0  0  0  0  0
   -5.4077    0.0354    1.6885 H   0  0  0  0  0  0  0  0  0  0  0  0
   -5.5017    0.0225   -1.6343 H   0  0  0  0  0  0  0  0  0  0  0  0
   -7.3982   -1.5461   -1.9025 H   0  0  0  0  0  0  0  0  0  0  0  0
   -5.4340   -4.4451    0.4672 H   0  0  0  0  0  0  0  0  0  0  0  0
   -3.5026   -2.9312    0.7972 H   0  0  0  0  0  0  0  0  0  0  0  0
  1  2  1  0  0  0  0
  1 36  1  0  0  0  0
  1 37  1  0  0  0  0
  1 38  1  0  0  0  0
  2  3  1  0  0  0  0
  3  4  1  0  0  0  0
  3 20  2  0  0  0  0
  4  5  2  0  0  0  0
  5  6  1  0  0  0  0
  5 39  1  0  0  0  0
  6  7  1  0  0  0  0
  6 18  1  0  0  0  0
  7  8  1  0  0  0  0
  7 40  1  1  0  0  0
  8  9  1  0  0  0  0
  8 10  1  0  0  0  0
  8 41  1  6  0  0  0
  9 42  1  0  0  0  0
 10 11  1  0  0  0  0
 11 12  1  0  0  0  0
 11 14  1  0  0  0  0
 11 43  1  6  0  0  0
 12 13  1  0  0  0  0
 12 44  1  0  0  0  0
 12 45  1  0  0  0  0
 13 46  1  0  0  0  0
 14 15  1  0  0  0  0
 14 16  1  0  0  0  0
 14 47  1  1  0  0  0
 15 48  1  0  0  0  0
 16 17  1  0  0  0  0
 16  7  1  0  0  0  0
 16 49  1  1  0  0  0
 17 50  1  0  0  0  0
 18 19  2  0  0  0  0
 19  4  1  0  0  0  0
 20 21  1  0  0  0  0
 21 22  1  0  0  0  0
 21 29  2  0  0  0  0
 22 23  2  0  0  0  0
 23 24  1  0  0  0  0
 23 51  1  0  0  0  0
 24 25  2  0  0  0  0
 24 52  1  0  0  0  0
 25 26  1  0  0  0  0
 25 27  1  0  0  0  0
 27 28  2  0  0  0  0
 27 53  1  0  0  0  0
 28 22  1  0  0  0  0
 28 54  1  0  0  0  0
 29 30  1  0  0  0  0
 29  2  1  0  0  0  0
 30 31  2  0  0  0  0
 31 32  1  0  0  0  0
 31 55  1  0  0  0  0
 32 33  2  0  0  0  0
 32 56  1  0  0  0  0
 33 34  1  0  0  0  0
 34 35  2  0  0  0  0
 34 57  1  0  0  0  0
 35 30  1  0  0  0  0
 35 58  1  0  0  0  0
M  END
>  <UniqueID>
9

>  <SMILES>
Cn1c(-c2cn([C@H]3[C@H](O)O[C@H](CO)[C@@H](O)[C@@H]3O)nn2)nc(-c2ccc(F)cc2)c1-c1ccncc1

>  <Energy>
140.29438939452544

>  <Genealogy>
Cn1c(-c2cn([C@H]3[C@H](O)O[C@H](CO)[C@@H](O)[C@@H]3O)nn2)nc(-c2ccc(F)cc2)c1-c1ccncc1 (3D coordinates assigned)
Cn1c(-c2cn([C@H]3[C@H](O)O[C@H](CO)[C@@H](O)[C@@H]3O)nn2)nc(-c2ccc(F)cc2)c1-c1ccncc1 (nonaromatic ring conformer: 140.29438939452544 kcal/mol)

$$$$
118707521
 OpenBabel03032110343D

 58 62  0  0  0  0  0  0  0  0999 V2000
   -2.0004   -2.8723   -1.3352 C   0  0  0  0  0  0  0  0  0  0  0  0
   -1.9911   -1.5296   -0.7483 N   0  0  0  0  0  0  0  0  0  0  0  0
   -0.9257   -0.7021   -0.6129 C   0  0  0  0  0  0  0  0  0  0  0  0
    0.4677   -1.0346   -0.9659 C   0  0  0  0  0  0  0  0  0  0  0  0
    1.5604   -0.2118   -0.8188 C   0  0  0  0  0  0  0  0  0  0  0  0
    2.6261   -0.9108   -1.2559 N   0  0  0  0  0  0  0  0  0  0  0  0
    4.0458   -0.5292   -1.2298 C   0  0  1  0  0  0  0  0  0  0  0  0
    4.2758    0.9357   -1.7131 C   0  0  2  0  0  0  0  0  0  0  0  0
    4.9046    0.9103   -2.9665 O   0  0  0  0  0  0  0  0  0  0  0  0
    5.0981    1.6541   -0.8073 O   0  0  0  0  0  0  0  0  0  0  0  0
    4.4585    1.7598    0.4528 C   0  0  2  0  0  0  0  0  0  0  0  0
    5.2396    2.7731    1.3039 C   0  0  0  0  0  0  0  0  0  0  0  0
    4.6344    2.9555    2.5554 O   0  0  0  0  0  0  0  0  0  0  0  0
    4.3750    0.3704    1.1534 C   0  0  1  0  0  0  0  0  0  0  0  0
    3.1039    0.1947    1.7260 O   0  0  0  0  0  0  0  0  0  0  0  0
    4.6559   -0.7873    0.1676 C   0  0  2  0  0  0  0  0  0  0  0  0
    6.0464   -0.9557    0.0263 O   0  0  0  0  0  0  0  0  0  0  0  0
    2.2026   -2.1080   -1.6310 N   0  0  0  0  0  0  0  0  0  0  0  0
    0.8910   -2.2117   -1.4704 N   0  0  0  0  0  0  0  0  0  0  0  0
   -1.2636    0.5035   -0.1082 N   0  0  0  0  0  0  0  0  0  0  0  0
   -2.5938    0.4315    0.0954 C   0  0  0  0  0  0  0  0  0  0  0  0
   -3.3792    1.5516    0.6581 C   0  0  0  0  0  0  0  0  0  0  0  0
   -4.4506    1.3225    1.5401 C   0  0  0  0  0  0  0  0  0  0  0  0
   -5.1796    2.3970    2.0599 C   0  0  0  0  0  0  0  0  0  0  0  0
   -4.8373    3.7077    1.7179 C   0  0  0  0  0  0  0  0  0  0  0  0
   -5.5446    4.7478    2.2243 F   0  0  0  0  0  0  0  0  0  0  0  0
   -3.7606    3.9459    0.8596 C   0  0  0  0  0  0  0  0  0  0  0  0
   -3.0306    2.8743    0.3357 C   0  0  0  0  0  0  0  0  0  0  0  0
   -3.0489   -0.8207   -0.2942 C   0  0  0  0  0  0  0  0  0  0  0  0
   -4.4527   -1.2828   -0.3102 C   0  0  0  0  0  0  0  0  0  0  0  0
   -5.4367   -0.5393   -0.9774 C   0  0  0  0  0  0  0  0  0  0  0  0
   -6.7614   -0.9815   -0.9597 C   0  0  0  0  0  0  0  0  0  0  0  0
   -7.0905   -2.1232   -0.2995 N   0  0  0  0  0  0  0  0  0  0  0  0
   -6.1568   -2.8603    0.3584 C   0  0  0  0  0  0  0  0  0  0  0  0
   -4.8207   -2.4528    0.3679 C   0  0  0  0  0  0  0  0  0  0  0  0
   -1.5176   -2.8496   -2.3342 H   0  0  0  0  0  0  0  0  0  0  0  0
   -3.0316   -3.2479   -1.4817 H   0  0  0  0  0  0  0  0  0  0  0  0
   -1.4542   -3.5744   -0.6703 H   0  0  0  0  0  0  0  0  0  0  0  0
    1.5736    0.7934   -0.4220 H   0  0  0  0  0  0  0  0  0  0  0  0
    4.5755   -1.2117   -1.9334 H   0  0  0  0  0  0  0  0  0  0  0  0
    3.3067    1.4694   -1.8432 H   0  0  0  0  0  0  0  0  0  0  0  0
    4.9542    1.8520   -3.2781 H   0  0  0  0  0  0  0  0  0  0  0  0
    3.4339    2.1831    0.3239 H   0  0  0  0  0  0  0  0  0  0  0  0
    5.3008    3.7471    0.7675 H   0  0  0  0  0  0  0  0  0  0  0  0
    6.2783    2.4107    1.4571 H   0  0  0  0  0  0  0  0  0  0  0  0
    3.8088    3.4831    2.3990 H   0  0  0  0  0  0  0  0  0  0  0  0
    5.1391    0.2983    1.9646 H   0  0  0  0  0  0  0  0  0  0  0  0
    3.0863    0.7296    2.5620 H   0  0  0  0  0  0  0  0  0  0  0  0
    4.2215   -1.7322    0.5747 H   0  0  0  0  0  0  0  0  0  0  0  0
    6.3633   -1.4441    0.8314 H   0  0  0  0  0  0  0  0  0  0  0  0
   -4.7125    0.3181    1.8454 H   0  0  0  0  0  0  0  0  0  0  0  0
   -6.0044    2.2118    2.7358 H   0  0  0  0  0  0  0  0  0  0  0  0
   -3.4911    4.9611    0.5982 H   0  0  0  0  0  0  0  0  0  0  0  0
   -2.2027    3.0772   -0.3328 H   0  0  0  0  0  0  0  0  0  0  0  0
   -5.1802    0.3697   -1.5070 H   0  0  0  0  0  0  0  0  0  0  0  0
   -7.5280   -0.4171   -1.4728 H   0  0  0  0  0  0  0  0  0  0  0  0
   -6.4520   -3.7621    0.8772 H   0  0  0  0  0  0  0  0  0  0  0  0
   -4.0829   -3.0378    0.9040 H   0  0  0  0  0  0  0  0  0  0  0  0
  1  2  1  0  0  0  0
  1 36  1  0  0  0  0
  1 37  1  0  0  0  0
  1 38  1  0  0  0  0
  2  3  1  0  0  0  0
  3  4  1  0  0  0  0
  3 20  2  0  0  0  0
  4  5  2  0  0  0  0
  5  6  1  0  0  0  0
  5 39  1  0  0  0  0
  6  7  1  0  0  0  0
  6 18  1  0  0  0  0
  7  8  1  0  0  0  0
  7 40  1  6  0  0  0
  8  9  1  0  0  0  0
  8 10  1  0  0  0  0
  8 41  1  6  0  0  0
  9 42  1  0  0  0  0
 10 11  1  0  0  0  0
 11 12  1  0  0  0  0
 11 14  1  0  0  0  0
 11 43  1  6  0  0  0
 12 13  1  0  0  0  0
 12 44  1  0  0  0  0
 12 45  1  0  0  0  0
 13 46  1  0  0  0  0
 14 15  1  0  0  0  0
 14 16  1  0  0  0  0
 14 47  1  1  0  0  0
 15 48  1  0  0  0  0
 16 17  1  0  0  0  0
 16  7  1  0  0  0  0
 16 49  1  1  0  0  0
 17 50  1  0  0  0  0
 18 19  2  0  0  0  0
 19  4  1  0  0  0  0
 20 21  1  0  0  0  0
 21 22  1  0  0  0  0
 21 29  2  0  0  0  0
 22 23  2  0  0  0  0
 23 24  1  0  0  0  0
 23 51  1  0  0  0  0
 24 25  2  0  0  0  0
 24 52  1  0  0  0  0
 25 26  1  0  0  0  0
 25 27  1  0  0  0  0
 27 28  2  0  0  0  0
 27 53  1  0  0  0  0
 28 22  1  0  0  0  0
 28 54  1  0  0  0  0
 29 30  1  0  0  0  0
 29  2  1  0  0  0  0
 30 31  2  0  0  0  0
 31 32  1  0  0  0  0
 31 55  1  0  0  0  0
 32 33  2  0  0  0  0
 32 56  1  0  0  0  0
 33 34  1  0  0  0  0
 34 35  2  0  0  0  0
 34 57  1  0  0  0  0
 35 30  1  0  0  0  0
 35 58  1  0  0  0  0
M  END
>  <UniqueID>
10

>  <SMILES>
Cn1c(-c2cn([C@H]3[C@H](O)O[C@H](CO)[C@@H](O)[C@@H]3O)nn2)nc(-c2ccc(F)cc2)c1-c1ccncc1

>  <Energy>
149.1680216850647

>  <Genealogy>
Cn1c(-c2cn([C@H]3[C@H](O)O[C@H](CO)[C@@H](O)[C@@H]3O)nn2)nc(-c2ccc(F)cc2)c1-c1ccncc1 (3D coordinates assigned)
Cn1c(-c2cn([C@H]3[C@H](O)O[C@H](CO)[C@@H](O)[C@@H]3O)nn2)nc(-c2ccc(F)cc2)c1-c1ccncc1 (nonaromatic ring conformer: 149.1680216850647 kcal/mol)

$$$$
91820057
 OpenBabel03032110343D

 33 33  0  0  0  0  0  0  0  0999 V2000
   -0.6615   -5.4372    1.7806 H   0  0  0  0  0  0  0  0  0  0  0  0
   -0.2684   -5.4637    0.8470 O   0  0  0  0  0  0  0  0  0  0  0  0
   -0.0097   -4.2919    0.1417 C   0  0  0  0  0  0  0  0  0  0  0  0
   -0.2694   -3.1446    0.7038 N   0  0  0  0  0  0  0  0  0  0  0  0
   -0.0809   -1.8120    0.1191 C   0  0  1  0  0  0  0  0  0  0  0  0
    0.6579   -1.8389   -0.7117 H   0  0  0  0  0  0  0  0  0  0  0  0
   -1.4283   -1.2788   -0.4143 C   0  0  2  0  0  0  0  0  0  0  0  0
   -2.1861   -1.3024    0.4071 H   0  0  0  0  0  0  0  0  0  0  0  0
   -1.8764   -2.1092   -1.4499 O   0  0  0  0  0  0  0  0  0  0  0  0
   -2.7888   -1.7970   -1.6858 H   0  0  0  0  0  0  0  0  0  0  0  0
   -1.2781    0.0388   -0.9189 O   0  0  0  0  0  0  0  0  0  0  0  0
   -0.9348    0.9337    0.1262 C   0  0  2  0  0  0  0  0  0  0  0  0
   -1.6810    0.8748    0.9544 H   0  0  0  0  0  0  0  0  0  0  0  0
   -0.9828    2.3695   -0.4082 C   0  0  0  0  0  0  0  0  0  0  0  0
   -0.2816    2.4591   -1.2681 H   0  0  0  0  0  0  0  0  0  0  0  0
   -0.6646    3.0614    0.4045 H   0  0  0  0  0  0  0  0  0  0  0  0
   -2.2967    2.6659   -0.8169 O   0  0  0  0  0  0  0  0  0  0  0  0
   -2.3358    4.2663   -1.3701 S   0  0  0  0  0  0  0  0  0  0  0  0
   -3.7071    4.5590   -1.9089 O   0  0  0  0  0  0  0  0  0  0  0  0
   -2.0435    5.2121   -0.2386 O   0  0  0  0  0  0  0  0  0  0  0  0
   -1.2114    4.4902   -2.5996 O   0  5  0  0  0  0  0  0  0  0  0  0
    0.4645    0.5919    0.6833 C   0  0  2  0  0  0  0  0  0  0  0  0
    0.6886    1.2791    1.5338 H   0  0  0  0  0  0  0  0  0  0  0  0
    1.4296    0.7409   -0.3296 O   0  0  0  0  0  0  0  0  0  0  0  0
    2.2982    0.9102    0.1203 H   0  0  0  0  0  0  0  0  0  0  0  0
    0.4576   -0.8572    1.2030 C   0  0  2  0  0  0  0  0  0  0  0  0
   -0.2142   -0.8972    2.0945 H   0  0  0  0  0  0  0  0  0  0  0  0
    1.7597   -1.2290    1.5782 O   0  0  0  0  0  0  0  0  0  0  0  0
    1.6734   -1.9954    2.2033 H   0  0  0  0  0  0  0  0  0  0  0  0
    0.5846   -4.4043   -1.2317 C   0  0  0  0  0  0  0  0  0  0  0  0
   -0.0450   -3.8749   -1.9750 H   0  0  0  0  0  0  0  0  0  0  0  0
    1.6099   -3.9788   -1.2351 H   0  0  0  0  0  0  0  0  0  0  0  0
    0.6486   -5.4717   -1.5301 H   0  0  0  0  0  0  0  0  0  0  0  0
  1  2  1  0  0  0  0
  2  3  1  0  0  0  0
  3  4  2  0  0  0  0
  3 30  1  0  0  0  0
  4  5  1  0  0  0  0
  5  6  1  6  0  0  0
  5  7  1  0  0  0  0
  7  8  1  1  0  0  0
  7  9  1  0  0  0  0
  7 11  1  0  0  0  0
  9 10  1  0  0  0  0
 11 12  1  0  0  0  0
 12 13  1  1  0  0  0
 12 14  1  0  0  0  0
 12 22  1  0  0  0  0
 14 15  1  0  0  0  0
 14 16  1  0  0  0  0
 14 17  1  0  0  0  0
 17 18  1  0  0  0  0
 18 19  2  0  0  0  0
 18 20  2  0  0  0  0
 18 21  1  0  0  0  0
 22 23  1  1  0  0  0
 22 24  1  0  0  0  0
 22 26  1  0  0  0  0
 24 25  1  0  0  0  0
 26 27  1  1  0  0  0
 26 28  1  0  0  0  0
 26  5  1  0  0  0  0
 28 29  1  0  0  0  0
 30 31  1  0  0  0  0
 30 32  1  0  0  0  0
 30 33  1  0  0  0  0
M  CHG  1  21  -1
M  END
>  <UniqueID>
11

>  <SMILES>
C/C(O)=N/[C@H]1[C@H](O)O[C@H](COS(=O)(=O)[O-])[C@H](O)[C@@H]1O

>  <Energy>
29.896683021282357

>  <Genealogy>
CC(O)=N[C@H]1C(O)O[C@H](COS(=O)(=O)[O-])[C@H](O)[C@@H]1O (tautomer)
CC(O)=N[C@H]1[C@H](O)O[C@H](COS(=O)(=O)[O-])[C@H](O)[C@@H]1O (chirality)
C/C(O)=N/[C@H]1[C@H](O)O[C@H](COS(=O)(=O)[O-])[C@H](O)[C@@H]1O (cis-trans isomerization)
C/C(O)=N/[C@H]1[C@H](O)O[C@H](COS(=O)(=O)[O-])[C@H](O)[C@@H]1O (3D coordinates assigned)
C/C(O)=N/[C@H]1[C@H](O)O[C@H](COS(=O)(=O)[O-])[C@H](O)[C@@H]1O (nonaromatic ring conformer: 29.896683021282357 kcal/mol)

$$$$
91820057
 OpenBabel03032110343D

 33 33  0  0  0  0  0  0  0  0999 V2000
    4.6499    1.0404    0.0262 C   0  0  0  0  0  0  0  0  0  0  0  0
    3.5591    0.0375    0.2153 C   0  0  0  0  0  0  0  0  0  0  0  0
    3.8198   -1.1925    0.1204 O   0  0  0  0  0  0  0  0  0  0  0  0
    2.2210    0.4792    0.4817 N   0  0  0  0  0  0  0  0  0  0  0  0
    1.0970   -0.4575    0.6109 C   0  0  1  0  0  0  0  0  0  0  0  0
   -0.0598    0.1701    1.4188 C   0  0  1  0  0  0  0  0  0  0  0  0
    0.3861    0.5236    2.7032 O   0  0  0  0  0  0  0  0  0  0  0  0
   -0.5970    1.3119    0.7650 O   0  0  0  0  0  0  0  0  0  0  0  0
   -1.1596    0.9982   -0.5040 C   0  0  2  0  0  0  0  0  0  0  0  0
   -2.5151    0.2698   -0.3822 C   0  0  0  0  0  0  0  0  0  0  0  0
   -3.3250    0.9519    0.5455 O   0  0  0  0  0  0  0  0  0  0  0  0
   -4.7671    0.0847    0.7380 S   0  0  0  0  0  0  0  0  0  0  0  0
   -5.7059    0.8889    1.5914 O   0  0  0  0  0  0  0  0  0  0  0  0
   -4.4915   -1.2278    1.4174 O   0  0  0  0  0  0  0  0  0  0  0  0
   -5.4922   -0.1917   -0.7534 O   0  5  0  0  0  0  0  0  0  0  0  0
   -0.1365    0.3107   -1.4532 C   0  0  2  0  0  0  0  0  0  0  0  0
   -0.7537   -0.1226   -2.6387 O   0  0  0  0  0  0  0  0  0  0  0  0
    0.5900   -0.8691   -0.7837 C   0  0  2  0  0  0  0  0  0  0  0  0
   -0.2693   -1.9766   -0.6848 O   0  0  0  0  0  0  0  0  0  0  0  0
    4.6620    1.7447    0.8840 H   0  0  0  0  0  0  0  0  0  0  0  0
    5.6378    0.5367   -0.0382 H   0  0  0  0  0  0  0  0  0  0  0  0
    4.4711    1.6082   -0.9105 H   0  0  0  0  0  0  0  0  0  0  0  0
    2.0418    1.5086    0.5198 H   0  0  0  0  0  0  0  0  0  0  0  0
    1.4418   -1.3628    1.1591 H   0  0  0  0  0  0  0  0  0  0  0  0
   -0.8505   -0.5951    1.5704 H   0  0  0  0  0  0  0  0  0  0  0  0
    0.8844    1.3783    2.6254 H   0  0  0  0  0  0  0  0  0  0  0  0
   -1.3973    1.9753   -0.9799 H   0  0  0  0  0  0  0  0  0  0  0  0
   -2.3627   -0.7846   -0.0728 H   0  0  0  0  0  0  0  0  0  0  0  0
   -3.0051    0.2726   -1.3813 H   0  0  0  0  0  0  0  0  0  0  0  0
    0.6426    1.0668   -1.7118 H   0  0  0  0  0  0  0  0  0  0  0  0
   -0.9767    0.6925   -3.1600 H   0  0  0  0  0  0  0  0  0  0  0  0
    1.4587   -1.1452   -1.4268 H   0  0  0  0  0  0  0  0  0  0  0  0
    0.3019   -2.7698   -0.5108 H   0  0  0  0  0  0  0  0  0  0  0  0
  1  2  1  0  0  0  0
  1 20  1  0  0  0  0
  1 21  1  0  0  0  0
  1 22  1  0  0  0  0
  2  3  2  0  0  0  0
  2  4  1  0  0  0  0
  4  5  1  0  0  0  0
  4 23  1  0  0  0  0
  5  6  1  0  0  0  0
  5 24  1  1  0  0  0
  6  7  1  0  0  0  0
  6  8  1  0  0  0  0
  6 25  1  1  0  0  0
  7 26  1  0  0  0  0
  8  9  1  0  0  0  0
  9 10  1  0  0  0  0
  9 16  1  0  0  0  0
  9 27  1  6  0  0  0
 10 11  1  0  0  0  0
 10 28  1  0  0  0  0
 10 29  1  0  0  0  0
 11 12  1  0  0  0  0
 12 13  2  0  0  0  0
 12 14  2  0  0  0  0
 12 15  1  0  0  0  0
 16 17  1  0  0  0  0
 16 18  1  0  0  0  0
 16 30  1  6  0  0  0
 17 31  1  0  0  0  0
 18 19  1  0  0  0  0
 18  5  1  0  0  0  0
 18 32  1  6  0  0  0
 19 33  1  0  0  0  0
M  CHG  1  15  -1
M  END
>  <UniqueID>
12

>  <SMILES>
CC(=O)N[C@H]1[C@@H](O)O[C@H](COS(=O)(=O)[O-])[C@H](O)[C@@H]1O

>  <Energy>
32.859858362658926

>  <Genealogy>
CC(=O)N[C@H]1[C@@H](O)O[C@H](COS(=O)(=O)[O-])[C@H](O)[C@@H]1O (chirality)
CC(=O)N[C@H]1[C@@H](O)O[C@H](COS(=O)(=O)[O-])[C@H](O)[C@@H]1O (3D coordinates assigned)
CC(=O)N[C@H]1[C@@H](O)O[C@H](COS(=O)(=O)[O-])[C@H](O)[C@@H]1O (nonaromatic ring conformer: 32.859858362658926 kcal/mol)

$$$$
90659182
 OpenBabel03032110343D

 35 35  0  0  0  0  0  0  0  0999 V2000
   -0.8789   -1.1785    5.2706 H   0  0  0  0  0  0  0  0  0  0  0  0
   -0.7939   -0.9157    4.2961 O   0  0  0  0  0  0  0  0  0  0  0  0
   -0.1680    0.2725    3.9212 C   0  0  0  0  0  0  0  0  0  0  0  0
   -0.0473    0.5913    2.6674 N   0  0  0  0  0  0  0  0  0  0  0  0
   -0.5345   -0.2275    1.5545 C   0  0  2  0  0  0  0  0  0  0  0  0
   -1.5766   -0.5556    1.7762 H   0  0  0  0  0  0  0  0  0  0  0  0
    0.3734   -1.4734    1.3358 C   0  0  1  0  0  0  0  0  0  0  0  0
    1.3713   -1.2565    1.7813 H   0  0  0  0  0  0  0  0  0  0  0  0
   -0.1733   -2.5896    1.9889 O   0  0  0  0  0  0  0  0  0  0  0  0
    0.5027   -3.3134    1.9226 H   0  0  0  0  0  0  0  0  0  0  0  0
    0.5943   -1.7707   -0.0389 O   0  0  0  0  0  0  0  0  0  0  0  0
   -0.6119   -1.7079   -0.7812 C   0  0  2  0  0  0  0  0  0  0  0  0
   -1.3970   -2.3209   -0.2776 H   0  0  0  0  0  0  0  0  0  0  0  0
   -0.3775   -2.3525   -2.1522 C   0  0  0  0  0  0  0  0  0  0  0  0
   -0.0785   -3.4143   -2.0028 H   0  0  0  0  0  0  0  0  0  0  0  0
   -1.3178   -2.3426   -2.7443 H   0  0  0  0  0  0  0  0  0  0  0  0
    0.6367   -1.6767   -2.8443 O   0  0  0  0  0  0  0  0  0  0  0  0
    0.7268   -2.1371   -3.7188 H   0  0  0  0  0  0  0  0  0  0  0  0
   -1.1121   -0.2363   -0.9005 C   0  0  1  0  0  0  0  0  0  0  0  0
   -0.7485    0.2367   -1.8408 H   0  0  0  0  0  0  0  0  0  0  0  0
   -2.5423   -0.2116   -0.8778 O   0  0  0  0  0  0  0  0  0  0  0  0
   -3.3460   -0.3158   -2.0185 C   0  0  0  0  0  0  0  0  0  0  0  0
   -2.8404   -0.2905   -3.1733 O   0  0  0  0  0  0  0  0  0  0  0  0
   -4.8270   -0.3831   -1.8650 C   0  0  0  0  0  0  0  0  0  0  0  0
   -5.2535    0.6385   -1.9420 H   0  0  0  0  0  0  0  0  0  0  0  0
   -5.0853   -0.8125   -0.8744 H   0  0  0  0  0  0  0  0  0  0  0  0
   -5.2645   -1.0248   -2.6587 H   0  0  0  0  0  0  0  0  0  0  0  0
   -0.5867    0.6199    0.2713 C   0  0  2  0  0  0  0  0  0  0  0  0
   -1.2823    1.4798    0.4239 H   0  0  0  0  0  0  0  0  0  0  0  0
    0.6959    1.1047   -0.0457 O   0  0  0  0  0  0  0  0  0  0  0  0
    0.8454    1.9161    0.5065 H   0  0  0  0  0  0  0  0  0  0  0  0
    0.3937    1.1787    4.9687 C   0  0  0  0  0  0  0  0  0  0  0  0
    1.3565    0.7657    5.3348 H   0  0  0  0  0  0  0  0  0  0  0  0
    0.5671    2.1962    4.5575 H   0  0  0  0  0  0  0  0  0  0  0  0
   -0.3164    1.2558    5.8183 H   0  0  0  0  0  0  0  0  0  0  0  0
  1  2  1  0  0  0  0
  2  3  1  0  0  0  0
  3  4  2  0  0  0  0
  3 32  1  0  0  0  0
  4  5  1  0  0  0  0
  5  6  1  1  0  0  0
  5  7  1  0  0  0  0
  7  8  1  1  0  0  0
  7  9  1  0  0  0  0
  7 11  1  0  0  0  0
  9 10  1  0  0  0  0
 11 12  1  0  0  0  0
 12 13  1  1  0  0  0
 12 14  1  0  0  0  0
 12 19  1  0  0  0  0
 14 15  1  0  0  0  0
 14 16  1  0  0  0  0
 14 17  1  0  0  0  0
 17 18  1  0  0  0  0
 19 20  1  6  0  0  0
 19 21  1  0  0  0  0
 19 28  1  0  0  0  0
 21 22  1  0  0  0  0
 22 23  2  0  0  0  0
 22 24  1  0  0  0  0
 24 25  1  0  0  0  0
 24 26  1  0  0  0  0
 24 27  1  0  0  0  0
 28 29  1  1  0  0  0
 28 30  1  0  0  0  0
 28  5  1  0  0  0  0
 30 31  1  0  0  0  0
 32 33  1  0  0  0  0
 32 34  1  0  0  0  0
 32 35  1  0  0  0  0
M  END
>  <UniqueID>
13

>  <SMILES>
CC(=O)O[C@@H]1[C@@H](CO)O[C@H](O)[C@@H](/N=C(/C)O)[C@H]1O

>  <Energy>
34.630528196606534

>  <Genealogy>
CC(=O)O[C@@H]1[C@@H](CO)O[C@H](O)[C@@H](N=C(C)O)[C@H]1O (tautomer)
CC(=O)O[C@@H]1[C@@H](CO)O[C@H](O)[C@@H](/N=C(/C)O)[C@H]1O (cis-trans isomerization)
CC(=O)O[C@@H]1[C@@H](CO)O[C@H](O)[C@@H](/N=C(/C)O)[C@H]1O (3D coordinates assigned)
CC(=O)O[C@@H]1[C@@H](CO)O[C@H](O)[C@@H](/N=C(/C)O)[C@H]1O (nonaromatic ring conformer: 34.630528196606534 kcal/mol)

$$$$
90659182
 OpenBabel03032110343D

 35 35  0  0  0  0  0  0  0  0999 V2000
    1.8509    1.3256    1.1473 H   0  0  0  0  0  0  0  0  0  0  0  0
    1.1210    0.6741    1.4097 O   0  0  0  0  0  0  0  0  0  0  0  0
    0.3539    0.8700    2.5532 C   0  0  0  0  0  0  0  0  0  0  0  0
   -0.5698    0.0245    2.9088 N   0  0  0  0  0  0  0  0  0  0  0  0
   -1.0272   -1.2013    2.2324 C   0  0  2  0  0  0  0  0  0  0  0  0
   -1.6627   -1.7239    2.9818 H   0  0  0  0  0  0  0  0  0  0  0  0
    0.1237   -2.1738    1.8830 C   0  0  1  0  0  0  0  0  0  0  0  0
    0.8696   -2.1188    2.7082 H   0  0  0  0  0  0  0  0  0  0  0  0
   -0.3585   -3.4931    1.8218 O   0  0  0  0  0  0  0  0  0  0  0  0
    0.4364   -4.0777    1.7126 H   0  0  0  0  0  0  0  0  0  0  0  0
    0.7847   -1.8238    0.6771 O   0  0  0  0  0  0  0  0  0  0  0  0
   -0.0988   -1.8181   -0.4322 C   0  0  2  0  0  0  0  0  0  0  0  0
   -0.6063   -2.8057   -0.5313 H   0  0  0  0  0  0  0  0  0  0  0  0
    0.7489   -1.6116   -1.6998 C   0  0  0  0  0  0  0  0  0  0  0  0
    1.1767   -0.5862   -1.7050 H   0  0  0  0  0  0  0  0  0  0  0  0
    1.6040   -2.3259   -1.6990 H   0  0  0  0  0  0  0  0  0  0  0  0
   -0.0152   -1.7911   -2.8622 O   0  0  0  0  0  0  0  0  0  0  0  0
   -0.1604   -2.7684   -2.9596 H   0  0  0  0  0  0  0  0  0  0  0  0
   -1.1585   -0.7020   -0.2784 C   0  0  1  0  0  0  0  0  0  0  0  0
   -0.6442    0.2821   -0.2558 H   0  0  0  0  0  0  0  0  0  0  0  0
   -2.0569   -0.7477   -1.3903 O   0  0  0  0  0  0  0  0  0  0  0  0
   -2.7626    0.3617   -1.8697 C   0  0  0  0  0  0  0  0  0  0  0  0
   -2.5803    1.5082   -1.3774 O   0  0  0  0  0  0  0  0  0  0  0  0
   -3.6962    0.1934   -3.0192 C   0  0  0  0  0  0  0  0  0  0  0  0
   -4.0622   -0.8539   -3.0590 H   0  0  0  0  0  0  0  0  0  0  0  0
   -3.1648    0.4299   -3.9643 H   0  0  0  0  0  0  0  0  0  0  0  0
   -4.5669    0.8734   -2.9068 H   0  0  0  0  0  0  0  0  0  0  0  0
   -1.9472   -0.9137    1.0264 C   0  0  2  0  0  0  0  0  0  0  0  0
   -2.5895   -1.8184    0.8875 H   0  0  0  0  0  0  0  0  0  0  0  0
   -2.7538    0.2046    1.3010 O   0  0  0  0  0  0  0  0  0  0  0  0
   -3.6290    0.0522    0.8579 H   0  0  0  0  0  0  0  0  0  0  0  0
    0.6259    2.0555    3.4222 C   0  0  0  0  0  0  0  0  0  0  0  0
    1.5132    1.8515    4.0565 H   0  0  0  0  0  0  0  0  0  0  0  0
    0.8257    2.9467    2.7913 H   0  0  0  0  0  0  0  0  0  0  0  0
   -0.2465    2.2732    4.0750 H   0  0  0  0  0  0  0  0  0  0  0  0
  1  2  1  0  0  0  0
  2  3  1  0  0  0  0
  3  4  2  0  0  0  0
  3 32  1  0  0  0  0
  4  5  1  0  0  0  0
  5  6  1  1  0  0  0
  5  7  1  0  0  0  0
  7  8  1  1  0  0  0
  7  9  1  0  0  0  0
  7 11  1  0  0  0  0
  9 10  1  0  0  0  0
 11 12  1  0  0  0  0
 12 13  1  6  0  0  0
 12 14  1  0  0  0  0
 12 19  1  0  0  0  0
 14 15  1  0  0  0  0
 14 16  1  0  0  0  0
 14 17  1  0  0  0  0
 17 18  1  0  0  0  0
 19 20  1  1  0  0  0
 19 21  1  0  0  0  0
 19 28  1  0  0  0  0
 21 22  1  0  0  0  0
 22 23  2  0  0  0  0
 22 24  1  0  0  0  0
 24 25  1  0  0  0  0
 24 26  1  0  0  0  0
 24 27  1  0  0  0  0
 28 29  1  6  0  0  0
 28 30  1  0  0  0  0
 28  5  1  0  0  0  0
 30 31  1  0  0  0  0
 32 33  1  0  0  0  0
 32 34  1  0  0  0  0
 32 35  1  0  0  0  0
M  END
>  <UniqueID>
14

>  <SMILES>
CC(=O)O[C@@H]1[C@@H](CO)O[C@H](O)[C@@H](/N=C(/C)O)[C@H]1O

>  <Energy>
34.726609832045696

>  <Genealogy>
CC(=O)O[C@@H]1[C@@H](CO)O[C@H](O)[C@@H](N=C(C)O)[C@H]1O (tautomer)
CC(=O)O[C@@H]1[C@@H](CO)O[C@H](O)[C@@H](/N=C(/C)O)[C@H]1O (cis-trans isomerization)
CC(=O)O[C@@H]1[C@@H](CO)O[C@H](O)[C@@H](/N=C(/C)O)[C@H]1O (3D coordinates assigned)
CC(=O)O[C@@H]1[C@@H](CO)O[C@H](O)[C@@H](/N=C(/C)O)[C@H]1O (nonaromatic ring conformer: 34.726609832045696 kcal/mol)

$$$$
76325328
 OpenBabel03032110343D

 58 62  0  0  0  0  0  0  0  0999 V2000
   -2.8621    2.3106    0.0246 C   0  0  0  0  0  0  0  0  0  0  0  0
   -1.9636    1.8871    1.1012 N   0  0  0  0  0  0  0  0  0  0  0  0
   -0.9348    1.0088    1.0128 C   0  0  0  0  0  0  0  0  0  0  0  0
   -0.5710    0.2348   -0.1901 C   0  0  0  0  0  0  0  0  0  0  0  0
    0.4906   -0.6368   -0.3056 C   0  0  0  0  0  0  0  0  0  0  0  0
    0.4343   -1.1325   -1.5533 N   0  0  0  0  0  0  0  0  0  0  0  0
    1.3231   -2.1472   -2.1268 C   0  0  1  0  0  0  0  0  0  0  0  0
    0.6376   -3.5265   -2.1410 C   0  0  1  0  0  0  0  0  0  0  0  0
   -0.5947   -3.4760   -2.8167 O   0  0  0  0  0  0  0  0  0  0  0  0
    1.4921   -4.5114   -2.7041 O   0  0  0  0  0  0  0  0  0  0  0  0
    1.8045   -4.2289   -4.0617 C   0  0  2  0  0  0  0  0  0  0  0  0
    2.6211   -5.4086   -4.6086 C   0  0  0  0  0  0  0  0  0  0  0  0
    2.7667   -5.3042   -5.9983 O   0  0  0  0  0  0  0  0  0  0  0  0
    2.5893   -2.8980   -4.1796 C   0  0  1  0  0  0  0  0  0  0  0  0
    2.8348   -2.6048   -5.5315 O   0  0  0  0  0  0  0  0  0  0  0  0
    1.7669   -1.7570   -3.5492 C   0  0  2  0  0  0  0  0  0  0  0  0
    2.4990   -0.5562   -3.5333 O   0  0  0  0  0  0  0  0  0  0  0  0
   -0.6163   -0.6064   -2.1649 N   0  0  0  0  0  0  0  0  0  0  0  0
   -1.2465    0.2341   -1.3573 N   0  0  0  0  0  0  0  0  0  0  0  0
   -0.2495    0.8922    2.1701 N   0  0  0  0  0  0  0  0  0  0  0  0
   -0.8795    1.7188    3.0285 C   0  0  0  0  0  0  0  0  0  0  0  0
   -0.4638    1.8763    4.4398 C   0  0  0  0  0  0  0  0  0  0  0  0
    0.9005    1.8239    4.7717 C   0  0  0  0  0  0  0  0  0  0  0  0
    1.3107    1.9612    6.1014 C   0  0  0  0  0  0  0  0  0  0  0  0
    0.3626    2.1387    7.1125 C   0  0  0  0  0  0  0  0  0  0  0  0
    0.7619    2.2706    8.4013 F   0  0  0  0  0  0  0  0  0  0  0  0
   -0.9978    2.1713    6.7953 C   0  0  0  0  0  0  0  0  0  0  0  0
   -1.4120    2.0344    5.4670 C   0  0  0  0  0  0  0  0  0  0  0  0
   -1.9404    2.3327    2.3771 C   0  0  0  0  0  0  0  0  0  0  0  0
   -2.8391    3.3658    2.9340 C   0  0  0  0  0  0  0  0  0  0  0  0
   -2.3098    4.5252    3.5181 C   0  0  0  0  0  0  0  0  0  0  0  0
   -3.1753    5.4793    4.0578 C   0  0  0  0  0  0  0  0  0  0  0  0
   -4.5197    5.2803    4.0183 N   0  0  0  0  0  0  0  0  0  0  0  0
   -5.0587    4.1636    3.4609 C   0  0  0  0  0  0  0  0  0  0  0  0
   -4.2288    3.1844    2.9101 C   0  0  0  0  0  0  0  0  0  0  0  0
   -3.4531    3.2019    0.3163 H   0  0  0  0  0  0  0  0  0  0  0  0
   -2.2718    2.5937   -0.8714 H   0  0  0  0  0  0  0  0  0  0  0  0
   -3.5572    1.4834   -0.2291 H   0  0  0  0  0  0  0  0  0  0  0  0
    1.2252   -0.8964    0.4462 H   0  0  0  0  0  0  0  0  0  0  0  0
    2.2332   -2.2324   -1.4895 H   0  0  0  0  0  0  0  0  0  0  0  0
    0.4475   -3.8096   -1.0808 H   0  0  0  0  0  0  0  0  0  0  0  0
   -1.0252   -4.3594   -2.6789 H   0  0  0  0  0  0  0  0  0  0  0  0
    0.8716   -4.1681   -4.6686 H   0  0  0  0  0  0  0  0  0  0  0  0
    3.6212   -5.4378   -4.1197 H   0  0  0  0  0  0  0  0  0  0  0  0
    2.0881   -6.3563   -4.3704 H   0  0  0  0  0  0  0  0  0  0  0  0
    3.3152   -6.0829   -6.2771 H   0  0  0  0  0  0  0  0  0  0  0  0
    3.5544   -3.0082   -3.6291 H   0  0  0  0  0  0  0  0  0  0  0  0
    3.5969   -1.9700   -5.5546 H   0  0  0  0  0  0  0  0  0  0  0  0
    0.8631   -1.5949   -4.1776 H   0  0  0  0  0  0  0  0  0  0  0  0
    3.3099   -0.7035   -2.9797 H   0  0  0  0  0  0  0  0  0  0  0  0
    1.6490    1.6900    4.0004 H   0  0  0  0  0  0  0  0  0  0  0  0
    2.3645    1.9292    6.3468 H   0  0  0  0  0  0  0  0  0  0  0  0
   -1.7336    2.2948    7.5796 H   0  0  0  0  0  0  0  0  0  0  0  0
   -2.4717    2.0297    5.2495 H   0  0  0  0  0  0  0  0  0  0  0  0
   -1.2396    4.6892    3.5525 H   0  0  0  0  0  0  0  0  0  0  0  0
   -2.7779    6.3782    4.5096 H   0  0  0  0  0  0  0  0  0  0  0  0
   -6.1328    4.0337    3.4486 H   0  0  0  0  0  0  0  0  0  0  0  0
   -4.6633    2.2911    2.4784 H   0  0  0  0  0  0  0  0  0  0  0  0
  1  2  1  0  0  0  0
  1 36  1  0  0  0  0
  1 37  1  0  0  0  0
  1 38  1  0  0  0  0
  2  3  1  0  0  0  0
  3  4  1  0  0  0  0
  3 20  2  0  0  0  0
  4  5  2  0  0  0  0
  5  6  1  0  0  0  0
  5 39  1  0  0  0  0
  6  7  1  0  0  0  0
  6 18  1  0  0  0  0
  7  8  1  0  0  0  0
  7 40  1  1  0  0  0
  8  9  1  0  0  0  0
  8 10  1  0  0  0  0
  8 41  1  1  0  0  0
  9 42  1  0  0  0  0
 10 11  1  0  0  0  0
 11 12  1  0  0  0  0
 11 14  1  0  0  0  0
 11 43  1  6  0  0  0
 12 13  1  0  0  0  0
 12 44  1  0  0  0  0
 12 45  1  0  0  0  0
 13 46  1  0  0  0  0
 14 15  1  0  0  0  0
 14 16  1  0  0  0  0
 14 47  1  1  0  0  0
 15 48  1  0  0  0  0
 16 17  1  0  0  0  0
 16  7  1  0  0  0  0
 16 49  1  6  0  0  0
 17 50  1  0  0  0  0
 18 19  2  0  0  0  0
 19  4  1  0  0  0  0
 20 21  1  0  0  0  0
 21 22  1  0  0  0  0
 21 29  2  0  0  0  0
 22 23  2  0  0  0  0
 23 24  1  0  0  0  0
 23 51  1  0  0  0  0
 24 25  2  0  0  0  0
 24 52  1  0  0  0  0
 25 26  1  0  0  0  0
 25 27  1  0  0  0  0
 27 28  2  0  0  0  0
 27 53  1  0  0  0  0
 28 22  1  0  0  0  0
 28 54  1  0  0  0  0
 29 30  1  0  0  0  0
 29  2  1  0  0  0  0
 30 31  2  0  0  0  0
 31 32  1  0  0  0  0
 31 55  1  0  0  0  0
 32 33  2  0  0  0  0
 32 56  1  0  0  0  0
 33 34  1  0  0  0  0
 34 35  2  0  0  0  0
 34 57  1  0  0  0  0
 35 30  1  0  0  0  0
 35 58  1  0  0  0  0
M  END
>  <UniqueID>
17

>  <SMILES>
Cn1c(-c2cn([C@H]3[C@@H](O)O[C@H](CO)[C@@H](O)[C@@H]3O)nn2)nc(-c2ccc(F)cc2)c1-c1ccncc1

>  <Energy>
140.71225602157318

>  <Genealogy>
Cn1c(-c2cn([C@H]3[C@@H](O)O[C@H](CO)[C@@H](O)[C@@H]3O)nn2)nc(-c2ccc(F)cc2)c1-c1ccncc1 (chirality)
Cn1c(-c2cn([C@H]3[C@@H](O)O[C@H](CO)[C@@H](O)[C@@H]3O)nn2)nc(-c2ccc(F)cc2)c1-c1ccncc1 (3D coordinates assigned)
Cn1c(-c2cn([C@H]3[C@@H](O)O[C@H](CO)[C@@H](O)[C@@H]3O)nn2)nc(-c2ccc(F)cc2)c1-c1ccncc1 (nonaromatic ring conformer: 140.71225602157318 kcal/mol)

$$$$
76325328
 OpenBabel03032110343D

 58 62  0  0  0  0  0  0  0  0999 V2000
   -2.9384    2.8465   -0.1179 C   0  0  0  0  0  0  0  0  0  0  0  0
   -1.9905    2.1997    0.7934 N   0  0  0  0  0  0  0  0  0  0  0  0
   -1.1624    1.1645    0.5106 C   0  0  0  0  0  0  0  0  0  0  0  0
   -0.9902    0.5469   -0.8184 C   0  0  0  0  0  0  0  0  0  0  0  0
   -0.1022   -0.4566   -1.1411 C   0  0  0  0  0  0  0  0  0  0  0  0
   -0.2798   -0.7063   -2.4522 N   0  0  0  0  0  0  0  0  0  0  0  0
    0.4419   -1.6751   -3.2854 C   0  0  1  0  0  0  0  0  0  0  0  0
    1.9622   -1.3660   -3.3339 C   0  0  1  0  0  0  0  0  0  0  0  0
    2.1815    0.0158   -3.2298 O   0  0  0  0  0  0  0  0  0  0  0  0
    2.6363   -2.0300   -2.2786 O   0  0  0  0  0  0  0  0  0  0  0  0
    2.6646   -3.4438   -2.4630 C   0  0  2  0  0  0  0  0  0  0  0  0
    3.9366   -3.8544   -3.2275 C   0  0  0  0  0  0  0  0  0  0  0  0
    4.0882   -5.2488   -3.2339 O   0  0  0  0  0  0  0  0  0  0  0  0
    1.3699   -4.0239   -3.1175 C   0  0  1  0  0  0  0  0  0  0  0  0
    1.1392   -5.3476   -2.6983 O   0  0  0  0  0  0  0  0  0  0  0  0
    0.1676   -3.1185   -2.7928 C   0  0  2  0  0  0  0  0  0  0  0  0
   -0.9934   -3.6094   -3.4136 O   0  0  0  0  0  0  0  0  0  0  0  0
   -1.2232    0.1033   -2.9067 N   0  0  0  0  0  0  0  0  0  0  0  0
   -1.6743    0.8793   -1.9319 N   0  0  0  0  0  0  0  0  0  0  0  0
   -0.4914    0.7236    1.5957 N   0  0  0  0  0  0  0  0  0  0  0  0
   -0.9051    1.5184    2.6022 C   0  0  0  0  0  0  0  0  0  0  0  0
   -0.4106    1.3823    3.9890 C   0  0  0  0  0  0  0  0  0  0  0  0
   -0.1571    2.5143    4.7855 C   0  0  0  0  0  0  0  0  0  0  0  0
    0.3156    2.3653    6.0928 C   0  0  0  0  0  0  0  0  0  0  0  0
    0.5415    1.0877    6.6153 C   0  0  0  0  0  0  0  0  0  0  0  0
    0.9994    0.9451    7.8836 F   0  0  0  0  0  0  0  0  0  0  0  0
    0.3073   -0.0415    5.8259 C   0  0  0  0  0  0  0  0  0  0  0  0
   -0.1585    0.1044    4.5151 C   0  0  0  0  0  0  0  0  0  0  0  0
   -1.8270    2.4331    2.1145 C   0  0  0  0  0  0  0  0  0  0  0  0
   -2.5852    3.4245    2.9050 C   0  0  0  0  0  0  0  0  0  0  0  0
   -2.5285    4.7860    2.5755 C   0  0  0  0  0  0  0  0  0  0  0  0
   -3.2383    5.7083    3.3466 C   0  0  0  0  0  0  0  0  0  0  0  0
   -3.9741    5.2851    4.4095 N   0  0  0  0  0  0  0  0  0  0  0  0
   -4.0429    3.9709    4.7531 C   0  0  0  0  0  0  0  0  0  0  0  0
   -3.3462    3.0164    4.0098 C   0  0  0  0  0  0  0  0  0  0  0  0
   -3.6072    2.0823   -0.5677 H   0  0  0  0  0  0  0  0  0  0  0  0
   -2.3833    3.3783   -0.9193 H   0  0  0  0  0  0  0  0  0  0  0  0
   -3.5817    3.5763    0.4123 H   0  0  0  0  0  0  0  0  0  0  0  0
    0.6103   -0.9500   -0.4920 H   0  0  0  0  0  0  0  0  0  0  0  0
    0.0660   -1.5837   -4.3309 H   0  0  0  0  0  0  0  0  0  0  0  0
    2.3619   -1.6992   -4.3218 H   0  0  0  0  0  0  0  0  0  0  0  0
    3.1564    0.1549   -3.3534 H   0  0  0  0  0  0  0  0  0  0  0  0
    2.7502   -3.8759   -1.4420 H   0  0  0  0  0  0  0  0  0  0  0  0
    4.8282   -3.3782   -2.7595 H   0  0  0  0  0  0  0  0  0  0  0  0
    3.8851   -3.5002   -4.2768 H   0  0  0  0  0  0  0  0  0  0  0  0
    4.3754   -5.5047   -2.3182 H   0  0  0  0  0  0  0  0  0  0  0  0
    1.4903   -4.0392   -4.2238 H   0  0  0  0  0  0  0  0  0  0  0  0
    0.9800   -5.3343   -1.7188 H   0  0  0  0  0  0  0  0  0  0  0  0
    0.0280   -3.1122   -1.6860 H   0  0  0  0  0  0  0  0  0  0  0  0
   -1.3411   -4.3425   -2.8406 H   0  0  0  0  0  0  0  0  0  0  0  0
   -0.3056    3.5125    4.3947 H   0  0  0  0  0  0  0  0  0  0  0  0
    0.5124    3.2401    6.6990 H   0  0  0  0  0  0  0  0  0  0  0  0
    0.4857   -1.0306    6.2291 H   0  0  0  0  0  0  0  0  0  0  0  0
   -0.3417   -0.7808    3.9187 H   0  0  0  0  0  0  0  0  0  0  0  0
   -1.9349    5.1284    1.7365 H   0  0  0  0  0  0  0  0  0  0  0  0
   -3.2002    6.7621    3.1035 H   0  0  0  0  0  0  0  0  0  0  0  0
   -4.6360    3.6667    5.6059 H   0  0  0  0  0  0  0  0  0  0  0  0
   -3.4031    1.9707    4.2878 H   0  0  0  0  0  0  0  0  0  0  0  0
  1  2  1  0  0  0  0
  1 36  1  0  0  0  0
  1 37  1  0  0  0  0
  1 38  1  0  0  0  0
  2  3  1  0  0  0  0
  3  4  1  0  0  0  0
  3 20  2  0  0  0  0
  4  5  2  0  0  0  0
  5  6  1  0  0  0  0
  5 39  1  0  0  0  0
  6  7  1  0  0  0  0
  6 18  1  0  0  0  0
  7  8  1  0  0  0  0
  7 40  1  6  0  0  0
  8  9  1  0  0  0  0
  8 10  1  0  0  0  0
  8 41  1  6  0  0  0
  9 42  1  0  0  0  0
 10 11  1  0  0  0  0
 11 12  1  0  0  0  0
 11 14  1  0  0  0  0
 11 43  1  1  0  0  0
 12 13  1  0  0  0  0
 12 44  1  0  0  0  0
 12 45  1  0  0  0  0
 13 46  1  0  0  0  0
 14 15  1  0  0  0  0
 14 16  1  0  0  0  0
 14 47  1  6  0  0  0
 15 48  1  0  0  0  0
 16 17  1  0  0  0  0
 16  7  1  0  0  0  0
 16 49  1  1  0  0  0
 17 50  1  0  0  0  0
 18 19  2  0  0  0  0
 19  4  1  0  0  0  0
 20 21  1  0  0  0  0
 21 22  1  0  0  0  0
 21 29  2  0  0  0  0
 22 23  2  0  0  0  0
 23 24  1  0  0  0  0
 23 51  1  0  0  0  0
 24 25  2  0  0  0  0
 24 52  1  0  0  0  0
 25 26  1  0  0  0  0
 25 27  1  0  0  0  0
 27 28  2  0  0  0  0
 27 53  1  0  0  0  0
 28 22  1  0  0  0  0
 28 54  1  0  0  0  0
 29 30  1  0  0  0  0
 29  2  1  0  0  0  0
 30 31  2  0  0  0  0
 31 32  1  0  0  0  0
 31 55  1  0  0  0  0
 32 33  2  0  0  0  0
 32 56  1  0  0  0  0
 33 34  1  0  0  0  0
 34 35  2  0  0  0  0
 34 57  1  0  0  0  0
 35 30  1  0  0  0  0
 35 58  1  0  0  0  0
M  END
>  <UniqueID>
18

>  <SMILES>
Cn1c(-c2cn([C@H]3[C@@H](O)O[C@H](CO)[C@@H](O)[C@@H]3O)nn2)nc(-c2ccc(F)cc2)c1-c1ccncc1

>  <Energy>
148.86975747182868

>  <Genealogy>
Cn1c(-c2cn([C@H]3[C@@H](O)O[C@H](CO)[C@@H](O)[C@@H]3O)nn2)nc(-c2ccc(F)cc2)c1-c1ccncc1 (chirality)
Cn1c(-c2cn([C@H]3[C@@H](O)O[C@H](CO)[C@@H](O)[C@@H]3O)nn2)nc(-c2ccc(F)cc2)c1-c1ccncc1 (3D coordinates assigned)
Cn1c(-c2cn([C@H]3[C@@H](O)O[C@H](CO)[C@@H](O)[C@@H]3O)nn2)nc(-c2ccc(F)cc2)c1-c1ccncc1 (nonaromatic ring conformer: 148.86975747182868 kcal/mol)

$$$$
57376616
 OpenBabel03032110343D

 30 30  0  0  0  0  0  0  0  0999 V2000
   -1.9237    2.7790    0.7432 H   0  0  0  0  0  0  0  0  0  0  0  0
   -2.5935    2.0442    0.5471 O   0  0  0  0  0  0  0  0  0  0  0  0
   -2.2627    0.7037    0.7235 C   0  0  0  0  0  0  0  0  0  0  0  0
   -1.0740    0.3980    1.1631 N   0  0  0  0  0  0  0  0  0  0  0  0
   -0.5359   -0.9487    1.3942 C   0  0  2  0  0  0  0  0  0  0  0  0
   -1.3624   -1.6711    1.5696 H   0  0  0  0  0  0  0  0  0  0  0  0
    0.3426   -0.9239    2.6653 C   0  0  1  0  0  0  0  0  0  0  0  0
   -0.2449   -0.4355    3.4769 H   0  0  0  0  0  0  0  0  0  0  0  0
    0.6749   -2.2265    3.0825 O   0  0  0  0  0  0  0  0  0  0  0  0
   -0.1505   -2.6280    3.4611 H   0  0  0  0  0  0  0  0  0  0  0  0
    1.5148   -0.1441    2.4768 O   0  0  0  0  0  0  0  0  0  0  0  0
    2.3392   -0.6800    1.4522 C   0  0  2  0  0  0  0  0  0  0  0  0
    2.6098   -1.7380    1.6762 H   0  0  0  0  0  0  0  0  0  0  0  0
    3.6567    0.1080    1.4089 C   0  0  0  0  0  0  0  0  0  0  0  0
    4.3018   -0.2607    0.5784 H   0  0  0  0  0  0  0  0  0  0  0  0
    3.4478    1.1834    1.2248 H   0  0  0  0  0  0  0  0  0  0  0  0
    4.3344   -0.0057    2.6313 O   0  0  0  0  0  0  0  0  0  0  0  0
    4.7490   -0.9077    2.6442 H   0  0  0  0  0  0  0  0  0  0  0  0
    1.6206   -0.6302    0.0873 C   0  0  2  0  0  0  0  0  0  0  0  0
    2.2752   -1.1178   -0.6738 H   0  0  0  0  0  0  0  0  0  0  0  0
    1.3735    0.7057   -0.2772 O   0  0  0  0  0  0  0  0  0  0  0  0
    1.2613    0.7206   -1.2634 H   0  0  0  0  0  0  0  0  0  0  0  0
    0.2982   -1.4186    0.1837 C   0  0  2  0  0  0  0  0  0  0  0  0
    0.5410   -2.4968    0.3394 H   0  0  0  0  0  0  0  0  0  0  0  0
   -0.4436   -1.2867   -1.0011 O   0  0  0  0  0  0  0  0  0  0  0  0
    0.0255   -1.8210   -1.6942 H   0  0  0  0  0  0  0  0  0  0  0  0
   -3.3065   -0.3326    0.4249 C   0  0  0  0  0  0  0  0  0  0  0  0
   -4.2005    0.1494   -0.0236 H   0  0  0  0  0  0  0  0  0  0  0  0
   -3.6156   -0.8370    1.3641 H   0  0  0  0  0  0  0  0  0  0  0  0
   -2.9213   -1.0829   -0.2945 H   0  0  0  0  0  0  0  0  0  0  0  0
  1  2  1  0  0  0  0
  2  3  1  0  0  0  0
  3  4  2  0  0  0  0
  3 27  1  0  0  0  0
  4  5  1  0  0  0  0
  5  6  1  1  0  0  0
  5  7  1  0  0  0  0
  7  8  1  1  0  0  0
  7  9  1  0  0  0  0
  7 11  1  0  0  0  0
  9 10  1  0  0  0  0
 11 12  1  0  0  0  0
 12 13  1  1  0  0  0
 12 14  1  0  0  0  0
 12 19  1  0  0  0  0
 14 15  1  0  0  0  0
 14 16  1  0  0  0  0
 14 17  1  0  0  0  0
 17 18  1  0  0  0  0
 19 20  1  6  0  0  0
 19 21  1  0  0  0  0
 19 23  1  0  0  0  0
 21 22  1  0  0  0  0
 23 24  1  1  0  0  0
 23 25  1  0  0  0  0
 23  5  1  0  0  0  0
 25 26  1  0  0  0  0
 27 28  1  0  0  0  0
 27 29  1  0  0  0  0
 27 30  1  0  0  0  0
M  END
>  <UniqueID>
21

>  <SMILES>
C/C(O)=N/[C@@H]1[C@@H](O)O[C@H](CO)[C@H](O)[C@@H]1O

>  <Energy>
29.197487691513857

>  <Genealogy>
CC(O)=N[C@@H]1C(O)O[C@H](CO)[C@H](O)[C@@H]1O (tautomer)
CC(O)=N[C@@H]1[C@@H](O)O[C@H](CO)[C@H](O)[C@@H]1O (chirality)
C/C(O)=N/[C@@H]1[C@@H](O)O[C@H](CO)[C@H](O)[C@@H]1O (cis-trans isomerization)
C/C(O)=N/[C@@H]1[C@@H](O)O[C@H](CO)[C@H](O)[C@@H]1O (3D coordinates assigned)
C/C(O)=N/[C@@H]1[C@@H](O)O[C@H](CO)[C@H](O)[C@@H]1O (nonaromatic ring conformer: 29.197487691513857 kcal/mol)

$$$$
57376616
 OpenBabel03032110343D

 30 30  0  0  0  0  0  0  0  0999 V2000
    1.1869   -2.7897   -3.9336 C   0  0  0  0  0  0  0  0  0  0  0  0
    1.2080   -2.7596   -2.4401 C   0  0  0  0  0  0  0  0  0  0  0  0
    2.1109   -3.3826   -1.8185 O   0  0  0  0  0  0  0  0  0  0  0  0
    0.1797   -2.0612   -1.7240 N   0  0  0  0  0  0  0  0  0  0  0  0
    0.1621   -1.9760   -0.2577 C   0  0  2  0  0  0  0  0  0  0  0  0
   -1.2283   -1.5481    0.2582 C   0  0  2  0  0  0  0  0  0  0  0  0
   -1.6508   -0.3469   -0.3348 O   0  0  0  0  0  0  0  0  0  0  0  0
   -1.2743   -1.4684    1.6776 O   0  0  0  0  0  0  0  0  0  0  0  0
   -0.3150   -0.5782    2.2406 C   0  0  2  0  0  0  0  0  0  0  0  0
   -0.7510    0.8987    2.1198 C   0  0  0  0  0  0  0  0  0  0  0  0
   -0.1184    1.6709    3.1038 O   0  0  0  0  0  0  0  0  0  0  0  0
    1.1370   -0.8789    1.7726 C   0  0  2  0  0  0  0  0  0  0  0  0
    2.0370    0.0961    2.2341 O   0  0  0  0  0  0  0  0  0  0  0  0
    1.2479   -1.0147    0.2456 C   0  0  2  0  0  0  0  0  0  0  0  0
    1.1248    0.2330   -0.3902 O   0  0  0  0  0  0  0  0  0  0  0  0
    2.1577   -3.1561   -4.3297 H   0  0  0  0  0  0  0  0  0  0  0  0
    1.0042   -1.7677   -4.3268 H   0  0  0  0  0  0  0  0  0  0  0  0
    0.3759   -3.4645   -4.2779 H   0  0  0  0  0  0  0  0  0  0  0  0
   -0.6018   -1.6419   -2.2775 H   0  0  0  0  0  0  0  0  0  0  0  0
    0.3658   -2.9895    0.1571 H   0  0  0  0  0  0  0  0  0  0  0  0
   -1.9376   -2.3509   -0.0473 H   0  0  0  0  0  0  0  0  0  0  0  0
   -2.6007   -0.2242   -0.0741 H   0  0  0  0  0  0  0  0  0  0  0  0
   -0.3233   -0.7953    3.3319 H   0  0  0  0  0  0  0  0  0  0  0  0
   -1.8526    0.9605    2.2664 H   0  0  0  0  0  0  0  0  0  0  0  0
   -0.5097    1.3124    1.1197 H   0  0  0  0  0  0  0  0  0  0  0  0
   -0.4468    2.5994    2.9807 H   0  0  0  0  0  0  0  0  0  0  0  0
    1.4284   -1.8672    2.2028 H   0  0  0  0  0  0  0  0  0  0  0  0
    2.1462   -0.0534    3.2096 H   0  0  0  0  0  0  0  0  0  0  0  0
    2.2440   -1.4558    0.0060 H   0  0  0  0  0  0  0  0  0  0  0  0
    2.0090    0.6799   -0.3279 H   0  0  0  0  0  0  0  0  0  0  0  0
  1  2  1  0  0  0  0
  1 16  1  0  0  0  0
  1 17  1  0  0  0  0
  1 18  1  0  0  0  0
  2  3  2  0  0  0  0
  2  4  1  0  0  0  0
  4  5  1  0  0  0  0
  4 19  1  0  0  0  0
  5  6  1  0  0  0  0
  5 20  1  1  0  0  0
  6  7  1  0  0  0  0
  6  8  1  0  0  0  0
  6 21  1  6  0  0  0
  7 22  1  0  0  0  0
  8  9  1  0  0  0  0
  9 10  1  0  0  0  0
  9 12  1  0  0  0  0
  9 23  1  1  0  0  0
 10 11  1  0  0  0  0
 10 24  1  0  0  0  0
 10 25  1  0  0  0  0
 11 26  1  0  0  0  0
 12 13  1  0  0  0  0
 12 14  1  0  0  0  0
 12 27  1  1  0  0  0
 13 28  1  0  0  0  0
 14 15  1  0  0  0  0
 14  5  1  0  0  0  0
 14 29  1  6  0  0  0
 15 30  1  0  0  0  0
M  END
>  <UniqueID>
22

>  <SMILES>
CC(=O)N[C@@H]1[C@H](O)O[C@H](CO)[C@H](O)[C@@H]1O

>  <Energy>
31.811300309657906

>  <Genealogy>
CC(=O)N[C@@H]1[C@H](O)O[C@H](CO)[C@H](O)[C@@H]1O (chirality)
CC(=O)N[C@@H]1[C@H](O)O[C@H](CO)[C@H](O)[C@@H]1O (3D coordinates assigned)
CC(=O)N[C@@H]1[C@H](O)O[C@H](CO)[C@H](O)[C@@H]1O (nonaromatic ring conformer: 31.811300309657906 kcal/mol)

$$$$
57339292
 OpenBabel03032110343D

 35 35  0  0  0  0  0  0  0  0999 V2000
    2.7903    0.8596   -1.2149 N   0  0  0  0  0  0  0  0  0  0  0  0
    1.9646    1.7112   -0.3538 C   0  0  1  0  0  0  0  0  0  0  0  0
    0.5059    1.2127   -0.3478 C   0  0  1  0  0  0  0  0  0  0  0  0
    0.4445   -0.1491    0.0510 O   0  0  0  0  0  0  0  0  0  0  0  0
   -0.8251   -0.7180   -0.2355 C   0  0  1  0  0  0  0  0  0  0  0  0
   -0.7668   -1.5243   -1.5456 C   0  0  0  0  0  0  0  0  0  0  0  0
    0.3068   -2.5718   -1.5295 C   0  0  0  0  0  0  0  0  0  0  0  0
    0.0462   -3.7411   -1.1417 O   0  0  0  0  0  0  0  0  0  0  0  0
    1.6017   -2.2474   -1.9129 O   0  5  0  0  0  0  0  0  0  0  0  0
   -1.2456   -1.5939    0.9106 C   0  0  0  0  0  0  0  0  0  0  0  0
   -0.3845   -2.1839    1.6161 O   0  0  0  0  0  0  0  0  0  0  0  0
   -2.5958   -1.7937    1.1698 O   0  5  0  0  0  0  0  0  0  0  0  0
   -0.2981    2.0359    0.4873 O   0  0  0  0  0  0  0  0  0  0  0  0
    0.1216    1.9787    1.8433 C   0  0  2  0  0  0  0  0  0  0  0  0
   -0.8800    2.7757    2.6919 C   0  0  0  0  0  0  0  0  0  0  0  0
   -2.1745    2.2602    2.5332 O   0  0  0  0  0  0  0  0  0  0  0  0
    1.5481    2.5515    1.9979 C   0  0  1  0  0  0  0  0  0  0  0  0
    1.9612    2.4378    3.3360 O   0  0  0  0  0  0  0  0  0  0  0  0
    2.5173    1.7704    1.0885 C   0  0  2  0  0  0  0  0  0  0  0  0
    3.8006    2.3455    1.1138 O   0  0  0  0  0  0  0  0  0  0  0  0
    3.7247    1.3134   -1.3365 H   0  0  0  0  0  0  0  0  0  0  0  0
    2.9533   -0.0617   -0.7471 H   0  0  0  0  0  0  0  0  0  0  0  0
    1.9619    2.7412   -0.7783 H   0  0  0  0  0  0  0  0  0  0  0  0
    0.1359    1.3202   -1.3939 H   0  0  0  0  0  0  0  0  0  0  0  0
   -1.6273    0.0508   -0.3486 H   0  0  0  0  0  0  0  0  0  0  0  0
   -1.7523   -2.0039   -1.7356 H   0  0  0  0  0  0  0  0  0  0  0  0
   -0.5740   -0.8314   -2.3922 H   0  0  0  0  0  0  0  0  0  0  0  0
    0.1034    0.9298    2.2198 H   0  0  0  0  0  0  0  0  0  0  0  0
   -0.5919    2.7497    3.7675 H   0  0  0  0  0  0  0  0  0  0  0  0
   -0.8823    3.8380    2.3663 H   0  0  0  0  0  0  0  0  0  0  0  0
   -2.2066    1.4095    3.0441 H   0  0  0  0  0  0  0  0  0  0  0  0
    1.5322    3.6246    1.6902 H   0  0  0  0  0  0  0  0  0  0  0  0
    2.6973    3.0911    3.4662 H   0  0  0  0  0  0  0  0  0  0  0  0
    2.6027    0.7332    1.4830 H   0  0  0  0  0  0  0  0  0  0  0  0
    3.7238    3.2712    0.7627 H   0  0  0  0  0  0  0  0  0  0  0  0
  1  2  1  0  0  0  0
  1 21  1  0  0  0  0
  1 22  1  0  0  0  0
  2  3  1  0  0  0  0
  2 23  1  6  0  0  0
  3  4  1  0  0  0  0
  3 13  1  0  0  0  0
  3 24  1  6  0  0  0
  4  5  1  0  0  0  0
  5  6  1  0  0  0  0
  5 10  1  0  0  0  0
  5 25  1  6  0  0  0
  6  7  1  0  0  0  0
  6 26  1  0  0  0  0
  6 27  1  0  0  0  0
  7  8  2  0  0  0  0
  7  9  1  0  0  0  0
 10 11  2  0  0  0  0
 10 12  1  0  0  0  0
 13 14  1  0  0  0  0
 14 15  1  0  0  0  0
 14 17  1  0  0  0  0
 14 28  1  1  0  0  0
 15 16  1  0  0  0  0
 15 29  1  0  0  0  0
 15 30  1  0  0  0  0
 16 31  1  0  0  0  0
 17 18  1  0  0  0  0
 17 19  1  0  0  0  0
 17 32  1  6  0  0  0
 18 33  1  0  0  0  0
 19 20  1  0  0  0  0
 19  2  1  0  0  0  0
 19 34  1  1  0  0  0
 20 35  1  0  0  0  0
M  CHG  2   9  -1  12  -1
M  END
>  <UniqueID>
23

>  <SMILES>
N[C@H]1[C@@H](O[C@@H](CC(=O)[O-])C(=O)[O-])O[C@H](CO)[C@@H](O)[C@@H]1O

>  <Energy>
32.98857411148376

>  <Genealogy>
N[C@H]1[C@@H](O[C@@H](CC(=O)[O-])C(=O)[O-])O[C@H](CO)[C@@H](O)[C@@H]1O (protonated)
N[C@H]1[C@@H](O[C@@H](CC(=O)[O-])C(=O)[O-])O[C@H](CO)[C@@H](O)[C@@H]1O (3D coordinates assigned)
N[C@H]1[C@@H](O[C@@H](CC(=O)[O-])C(=O)[O-])O[C@H](CO)[C@@H](O)[C@@H]1O (nonaromatic ring conformer: 32.98857411148376 kcal/mol)

$$$$
57339292
 OpenBabel03032110343D

 35 35  0  0  0  0  0  0  0  0999 V2000
    3.2522   -0.1892    1.0018 N   0  0  0  0  0  0  0  0  0  0  0  0
    2.3601    0.8406    0.4571 C   0  0  1  0  0  0  0  0  0  0  0  0
    0.8827    0.3686    0.4808 C   0  0  1  0  0  0  0  0  0  0  0  0
    0.8079   -1.0172    0.1996 O   0  0  0  0  0  0  0  0  0  0  0  0
   -0.5388   -1.4547    0.0911 C   0  0  1  0  0  0  0  0  0  0  0  0
   -0.6667   -2.3855   -1.1207 C   0  0  0  0  0  0  0  0  0  0  0  0
   -0.3770   -1.6472   -2.3909 C   0  0  0  0  0  0  0  0  0  0  0  0
   -1.2956   -1.0231   -2.9843 O   0  0  0  0  0  0  0  0  0  0  0  0
    0.9181   -1.6049   -2.8913 O   0  5  0  0  0  0  0  0  0  0  0  0
   -0.9124   -2.2025    1.3378 C   0  0  0  0  0  0  0  0  0  0  0  0
   -2.0414   -2.0270    1.8679 O   0  0  0  0  0  0  0  0  0  0  0  0
   -0.0286   -3.1197    1.8939 O   0  5  0  0  0  0  0  0  0  0  0  0
    0.3167    0.6350    1.7545 O   0  0  0  0  0  0  0  0  0  0  0  0
    0.0898    2.0276    1.9563 C   0  0  2  0  0  0  0  0  0  0  0  0
   -1.3195    2.4050    1.4719 C   0  0  0  0  0  0  0  0  0  0  0  0
   -1.6661    3.6796    1.9380 O   0  0  0  0  0  0  0  0  0  0  0  0
    1.1986    2.9401    1.3439 C   0  0  1  0  0  0  0  0  0  0  0  0
    1.3830    4.0839    2.1394 O   0  0  0  0  0  0  0  0  0  0  0  0
    2.5216    2.1559    1.2708 C   0  0  2  0  0  0  0  0  0  0  0  0
    3.5535    2.9507    0.7402 O   0  0  0  0  0  0  0  0  0  0  0  0
    4.2247    0.1958    1.0255 H   0  0  0  0  0  0  0  0  0  0  0  0
    3.2905   -0.9877    0.3271 H   0  0  0  0  0  0  0  0  0  0  0  0
    2.6356    1.0253   -0.6071 H   0  0  0  0  0  0  0  0  0  0  0  0
    0.3451    0.9253   -0.3257 H   0  0  0  0  0  0  0  0  0  0  0  0
   -1.2706   -0.6205   -0.0513 H   0  0  0  0  0  0  0  0  0  0  0  0
   -1.6970   -2.8025   -1.1710 H   0  0  0  0  0  0  0  0  0  0  0  0
    0.0429   -3.2364   -1.0244 H   0  0  0  0  0  0  0  0  0  0  0  0
    0.1049    2.1803    3.0584 H   0  0  0  0  0  0  0  0  0  0  0  0
   -1.3661    2.3843    0.3607 H   0  0  0  0  0  0  0  0  0  0  0  0
   -2.0473    1.6604    1.8656 H   0  0  0  0  0  0  0  0  0  0  0  0
   -2.5775    3.8621    1.5902 H   0  0  0  0  0  0  0  0  0  0  0  0
    0.9190    3.2385    0.3044 H   0  0  0  0  0  0  0  0  0  0  0  0
    0.7260    4.7608    1.8315 H   0  0  0  0  0  0  0  0  0  0  0  0
    2.8040    1.8962    2.3165 H   0  0  0  0  0  0  0  0  0  0  0  0
    3.2746    3.2389   -0.1683 H   0  0  0  0  0  0  0  0  0  0  0  0
  1  2  1  0  0  0  0
  1 21  1  0  0  0  0
  1 22  1  0  0  0  0
  2  3  1  0  0  0  0
  2 23  1  6  0  0  0
  3  4  1  0  0  0  0
  3 13  1  0  0  0  0
  3 24  1  6  0  0  0
  4  5  1  0  0  0  0
  5  6  1  0  0  0  0
  5 10  1  0  0  0  0
  5 25  1  6  0  0  0
  6  7  1  0  0  0  0
  6 26  1  0  0  0  0
  6 27  1  0  0  0  0
  7  8  2  0  0  0  0
  7  9  1  0  0  0  0
 10 11  2  0  0  0  0
 10 12  1  0  0  0  0
 13 14  1  0  0  0  0
 14 15  1  0  0  0  0
 14 17  1  0  0  0  0
 14 28  1  1  0  0  0
 15 16  1  0  0  0  0
 15 29  1  0  0  0  0
 15 30  1  0  0  0  0
 16 31  1  0  0  0  0
 17 18  1  0  0  0  0
 17 19  1  0  0  0  0
 17 32  1  6  0  0  0
 18 33  1  0  0  0  0
 19 20  1  0  0  0  0
 19  2  1  0  0  0  0
 19 34  1  1  0  0  0
 20 35  1  0  0  0  0
M  CHG  2   9  -1  12  -1
M  END
>  <UniqueID>
24

>  <SMILES>
N[C@H]1[C@@H](O[C@@H](CC(=O)[O-])C(=O)[O-])O[C@H](CO)[C@@H](O)[C@@H]1O

>  <Energy>
40.568492244804474

>  <Genealogy>
N[C@H]1[C@@H](O[C@@H](CC(=O)[O-])C(=O)[O-])O[C@H](CO)[C@@H](O)[C@@H]1O (protonated)
N[C@H]1[C@@H](O[C@@H](CC(=O)[O-])C(=O)[O-])O[C@H](CO)[C@@H](O)[C@@H]1O (3D coordinates assigned)
N[C@H]1[C@@H](O[C@@H](CC(=O)[O-])C(=O)[O-])O[C@H](CO)[C@@H](O)[C@@H]1O (nonaromatic ring conformer: 40.568492244804474 kcal/mol)

$$$$
57339290
 OpenBabel03032110343D

 40 40  0  0  0  0  0  0  0  0999 V2000
   -3.3390   -1.8386   -1.3335 C   0  0  0  0  0  0  0  0  0  0  0  0
   -2.6372   -0.5430   -1.0898 C   0  0  0  0  0  0  0  0  0  0  0  0
   -3.3116    0.4975   -0.8614 O   0  0  0  0  0  0  0  0  0  0  0  0
   -1.2039   -0.4939   -1.1022 N   0  0  0  0  0  0  0  0  0  0  0  0
   -0.4547    0.7196   -0.7542 C   0  0  1  0  0  0  0  0  0  0  0  0
   -0.5102    0.9636    0.7676 C   0  0  1  0  0  0  0  0  0  0  0  0
   -0.0687   -0.1923    1.4650 O   0  0  0  0  0  0  0  0  0  0  0  0
   -0.5075   -0.1858    2.8126 C   0  0  1  0  0  0  0  0  0  0  0  0
   -1.7729   -1.0524    2.9362 C   0  0  0  0  0  0  0  0  0  0  0  0
   -2.3626   -0.9776    4.3117 C   0  0  0  0  0  0  0  0  0  0  0  0
   -2.1033   -1.8688    5.1625 O   0  0  0  0  0  0  0  0  0  0  0  0
   -3.1661    0.0989    4.6654 O   0  5  0  0  0  0  0  0  0  0  0  0
    0.5962   -0.7462    3.6626 C   0  0  0  0  0  0  0  0  0  0  0  0
    0.9451   -0.1570    4.7194 O   0  0  0  0  0  0  0  0  0  0  0  0
    1.2254   -1.9308    3.2985 O   0  5  0  0  0  0  0  0  0  0  0  0
    0.2519    2.1082    1.1269 O   0  0  0  0  0  0  0  0  0  0  0  0
    1.6299    1.9457    0.8248 C   0  0  2  0  0  0  0  0  0  0  0  0
    2.3777    3.1699    1.3794 C   0  0  0  0  0  0  0  0  0  0  0  0
    3.7669    2.9804    1.3386 O   0  0  0  0  0  0  0  0  0  0  0  0
    1.8336    1.7996   -0.7032 C   0  0  1  0  0  0  0  0  0  0  0  0
    3.1896    1.5747   -0.9983 O   0  0  0  0  0  0  0  0  0  0  0  0
    1.0132    0.6033   -1.2144 C   0  0  2  0  0  0  0  0  0  0  0  0
    1.0944    0.5026   -2.6152 O   0  0  0  0  0  0  0  0  0  0  0  0
   -4.4370   -1.6834   -1.3973 H   0  0  0  0  0  0  0  0  0  0  0  0
   -2.9832   -2.2824   -2.2867 H   0  0  0  0  0  0  0  0  0  0  0  0
   -3.1205   -2.5383   -0.5000 H   0  0  0  0  0  0  0  0  0  0  0  0
   -0.6847   -1.3619   -1.3679 H   0  0  0  0  0  0  0  0  0  0  0  0
   -0.9158    1.5925   -1.2697 H   0  0  0  0  0  0  0  0  0  0  0  0
   -1.5753    1.1829    1.0107 H   0  0  0  0  0  0  0  0  0  0  0  0
   -0.7325    0.8444    3.1857 H   0  0  0  0  0  0  0  0  0  0  0  0
   -1.5414   -2.1096    2.6786 H   0  0  0  0  0  0  0  0  0  0  0  0
   -2.5364   -0.6982    2.2111 H   0  0  0  0  0  0  0  0  0  0  0  0
    2.0372    1.0483    1.3454 H   0  0  0  0  0  0  0  0  0  0  0  0
    2.0565    3.3611    2.4292 H   0  0  0  0  0  0  0  0  0  0  0  0
    2.1190    4.0729    0.7862 H   0  0  0  0  0  0  0  0  0  0  0  0
    3.9907    2.3524    2.0742 H   0  0  0  0  0  0  0  0  0  0  0  0
    1.4638    2.7258   -1.2079 H   0  0  0  0  0  0  0  0  0  0  0  0
    3.5736    2.4402   -1.2963 H   0  0  0  0  0  0  0  0  0  0  0  0
    1.4493   -0.3258   -0.7829 H   0  0  0  0  0  0  0  0  0  0  0  0
    0.7056    1.3306   -3.0016 H   0  0  0  0  0  0  0  0  0  0  0  0
  1  2  1  0  0  0  0
  1 24  1  0  0  0  0
  1 25  1  0  0  0  0
  1 26  1  0  0  0  0
  2  3  2  0  0  0  0
  2  4  1  0  0  0  0
  4  5  1  0  0  0  0
  4 27  1  0  0  0  0
  5  6  1  0  0  0  0
  5 28  1  6  0  0  0
  6  7  1  0  0  0  0
  6 16  1  0  0  0  0
  6 29  1  1  0  0  0
  7  8  1  0  0  0  0
  8  9  1  0  0  0  0
  8 13  1  0  0  0  0
  8 30  1  1  0  0  0
  9 10  1  0  0  0  0
  9 31  1  0  0  0  0
  9 32  1  0  0  0  0
 10 11  2  0  0  0  0
 10 12  1  0  0  0  0
 13 14  2  0  0  0  0
 13 15  1  0  0  0  0
 16 17  1  0  0  0  0
 17 18  1  0  0  0  0
 17 20  1  0  0  0  0
 17 33  1  1  0  0  0
 18 19  1  0  0  0  0
 18 34  1  0  0  0  0
 18 35  1  0  0  0  0
 19 36  1  0  0  0  0
 20 21  1  0  0  0  0
 20 22  1  0  0  0  0
 20 37  1  6  0  0  0
 21 38  1  0  0  0  0
 22 23  1  0  0  0  0
 22  5  1  0  0  0  0
 22 39  1  1  0  0  0
 23 40  1  0  0  0  0
M  CHG  2  12  -1  15  -1
M  END
>  <UniqueID>
25

>  <SMILES>
CC(=O)N[C@H]1[C@@H](O[C@@H](CC(=O)[O-])C(=O)[O-])O[C@H](CO)[C@@H](O)[C@@H]1O

>  <Energy>
35.10147414004996

>  <Genealogy>
CC(=O)N[C@H]1[C@@H](O[C@@H](CC(=O)[O-])C(=O)[O-])O[C@H](CO)[C@@H](O)[C@@H]1O (3D coordinates assigned)
CC(=O)N[C@H]1[C@@H](O[C@@H](CC(=O)[O-])C(=O)[O-])O[C@H](CO)[C@@H](O)[C@@H]1O (nonaromatic ring conformer: 35.10147414004996 kcal/mol)

$$$$
57339290
 OpenBabel03032110343D

 40 40  0  0  0  0  0  0  0  0999 V2000
   -0.3070   -4.5635   -2.1652 H   0  0  0  0  0  0  0  0  0  0  0  0
   -0.2059   -4.0401   -1.3038 O   0  0  0  0  0  0  0  0  0  0  0  0
    0.5905   -2.9001   -1.2329 C   0  0  0  0  0  0  0  0  0  0  0  0
    0.6511   -2.2623   -0.0983 N   0  0  0  0  0  0  0  0  0  0  0  0
    1.3913   -1.0313    0.2036 C   0  0  1  0  0  0  0  0  0  0  0  0
    2.4191   -1.0894   -0.2171 H   0  0  0  0  0  0  0  0  0  0  0  0
    0.6654    0.1986   -0.3847 C   0  0  1  0  0  0  0  0  0  0  0  0
    0.7625    0.1097   -1.4876 H   0  0  0  0  0  0  0  0  0  0  0  0
   -0.6970    0.2083    0.0293 O   0  0  0  0  0  0  0  0  0  0  0  0
   -1.5409    0.8325   -0.9246 C   0  0  2  0  0  0  0  0  0  0  0  0
   -1.3080    0.4896   -1.9608 H   0  0  0  0  0  0  0  0  0  0  0  0
   -1.4115    2.3313   -0.8360 C   0  0  0  0  0  0  0  0  0  0  0  0
   -1.0584    2.9958   -1.8455 O   0  0  0  0  0  0  0  0  0  0  0  0
   -1.6773    2.9887    0.3591 O   0  5  0  0  0  0  0  0  0  0  0  0
   -2.9869    0.4027   -0.6354 C   0  0  0  0  0  0  0  0  0  0  0  0
   -3.3044    0.7684    0.3655 H   0  0  0  0  0  0  0  0  0  0  0  0
   -3.0377   -0.7080   -0.6128 H   0  0  0  0  0  0  0  0  0  0  0  0
   -3.9386    0.9053   -1.6792 C   0  0  0  0  0  0  0  0  0  0  0  0
   -4.0677    0.2873   -2.7686 O   0  0  0  0  0  0  0  0  0  0  0  0
   -4.6507    2.0785   -1.4650 O   0  5  0  0  0  0  0  0  0  0  0  0
    1.3241    1.4012   -0.0167 O   0  0  0  0  0  0  0  0  0  0  0  0
    1.3283    1.5985    1.3886 C   0  0  2  0  0  0  0  0  0  0  0  0
    0.2863    1.6160    1.7833 H   0  0  0  0  0  0  0  0  0  0  0  0
    1.9386    2.9815    1.6618 C   0  0  0  0  0  0  0  0  0  0  0  0
    3.0201    2.9904    1.3868 H   0  0  0  0  0  0  0  0  0  0  0  0
    1.4309    3.7290    1.0150 H   0  0  0  0  0  0  0  0  0  0  0  0
    1.7375    3.3623    2.9980 O   0  0  0  0  0  0  0  0  0  0  0  0
    2.6111    3.2773    3.4615 H   0  0  0  0  0  0  0  0  0  0  0  0
    2.1286    0.4763    2.0885 C   0  0  1  0  0  0  0  0  0  0  0  0
    3.1853    0.5162    1.7293 H   0  0  0  0  0  0  0  0  0  0  0  0
    2.0820    0.6529    3.4815 O   0  0  0  0  0  0  0  0  0  0  0  0
    2.8639    0.1725    3.8602 H   0  0  0  0  0  0  0  0  0  0  0  0
    1.5224   -0.8893    1.7298 C   0  0  2  0  0  0  0  0  0  0  0  0
    0.5094   -0.9556    2.1963 H   0  0  0  0  0  0  0  0  0  0  0  0
    2.3485   -1.9072    2.2357 O   0  0  0  0  0  0  0  0  0  0  0  0
    1.7856   -2.7201    2.3246 H   0  0  0  0  0  0  0  0  0  0  0  0
    1.3157   -2.4403   -2.4692 C   0  0  0  0  0  0  0  0  0  0  0  0
    2.3273   -2.0552   -2.2333 H   0  0  0  0  0  0  0  0  0  0  0  0
    0.7209   -1.6589   -2.9844 H   0  0  0  0  0  0  0  0  0  0  0  0
    1.4444   -3.2916   -3.1695 H   0  0  0  0  0  0  0  0  0  0  0  0
  1  2  1  0  0  0  0
  2  3  1  0  0  0  0
  3  4  2  0  0  0  0
  3 37  1  0  0  0  0
  4  5  1  0  0  0  0
  5  6  1  6  0  0  0
  5  7  1  0  0  0  0
  7  8  1  6  0  0  0
  7  9  1  0  0  0  0
  7 21  1  0  0  0  0
  9 10  1  0  0  0  0
 10 11  1  6  0  0  0
 10 12  1  0  0  0  0
 10 15  1  0  0  0  0
 12 13  2  0  0  0  0
 12 14  1  0  0  0  0
 15 16  1  0  0  0  0
 15 17  1  0  0  0  0
 15 18  1  0  0  0  0
 18 19  2  0  0  0  0
 18 20  1  0  0  0  0
 21 22  1  0  0  0  0
 22 23  1  1  0  0  0
 22 24  1  0  0  0  0
 22 29  1  0  0  0  0
 24 25  1  0  0  0  0
 24 26  1  0  0  0  0
 24 27  1  0  0  0  0
 27 28  1  0  0  0  0
 29 30  1  6  0  0  0
 29 31  1  0  0  0  0
 29 33  1  0  0  0  0
 31 32  1  0  0  0  0
 33 34  1  1  0  0  0
 33 35  1  0  0  0  0
 33  5  1  0  0  0  0
 35 36  1  0  0  0  0
 37 38  1  0  0  0  0
 37 39  1  0  0  0  0
 37 40  1  0  0  0  0
M  CHG  2  14  -1  20  -1
M  END
>  <UniqueID>
26

>  <SMILES>
C/C(O)=N/[C@H]1[C@@H](O[C@@H](CC(=O)[O-])C(=O)[O-])O[C@H](CO)[C@@H](O)[C@@H]1O

>  <Energy>
38.7358732712402

>  <Genealogy>
CC(O)=N[C@H]1[C@@H](O[C@@H](CC(=O)[O-])C(=O)[O-])O[C@H](CO)[C@@H](O)[C@@H]1O (tautomer)
C/C(O)=N/[C@H]1[C@@H](O[C@@H](CC(=O)[O-])C(=O)[O-])O[C@H](CO)[C@@H](O)[C@@H]1O (cis-trans isomerization)
C/C(O)=N/[C@H]1[C@@H](O[C@@H](CC(=O)[O-])C(=O)[O-])O[C@H](CO)[C@@H](O)[C@@H]1O (3D coordinates assigned)
C/C(O)=N/[C@H]1[C@@H](O[C@@H](CC(=O)[O-])C(=O)[O-])O[C@H](CO)[C@@H](O)[C@@H]1O (nonaromatic ring conformer: 38.7358732712402 kcal/mol)

$$$$
54758653
 OpenBabel03032110343D

 33 33  0  0  0  0  0  0  0  0999 V2000
   -3.2123   -1.5673   -3.0438 C   0  0  0  0  0  0  0  0  0  0  0  0
   -2.1785   -0.6049   -2.5576 C   0  0  0  0  0  0  0  0  0  0  0  0
   -2.2398    0.6045   -2.9087 O   0  0  0  0  0  0  0  0  0  0  0  0
   -1.1041   -1.0683   -1.7280 N   0  0  0  0  0  0  0  0  0  0  0  0
   -0.0757   -0.1648   -1.1973 C   0  0  2  0  0  0  0  0  0  0  0  0
    1.1559   -0.9585   -0.7202 C   0  0  1  0  0  0  0  0  0  0  0  0
    1.6752   -1.6750   -1.8079 O   0  0  0  0  0  0  0  0  0  0  0  0
    2.1640   -0.0860   -0.2328 O   0  0  0  0  0  0  0  0  0  0  0  0
    1.7430    0.6643    0.8993 C   0  0  2  0  0  0  0  0  0  0  0  0
    1.6601   -0.1959    2.1778 C   0  0  0  0  0  0  0  0  0  0  0  0
    1.5866    0.6475    3.3042 O   0  0  0  0  0  0  0  0  0  0  0  0
    1.4665   -0.3262    4.6984 P   0  0  0  0  0  0  0  0  0  0  0  0
    1.4326    0.5643    5.9189 O   0  0  0  0  0  0  0  0  0  0  0  0
    2.8019   -1.3598    4.8064 O   0  5  0  0  0  0  0  0  0  0  0  0
    0.0454   -1.2430    4.6448 O   0  5  0  0  0  0  0  0  0  0  0  0
    0.4737    1.5090    0.6139 C   0  0  1  0  0  0  0  0  0  0  0  0
    0.8248    2.5660   -0.2440 O   0  0  0  0  0  0  0  0  0  0  0  0
   -0.6456    0.6705   -0.0389 C   0  0  2  0  0  0  0  0  0  0  0  0
   -1.2532   -0.1713    0.9082 O   0  0  0  0  0  0  0  0  0  0  0  0
   -3.5774   -2.1847   -2.1965 H   0  0  0  0  0  0  0  0  0  0  0  0
   -2.7666   -2.2304   -3.8140 H   0  0  0  0  0  0  0  0  0  0  0  0
   -4.0738   -1.0237   -3.4868 H   0  0  0  0  0  0  0  0  0  0  0  0
   -1.0521   -2.0906   -1.5139 H   0  0  0  0  0  0  0  0  0  0  0  0
    0.2575    0.5200   -2.0101 H   0  0  0  0  0  0  0  0  0  0  0  0
    0.8509   -1.6922    0.0605 H   0  0  0  0  0  0  0  0  0  0  0  0
    2.3945   -2.2554   -1.4452 H   0  0  0  0  0  0  0  0  0  0  0  0
    2.5596    1.3941    1.0976 H   0  0  0  0  0  0  0  0  0  0  0  0
    0.7774   -0.8667    2.1353 H   0  0  0  0  0  0  0  0  0  0  0  0
    2.5819   -0.8187    2.2259 H   0  0  0  0  0  0  0  0  0  0  0  0
    0.1006    1.9357    1.5746 H   0  0  0  0  0  0  0  0  0  0  0  0
    0.1112    3.2523   -0.1662 H   0  0  0  0  0  0  0  0  0  0  0  0
   -1.4175    1.3608   -0.4526 H   0  0  0  0  0  0  0  0  0  0  0  0
   -1.8195    0.4053    1.4850 H   0  0  0  0  0  0  0  0  0  0  0  0
  1  2  1  0  0  0  0
  1 20  1  0  0  0  0
  1 21  1  0  0  0  0
  1 22  1  0  0  0  0
  2  3  2  0  0  0  0
  2  4  1  0  0  0  0
  4  5  1  0  0  0  0
  4 23  1  0  0  0  0
  5  6  1  0  0  0  0
  5 24  1  6  0  0  0
  6  7  1  0  0  0  0
  6  8  1  0  0  0  0
  6 25  1  1  0  0  0
  7 26  1  0  0  0  0
  8  9  1  0  0  0  0
  9 10  1  0  0  0  0
  9 16  1  0  0  0  0
  9 27  1  1  0  0  0
 10 11  1  0  0  0  0
 10 28  1  0  0  0  0
 10 29  1  0  0  0  0
 11 12  1  0  0  0  0
 12 13  2  0  0  0  0
 12 14  1  0  0  0  0
 12 15  1  0  0  0  0
 16 17  1  0  0  0  0
 16 18  1  0  0  0  0
 16 30  1  1  0  0  0
 17 31  1  0  0  0  0
 18 19  1  0  0  0  0
 18  5  1  0  0  0  0
 18 32  1  6  0  0  0
 19 33  1  0  0  0  0
M  CHG  2  14  -1  15  -1
M  END
>  <UniqueID>
27

>  <SMILES>
CC(=O)N[C@@H]1[C@@H](O)O[C@H](COP(=O)([O-])[O-])[C@@H](O)[C@@H]1O

>  <Energy>
29.639584813993732

>  <Genealogy>
CC(=O)N[C@@H]1[C@@H](O)O[C@H](COP(=O)([O-])[O-])[C@@H](O)[C@@H]1O (chirality)
CC(=O)N[C@@H]1[C@@H](O)O[C@H](COP(=O)([O-])[O-])[C@@H](O)[C@@H]1O (3D coordinates assigned)
CC(=O)N[C@@H]1[C@@H](O)O[C@H](COP(=O)([O-])[O-])[C@@H](O)[C@@H]1O (nonaromatic ring conformer: 29.639584813993732 kcal/mol)

$$$$
54758653
 OpenBabel03032110343D

 33 33  0  0  0  0  0  0  0  0999 V2000
   -2.4952   -0.1828   -4.4844 C   0  0  0  0  0  0  0  0  0  0  0  0
   -1.7224    0.2463   -3.2800 C   0  0  0  0  0  0  0  0  0  0  0  0
   -1.7055    1.4636   -2.9519 O   0  0  0  0  0  0  0  0  0  0  0  0
   -0.9956   -0.7248   -2.5142 N   0  0  0  0  0  0  0  0  0  0  0  0
   -0.2509   -0.3671   -1.2994 C   0  0  2  0  0  0  0  0  0  0  0  0
    0.7721   -1.4754   -0.9063 C   0  0  1  0  0  0  0  0  0  0  0  0
    2.0077   -1.2236   -1.5233 O   0  0  0  0  0  0  0  0  0  0  0  0
    0.9462   -1.6110    0.5011 O   0  0  0  0  0  0  0  0  0  0  0  0
    0.9995   -0.3506    1.1456 C   0  0  2  0  0  0  0  0  0  0  0  0
    1.5041   -0.5606    2.5785 C   0  0  0  0  0  0  0  0  0  0  0  0
    1.6895    0.6861    3.2065 O   0  0  0  0  0  0  0  0  0  0  0  0
    2.2169    0.4080    4.8032 P   0  0  0  0  0  0  0  0  0  0  0  0
    2.4346    1.7376    5.4878 O   0  0  0  0  0  0  0  0  0  0  0  0
    3.6736   -0.4532    4.7942 O   0  5  0  0  0  0  0  0  0  0  0  0
    1.0483   -0.4679    5.6581 O   0  5  0  0  0  0  0  0  0  0  0  0
   -0.4026    0.3275    1.1225 C   0  0  1  0  0  0  0  0  0  0  0  0
   -0.2471    1.7251    1.1018 O   0  0  0  0  0  0  0  0  0  0  0  0
   -1.2108   -0.1038   -0.1226 C   0  0  2  0  0  0  0  0  0  0  0  0
   -1.9418   -1.2682    0.1757 O   0  0  0  0  0  0  0  0  0  0  0  0
   -3.0299    0.6806   -4.9350 H   0  0  0  0  0  0  0  0  0  0  0  0
   -3.2393   -0.9536   -4.1924 H   0  0  0  0  0  0  0  0  0  0  0  0
   -1.8009   -0.6108   -5.2376 H   0  0  0  0  0  0  0  0  0  0  0  0
   -0.9863   -1.7098   -2.8634 H   0  0  0  0  0  0  0  0  0  0  0  0
    0.3149    0.5719   -1.4991 H   0  0  0  0  0  0  0  0  0  0  0  0
    0.3909   -2.4569   -1.2673 H   0  0  0  0  0  0  0  0  0  0  0  0
    2.5819   -2.0113   -1.3357 H   0  0  0  0  0  0  0  0  0  0  0  0
    1.7437    0.3043    0.6314 H   0  0  0  0  0  0  0  0  0  0  0  0
    0.7645   -1.1856    3.1300 H   0  0  0  0  0  0  0  0  0  0  0  0
    2.4715   -1.1098    2.5213 H   0  0  0  0  0  0  0  0  0  0  0  0
   -0.9919    0.0288    2.0235 H   0  0  0  0  0  0  0  0  0  0  0  0
   -0.2083    2.0310    2.0451 H   0  0  0  0  0  0  0  0  0  0  0  0
   -1.9184    0.7172   -0.3870 H   0  0  0  0  0  0  0  0  0  0  0  0
   -2.6829   -1.3222   -0.4828 H   0  0  0  0  0  0  0  0  0  0  0  0
  1  2  1  0  0  0  0
  1 20  1  0  0  0  0
  1 21  1  0  0  0  0
  1 22  1  0  0  0  0
  2  3  2  0  0  0  0
  2  4  1  0  0  0  0
  4  5  1  0  0  0  0
  4 23  1  0  0  0  0
  5  6  1  0  0  0  0
  5 24  1  6  0  0  0
  6  7  1  0  0  0  0
  6  8  1  0  0  0  0
  6 25  1  6  0  0  0
  7 26  1  0  0  0  0
  8  9  1  0  0  0  0
  9 10  1  0  0  0  0
  9 16  1  0  0  0  0
  9 27  1  6  0  0  0
 10 11  1  0  0  0  0
 10 28  1  0  0  0  0
 10 29  1  0  0  0  0
 11 12  1  0  0  0  0
 12 13  2  0  0  0  0
 12 14  1  0  0  0  0
 12 15  1  0  0  0  0
 16 17  1  0  0  0  0
 16 18  1  0  0  0  0
 16 30  1  1  0  0  0
 17 31  1  0  0  0  0
 18 19  1  0  0  0  0
 18  5  1  0  0  0  0
 18 32  1  6  0  0  0
 19 33  1  0  0  0  0
M  CHG  2  14  -1  15  -1
M  END
>  <UniqueID>
28

>  <SMILES>
CC(=O)N[C@@H]1[C@@H](O)O[C@H](COP(=O)([O-])[O-])[C@@H](O)[C@@H]1O

>  <Energy>
34.203499741926336

>  <Genealogy>
CC(=O)N[C@@H]1[C@@H](O)O[C@H](COP(=O)([O-])[O-])[C@@H](O)[C@@H]1O (chirality)
CC(=O)N[C@@H]1[C@@H](O)O[C@H](COP(=O)([O-])[O-])[C@@H](O)[C@@H]1O (3D coordinates assigned)
CC(=O)N[C@@H]1[C@@H](O)O[C@H](COP(=O)([O-])[O-])[C@@H](O)[C@@H]1O (nonaromatic ring conformer: 34.203499741926336 kcal/mol)

$$$$
54758613
 OpenBabel03032110343D

 33 33  0  0  0  0  0  0  0  0999 V2000
   -0.5618   -2.9402    3.7474 C   0  0  0  0  0  0  0  0  0  0  0  0
   -0.8105   -2.2673    2.4371 C   0  0  0  0  0  0  0  0  0  0  0  0
   -1.2583   -2.9387    1.4686 O   0  0  0  0  0  0  0  0  0  0  0  0
   -0.5069   -0.8740    2.2812 N   0  0  0  0  0  0  0  0  0  0  0  0
   -0.6454   -0.1678    1.0034 C   0  0  1  0  0  0  0  0  0  0  0  0
   -1.2269    1.2459    1.2360 C   0  0  2  0  0  0  0  0  0  0  0  0
   -2.5217    1.1367    1.7666 O   0  0  0  0  0  0  0  0  0  0  0  0
   -1.3131    1.9528    0.0104 O   0  0  0  0  0  0  0  0  0  0  0  0
   -0.0208    2.1820   -0.5274 C   0  0  2  0  0  0  0  0  0  0  0  0
   -0.1485    3.1300   -1.7265 C   0  0  0  0  0  0  0  0  0  0  0  0
    1.1306    3.4373   -2.2285 O   0  0  0  0  0  0  0  0  0  0  0  0
    0.9452    4.4035   -3.6069 S   0  0  0  0  0  0  0  0  0  0  0  0
    0.3109    3.6067   -4.7128 O   0  0  0  0  0  0  0  0  0  0  0  0
    2.3000    4.8710   -4.0567 O   0  0  0  0  0  0  0  0  0  0  0  0
   -0.0046    5.7468   -3.2610 O   0  5  0  0  0  0  0  0  0  0  0  0
    0.6355    0.8407   -0.9281 C   0  0  2  0  0  0  0  0  0  0  0  0
   -0.1303    0.2151   -1.9287 O   0  0  0  0  0  0  0  0  0  0  0  0
    0.7276   -0.0647    0.3160 C   0  0  2  0  0  0  0  0  0  0  0  0
    1.1737   -1.3475   -0.0416 O   0  0  0  0  0  0  0  0  0  0  0  0
    0.5311   -3.0569    3.9008 H   0  0  0  0  0  0  0  0  0  0  0  0
   -1.0407   -3.9422    3.7687 H   0  0  0  0  0  0  0  0  0  0  0  0
   -0.9831   -2.3255    4.5702 H   0  0  0  0  0  0  0  0  0  0  0  0
   -0.0500   -0.3757    3.0790 H   0  0  0  0  0  0  0  0  0  0  0  0
   -1.3460   -0.7172    0.3348 H   0  0  0  0  0  0  0  0  0  0  0  0
   -0.5857    1.8127    1.9566 H   0  0  0  0  0  0  0  0  0  0  0  0
   -2.4259    0.9677    2.7403 H   0  0  0  0  0  0  0  0  0  0  0  0
    0.6256    2.6992    0.2213 H   0  0  0  0  0  0  0  0  0  0  0  0
   -0.7829    2.6501   -2.5060 H   0  0  0  0  0  0  0  0  0  0  0  0
   -0.6516    4.0591   -1.3767 H   0  0  0  0  0  0  0  0  0  0  0  0
    1.6675    1.0419   -1.3017 H   0  0  0  0  0  0  0  0  0  0  0  0
    0.4792   -0.3942   -2.4213 H   0  0  0  0  0  0  0  0  0  0  0  0
    1.4489    0.3907    1.0364 H   0  0  0  0  0  0  0  0  0  0  0  0
    2.1418   -1.2663   -0.2464 H   0  0  0  0  0  0  0  0  0  0  0  0
  1  2  1  0  0  0  0
  1 20  1  0  0  0  0
  1 21  1  0  0  0  0
  1 22  1  0  0  0  0
  2  3  2  0  0  0  0
  2  4  1  0  0  0  0
  4  5  1  0  0  0  0
  4 23  1  0  0  0  0
  5  6  1  0  0  0  0
  5 24  1  6  0  0  0
  6  7  1  0  0  0  0
  6  8  1  0  0  0  0
  6 25  1  1  0  0  0
  7 26  1  0  0  0  0
  8  9  1  0  0  0  0
  9 10  1  0  0  0  0
  9 16  1  0  0  0  0
  9 27  1  1  0  0  0
 10 11  1  0  0  0  0
 10 28  1  0  0  0  0
 10 29  1  0  0  0  0
 11 12  1  0  0  0  0
 12 13  2  0  0  0  0
 12 14  2  0  0  0  0
 12 15  1  0  0  0  0
 16 17  1  0  0  0  0
 16 18  1  0  0  0  0
 16 30  1  6  0  0  0
 17 31  1  0  0  0  0
 18 19  1  0  0  0  0
 18  5  1  0  0  0  0
 18 32  1  1  0  0  0
 19 33  1  0  0  0  0
M  CHG  1  15  -1
M  END
>  <UniqueID>
29

>  <SMILES>
CC(=O)N[C@H]1[C@H](O)O[C@H](COS(=O)(=O)[O-])[C@H](O)[C@@H]1O

>  <Energy>
27.309557592692226

>  <Genealogy>
CC(=O)N[C@H]1[C@H](O)O[C@H](COS(=O)(=O)[O-])[C@H](O)[C@@H]1O (3D coordinates assigned)
CC(=O)N[C@H]1[C@H](O)O[C@H](COS(=O)(=O)[O-])[C@H](O)[C@@H]1O (nonaromatic ring conformer: 27.309557592692226 kcal/mol)

$$$$
54758613
 OpenBabel03032110343D

 33 33  0  0  0  0  0  0  0  0999 V2000
    1.5225   -1.1434    3.6955 C   0  0  0  0  0  0  0  0  0  0  0  0
    0.2457   -1.0358    2.9279 C   0  0  0  0  0  0  0  0  0  0  0  0
   -0.8561   -1.1118    3.5362 O   0  0  0  0  0  0  0  0  0  0  0  0
    0.2800   -0.8511    1.5058 N   0  0  0  0  0  0  0  0  0  0  0  0
   -0.9453   -0.7516    0.7006 C   0  0  1  0  0  0  0  0  0  0  0  0
   -1.6571    0.6164    0.9503 C   0  0  2  0  0  0  0  0  0  0  0  0
   -3.0115    0.3772    1.2239 O   0  0  0  0  0  0  0  0  0  0  0  0
   -1.5695    1.4967   -0.1635 O   0  0  0  0  0  0  0  0  0  0  0  0
   -0.2333    1.5859   -0.6199 C   0  0  2  0  0  0  0  0  0  0  0  0
   -0.0827    2.8452   -1.4833 C   0  0  0  0  0  0  0  0  0  0  0  0
    1.2480    2.9559   -1.9295 O   0  0  0  0  0  0  0  0  0  0  0  0
    1.3565    4.2991   -2.9546 S   0  0  0  0  0  0  0  0  0  0  0  0
    2.7984    4.5196   -3.3133 O   0  0  0  0  0  0  0  0  0  0  0  0
    0.5719    4.0512   -4.2128 O   0  0  0  0  0  0  0  0  0  0  0  0
    0.7722    5.6748   -2.1854 O   0  5  0  0  0  0  0  0  0  0  0  0
    0.1580    0.2778   -1.3646 C   0  0  2  0  0  0  0  0  0  0  0  0
   -0.0668    0.3935   -2.7487 O   0  0  0  0  0  0  0  0  0  0  0  0
   -0.6268   -0.9363   -0.8016 C   0  0  2  0  0  0  0  0  0  0  0  0
   -1.8294   -1.0949   -1.5146 O   0  0  0  0  0  0  0  0  0  0  0  0
    1.3187   -1.2665    4.7803 H   0  0  0  0  0  0  0  0  0  0  0  0
    2.1256   -0.2243    3.5438 H   0  0  0  0  0  0  0  0  0  0  0  0
    2.0978   -2.0214    3.3361 H   0  0  0  0  0  0  0  0  0  0  0  0
    1.2144   -0.8450    1.0375 H   0  0  0  0  0  0  0  0  0  0  0  0
   -1.6161   -1.5873    1.0043 H   0  0  0  0  0  0  0  0  0  0  0  0
   -1.2105    1.1188    1.8413 H   0  0  0  0  0  0  0  0  0  0  0  0
   -3.4038    1.2479    1.4951 H   0  0  0  0  0  0  0  0  0  0  0  0
    0.4607    1.7246    0.2452 H   0  0  0  0  0  0  0  0  0  0  0  0
   -0.7942    2.7894   -2.3383 H   0  0  0  0  0  0  0  0  0  0  0  0
   -0.3484    3.7252   -0.8557 H   0  0  0  0  0  0  0  0  0  0  0  0
    1.2479    0.1142   -1.1920 H   0  0  0  0  0  0  0  0  0  0  0  0
    0.4333   -0.3464   -3.1828 H   0  0  0  0  0  0  0  0  0  0  0  0
   -0.0001   -1.8497   -0.9371 H   0  0  0  0  0  0  0  0  0  0  0  0
   -2.1400   -2.0246   -1.3545 H   0  0  0  0  0  0  0  0  0  0  0  0
  1  2  1  0  0  0  0
  1 20  1  0  0  0  0
  1 21  1  0  0  0  0
  1 22  1  0  0  0  0
  2  3  2  0  0  0  0
  2  4  1  0  0  0  0
  4  5  1  0  0  0  0
  4 23  1  0  0  0  0
  5  6  1  0  0  0  0
  5 24  1  1  0  0  0
  6  7  1  0  0  0  0
  6  8  1  0  0  0  0
  6 25  1  1  0  0  0
  7 26  1  0  0  0  0
  8  9  1  0  0  0  0
  9 10  1  0  0  0  0
  9 16  1  0  0  0  0
  9 27  1  1  0  0  0
 10 11  1  0  0  0  0
 10 28  1  0  0  0  0
 10 29  1  0  0  0  0
 11 12  1  0  0  0  0
 12 13  2  0  0  0  0
 12 14  2  0  0  0  0
 12 15  1  0  0  0  0
 16 17  1  0  0  0  0
 16 18  1  0  0  0  0
 16 30  1  1  0  0  0
 17 31  1  0  0  0  0
 18 19  1  0  0  0  0
 18  5  1  0  0  0  0
 18 32  1  6  0  0  0
 19 33  1  0  0  0  0
M  CHG  1  15  -1
M  END
>  <UniqueID>
30

>  <SMILES>
CC(=O)N[C@H]1[C@H](O)O[C@H](COS(=O)(=O)[O-])[C@H](O)[C@@H]1O

>  <Energy>
36.86157415015704

>  <Genealogy>
CC(=O)N[C@H]1[C@H](O)O[C@H](COS(=O)(=O)[O-])[C@H](O)[C@@H]1O (3D coordinates assigned)
CC(=O)N[C@H]1[C@H](O)O[C@H](COS(=O)(=O)[O-])[C@H](O)[C@@H]1O (nonaromatic ring conformer: 36.86157415015704 kcal/mol)

$$$$
52948856
 OpenBabel03032110343D

 75 78  0  0  0  0  0  0  0  0999 V2000
    2.9149    1.7940   -2.5910 C   0  0  0  0  0  0  0  0  0  0  0  0
    2.0002    2.8654   -2.5342 O   0  0  0  0  0  0  0  0  0  0  0  0
    1.8441    3.3142   -1.1994 C   0  0  0  0  0  0  0  0  0  0  0  0
    0.5972    2.6924   -0.5457 C   0  0  1  0  0  0  0  0  0  0  0  0
    0.6050    3.0568    0.8252 O   0  0  0  0  0  0  0  0  0  0  0  0
   -0.4411    2.4270    1.5524 C   0  0  2  0  0  0  0  0  0  0  0  0
   -0.3130    1.0141    1.5274 O   0  0  0  0  0  0  0  0  0  0  0  0
    0.7470    0.6000    2.3625 C   0  0  0  0  0  0  0  0  0  0  0  0
    0.9485   -0.9073    2.2177 C   0  0  0  0  0  0  0  0  0  0  0  0
    1.4099   -1.2658    0.8295 C   0  0  0  0  0  0  0  0  0  0  0  0
    2.7808   -1.2827    0.5220 C   0  0  0  0  0  0  0  0  0  0  0  0
    3.2090   -1.6079   -0.7685 C   0  0  0  0  0  0  0  0  0  0  0  0
    2.2726   -1.9025   -1.7630 C   0  0  0  0  0  0  0  0  0  0  0  0
    0.9073   -1.8672   -1.4703 C   0  0  0  0  0  0  0  0  0  0  0  0
    0.4747   -1.5490   -0.1795 C   0  0  0  0  0  0  0  0  0  0  0  0
   -1.8325    2.8590    1.0118 C   0  0  2  0  0  0  0  0  0  0  0  0
   -2.9519    2.1980    1.7255 N   0  3  0  0  0  0  0  0  0  0  0  0
   -3.0552    2.6158    3.1371 C   0  0  0  0  0  0  0  0  0  0  0  0
   -4.3953    2.1929    3.7652 C   0  0  0  0  0  0  0  0  0  0  0  0
   -4.5362    0.6704    3.8824 C   0  0  0  0  0  0  0  0  0  0  0  0
   -5.7654    0.3323    4.5933 N   0  0  0  0  0  0  0  0  0  0  0  0
   -1.9253    2.5846   -0.5080 C   0  0  2  0  0  0  0  0  0  0  0  0
   -1.9546    1.1833   -0.7413 O   0  0  0  0  0  0  0  0  0  0  0  0
   -3.1351    0.7979   -1.4103 C   0  0  0  0  0  0  0  0  0  0  0  0
   -3.0912   -0.6844   -1.6311 C   0  0  0  0  0  0  0  0  0  0  0  0
   -3.4385   -1.5581   -0.5895 C   0  0  0  0  0  0  0  0  0  0  0  0
   -3.3266   -2.9407   -0.7578 C   0  0  0  0  0  0  0  0  0  0  0  0
   -2.8558   -3.4678   -1.9687 C   0  0  0  0  0  0  0  0  0  0  0  0
   -2.7238   -4.8542   -2.1432 C   0  0  0  0  0  0  0  0  0  0  0  0
   -2.2410   -5.3665   -3.3509 C   0  0  0  0  0  0  0  0  0  0  0  0
   -1.8882   -4.5019   -4.3903 C   0  0  0  0  0  0  0  0  0  0  0  0
   -2.0151   -3.1194   -4.2296 C   0  0  0  0  0  0  0  0  0  0  0  0
   -2.4985   -2.5919   -3.0223 C   0  0  0  0  0  0  0  0  0  0  0  0
   -2.6114   -1.2052   -2.8428 C   0  0  0  0  0  0  0  0  0  0  0  0
   -0.7032    3.1865   -1.2224 C   0  0  2  0  0  0  0  0  0  0  0  0
   -0.7187    2.8122   -2.5765 O   0  0  0  0  0  0  0  0  0  0  0  0
    3.9432    2.1430   -2.3540 H   0  0  0  0  0  0  0  0  0  0  0  0
    2.9222    1.3860   -3.6220 H   0  0  0  0  0  0  0  0  0  0  0  0
    2.6207    0.9705   -1.9059 H   0  0  0  0  0  0  0  0  0  0  0  0
    2.7404    3.1157   -0.5619 H   0  0  0  0  0  0  0  0  0  0  0  0
    1.7297    4.4197   -1.2160 H   0  0  0  0  0  0  0  0  0  0  0  0
    0.6828    1.5872   -0.6534 H   0  0  0  0  0  0  0  0  0  0  0  0
   -0.3730    2.8082    2.5962 H   0  0  0  0  0  0  0  0  0  0  0  0
    1.6993    1.1173    2.1021 H   0  0  0  0  0  0  0  0  0  0  0  0
    0.4995    0.8122    3.4266 H   0  0  0  0  0  0  0  0  0  0  0  0
   -0.0011   -1.4340    2.4557 H   0  0  0  0  0  0  0  0  0  0  0  0
    1.7013   -1.2456    2.9619 H   0  0  0  0  0  0  0  0  0  0  0  0
    3.5163   -1.0472    1.2806 H   0  0  0  0  0  0  0  0  0  0  0  0
    4.2660   -1.6243   -0.9993 H   0  0  0  0  0  0  0  0  0  0  0  0
    2.6037   -2.1498   -2.7632 H   0  0  0  0  0  0  0  0  0  0  0  0
    0.1872   -2.0893   -2.2441 H   0  0  0  0  0  0  0  0  0  0  0  0
   -0.5856   -1.5239    0.0342 H   0  0  0  0  0  0  0  0  0  0  0  0
   -1.9189    3.9627    1.1461 H   0  0  0  0  0  0  0  0  0  0  0  0
   -3.8448    2.4526    1.2406 H   0  0  0  0  0  0  0  0  0  0  0  0
   -2.8361    1.1591    1.6803 H   0  0  0  0  0  0  0  0  0  0  0  0
   -2.2294    2.1707    3.7350 H   0  0  0  0  0  0  0  0  0  0  0  0
   -2.9794    3.7238    3.2160 H   0  0  0  0  0  0  0  0  0  0  0  0
   -4.4563    2.6388    4.7813 H   0  0  0  0  0  0  0  0  0  0  0  0
   -5.2387    2.6031    3.1684 H   0  0  0  0  0  0  0  0  0  0  0  0
   -3.6608    0.2454    4.4230 H   0  0  0  0  0  0  0  0  0  0  0  0
   -4.5770    0.2207    2.8675 H   0  0  0  0  0  0  0  0  0  0  0  0
   -5.6567    0.6237    5.5926 H   0  0  0  0  0  0  0  0  0  0  0  0
   -5.8525   -0.7102    4.5981 H   0  0  0  0  0  0  0  0  0  0  0  0
   -2.8291    3.1208   -0.8913 H   0  0  0  0  0  0  0  0  0  0  0  0
   -3.2192    1.3214   -2.3903 H   0  0  0  0  0  0  0  0  0  0  0  0
   -4.0328    1.0480   -0.8005 H   0  0  0  0  0  0  0  0  0  0  0  0
   -3.7825   -1.1662    0.3599 H   0  0  0  0  0  0  0  0  0  0  0  0
   -3.5976   -3.5960    0.0614 H   0  0  0  0  0  0  0  0  0  0  0  0
   -2.9893   -5.5388   -1.3467 H   0  0  0  0  0  0  0  0  0  0  0  0
   -2.1379   -6.4360   -3.4818 H   0  0  0  0  0  0  0  0  0  0  0  0
   -1.5137   -4.9047   -5.3227 H   0  0  0  0  0  0  0  0  0  0  0  0
   -1.7328   -2.4640   -5.0447 H   0  0  0  0  0  0  0  0  0  0  0  0
   -2.3138   -0.5298   -3.6376 H   0  0  0  0  0  0  0  0  0  0  0  0
   -0.7444    4.2991   -1.1369 H   0  0  0  0  0  0  0  0  0  0  0  0
   -1.3934    3.3862   -3.0245 H   0  0  0  0  0  0  0  0  0  0  0  0
  1  2  1  0  0  0  0
  1 37  1  0  0  0  0
  1 38  1  0  0  0  0
  1 39  1  0  0  0  0
  2  3  1  0  0  0  0
  3  4  1  0  0  0  0
  3 40  1  0  0  0  0
  3 41  1  0  0  0  0
  4  5  1  0  0  0  0
  4 42  1  6  0  0  0
  5  6  1  0  0  0  0
  6  7  1  0  0  0  0
  6 16  1  0  0  0  0
  6 43  1  1  0  0  0
  7  8  1  0  0  0  0
  8  9  1  0  0  0  0
  8 44  1  0  0  0  0
  8 45  1  0  0  0  0
  9 10  1  0  0  0  0
  9 46  1  0  0  0  0
  9 47  1  0  0  0  0
 10 11  2  0  0  0  0
 11 12  1  0  0  0  0
 11 48  1  0  0  0  0
 12 13  2  0  0  0  0
 12 49  1  0  0  0  0
 13 14  1  0  0  0  0
 13 50  1  0  0  0  0
 14 15  2  0  0  0  0
 14 51  1  0  0  0  0
 15 10  1  0  0  0  0
 15 52  1  0  0  0  0
 16 17  1  0  0  0  0
 16 22  1  0  0  0  0
 16 53  1  1  0  0  0
 17 18  1  0  0  0  0
 17 54  1  0  0  0  0
 17 55  1  0  0  0  0
 18 19  1  0  0  0  0
 18 56  1  0  0  0  0
 18 57  1  0  0  0  0
 19 20  1  0  0  0  0
 19 58  1  0  0  0  0
 19 59  1  0  0  0  0
 20 21  1  0  0  0  0
 20 60  1  0  0  0  0
 20 61  1  0  0  0  0
 21 62  1  0  0  0  0
 21 63  1  0  0  0  0
 22 23  1  0  0  0  0
 22 35  1  0  0  0  0
 22 64  1  6  0  0  0
 23 24  1  0  0  0  0
 24 25  1  0  0  0  0
 24 65  1  0  0  0  0
 24 66  1  0  0  0  0
 25 26  2  0  0  0  0
 26 27  1  0  0  0  0
 26 67  1  0  0  0  0
 27 28  2  0  0  0  0
 27 68  1  0  0  0  0
 28 29  1  0  0  0  0
 29 30  2  0  0  0  0
 29 69  1  0  0  0  0
 30 31  1  0  0  0  0
 30 70  1  0  0  0  0
 31 32  2  0  0  0  0
 31 71  1  0  0  0  0
 32 33  1  0  0  0  0
 32 72  1  0  0  0  0
 33 34  2  0  0  0  0
 33 28  1  0  0  0  0
 34 25  1  0  0  0  0
 34 73  1  0  0  0  0
 35 36  1  0  0  0  0
 35  4  1  0  0  0  0
 35 74  1  1  0  0  0
 36 75  1  0  0  0  0
M  CHG  1  17   1
M  END
>  <UniqueID>
31

>  <SMILES>
COC[C@H]1O[C@H](OCCc2ccccc2)[C@H]([NH2+]CCCN)[C@H](OCc2ccc3ccccc3c2)[C@@H]1O

>  <Energy>
74.4083140286943

>  <Genealogy>
COC[C@H]1OC(OCCc2ccccc2)[C@H]([NH2+]CCCN)C(OCc2ccc3ccccc3c2)[C@@H]1O (protonated)
COC[C@H]1O[C@H](OCCc2ccccc2)[C@H]([NH2+]CCCN)[C@H](OCc2ccc3ccccc3c2)[C@@H]1O (chirality)
COC[C@H]1O[C@H](OCCc2ccccc2)[C@H]([NH2+]CCCN)[C@H](OCc2ccc3ccccc3c2)[C@@H]1O (3D coordinates assigned)
COC[C@H]1O[C@H](OCCc2ccccc2)[C@H]([NH2+]CCCN)[C@H](OCc2ccc3ccccc3c2)[C@@H]1O (nonaromatic ring conformer: 74.4083140286943 kcal/mol)

$$$$
52948856
 OpenBabel03032110343D

 75 78  0  0  0  0  0  0  0  0999 V2000
    1.3065   -1.8400    4.8857 C   0  0  0  0  0  0  0  0  0  0  0  0
    1.1909   -1.3006    3.5896 O   0  0  0  0  0  0  0  0  0  0  0  0
   -0.0749   -1.6330    3.0564 C   0  0  0  0  0  0  0  0  0  0  0  0
   -0.2582   -0.9676    1.6853 C   0  0  1  0  0  0  0  0  0  0  0  0
   -0.0936    0.4328    1.8446 O   0  0  0  0  0  0  0  0  0  0  0  0
   -0.4007    1.1202    0.6422 C   0  0  1  0  0  0  0  0  0  0  0  0
   -0.3006    2.5104    0.8745 O   0  0  0  0  0  0  0  0  0  0  0  0
   -1.4395    2.9786    1.5705 C   0  0  0  0  0  0  0  0  0  0  0  0
   -1.1444    4.3622    2.1493 C   0  0  0  0  0  0  0  0  0  0  0  0
   -0.0769    4.2790    3.2103 C   0  0  0  0  0  0  0  0  0  0  0  0
    1.2808    4.3270    2.8519 C   0  0  0  0  0  0  0  0  0  0  0  0
    2.2714    4.1916    3.8276 C   0  0  0  0  0  0  0  0  0  0  0  0
    1.9144    4.0012    5.1647 C   0  0  0  0  0  0  0  0  0  0  0  0
    0.5663    3.9391    5.5277 C   0  0  0  0  0  0  0  0  0  0  0  0
   -0.4281    4.0739    4.5559 C   0  0  0  0  0  0  0  0  0  0  0  0
    0.6288    0.7278   -0.4478 C   0  0  2  0  0  0  0  0  0  0  0  0
    0.5766    1.5561   -1.6819 N   0  3  0  0  0  0  0  0  0  0  0  0
   -0.7576    1.7501   -2.2885 C   0  0  0  0  0  0  0  0  0  0  0  0
   -0.7561    2.8830   -3.3361 C   0  0  0  0  0  0  0  0  0  0  0  0
    0.2019    2.6641   -4.5171 C   0  0  0  0  0  0  0  0  0  0  0  0
   -0.1744    1.4821   -5.2903 N   0  0  0  0  0  0  0  0  0  0  0  0
    0.5677   -0.7984   -0.7110 C   0  0  2  0  0  0  0  0  0  0  0  0
   -0.6955   -1.1507   -1.2659 O   0  0  0  0  0  0  0  0  0  0  0  0
   -0.5730   -1.8131   -2.5132 C   0  0  0  0  0  0  0  0  0  0  0  0
   -0.3660   -3.2883   -2.3140 C   0  0  0  0  0  0  0  0  0  0  0  0
    0.8457   -3.8953   -2.6812 C   0  0  0  0  0  0  0  0  0  0  0  0
    1.0543   -5.2565   -2.4435 C   0  0  0  0  0  0  0  0  0  0  0  0
    0.0564   -6.0270   -1.8300 C   0  0  0  0  0  0  0  0  0  0  0  0
    0.2620   -7.3923   -1.5765 C   0  0  0  0  0  0  0  0  0  0  0  0
   -0.7364   -8.1478   -0.9550 C   0  0  0  0  0  0  0  0  0  0  0  0
   -1.9434   -7.5493   -0.5859 C   0  0  0  0  0  0  0  0  0  0  0  0
   -2.1624   -6.1921   -0.8367 C   0  0  0  0  0  0  0  0  0  0  0  0
   -1.1688   -5.4219   -1.4598 C   0  0  0  0  0  0  0  0  0  0  0  0
   -1.3733   -4.0576   -1.7091 C   0  0  0  0  0  0  0  0  0  0  0  0
    0.7508   -1.5189    0.6463 C   0  0  2  0  0  0  0  0  0  0  0  0
    0.5741   -2.9032    0.4942 O   0  0  0  0  0  0  0  0  0  0  0  0
    0.5467   -1.4074    5.5745 H   0  0  0  0  0  0  0  0  0  0  0  0
    1.2304   -2.9497    4.8701 H   0  0  0  0  0  0  0  0  0  0  0  0
    2.3052   -1.5756    5.2875 H   0  0  0  0  0  0  0  0  0  0  0  0
   -0.8901   -1.2657    3.7207 H   0  0  0  0  0  0  0  0  0  0  0  0
   -0.1822   -2.7361    2.9492 H   0  0  0  0  0  0  0  0  0  0  0  0
   -1.2963   -1.2004    1.3516 H   0  0  0  0  0  0  0  0  0  0  0  0
   -1.4303    0.8485    0.3015 H   0  0  0  0  0  0  0  0  0  0  0  0
   -1.7347    2.3013    2.4066 H   0  0  0  0  0  0  0  0  0  0  0  0
   -2.2958    3.0638    0.8647 H   0  0  0  0  0  0  0  0  0  0  0  0
   -0.8211    5.0472    1.3322 H   0  0  0  0  0  0  0  0  0  0  0  0
   -2.0795    4.7867    2.5821 H   0  0  0  0  0  0  0  0  0  0  0  0
    1.5707    4.4625    1.8167 H   0  0  0  0  0  0  0  0  0  0  0  0
    3.3159    4.2316    3.5462 H   0  0  0  0  0  0  0  0  0  0  0  0
    2.6831    3.8957    5.9186 H   0  0  0  0  0  0  0  0  0  0  0  0
    0.2933    3.7843    6.5625 H   0  0  0  0  0  0  0  0  0  0  0  0
   -1.4695    4.0086    4.8475 H   0  0  0  0  0  0  0  0  0  0  0  0
    1.6327    0.9138    0.0051 H   0  0  0  0  0  0  0  0  0  0  0  0
    0.9776    2.4959   -1.4498 H   0  0  0  0  0  0  0  0  0  0  0  0
    1.2079    1.1172   -2.3912 H   0  0  0  0  0  0  0  0  0  0  0  0
   -1.1137    0.8178   -2.7666 H   0  0  0  0  0  0  0  0  0  0  0  0
   -1.5042    2.0493   -1.5272 H   0  0  0  0  0  0  0  0  0  0  0  0
   -0.4888    3.8397   -2.8341 H   0  0  0  0  0  0  0  0  0  0  0  0
   -1.7889    2.9991   -3.7319 H   0  0  0  0  0  0  0  0  0  0  0  0
    0.1441    3.5587   -5.1768 H   0  0  0  0  0  0  0  0  0  0  0  0
    1.2558    2.5852   -4.1716 H   0  0  0  0  0  0  0  0  0  0  0  0
    0.3489    1.5141   -6.1953 H   0  0  0  0  0  0  0  0  0  0  0  0
    0.1713    0.6365   -4.7839 H   0  0  0  0  0  0  0  0  0  0  0  0
    1.4384   -1.0790   -1.3542 H   0  0  0  0  0  0  0  0  0  0  0  0
   -1.5274   -1.6777   -3.0653 H   0  0  0  0  0  0  0  0  0  0  0  0
    0.2103   -1.3604   -3.1647 H   0  0  0  0  0  0  0  0  0  0  0  0
    1.6345   -3.3129   -3.1422 H   0  0  0  0  0  0  0  0  0  0  0  0
    1.9974   -5.7048   -2.7328 H   0  0  0  0  0  0  0  0  0  0  0  0
    1.1919   -7.8733   -1.8563 H   0  0  0  0  0  0  0  0  0  0  0  0
   -0.5740   -9.1999   -0.7589 H   0  0  0  0  0  0  0  0  0  0  0  0
   -2.7132   -8.1380   -0.1043 H   0  0  0  0  0  0  0  0  0  0  0  0
   -3.1048   -5.7454   -0.5413 H   0  0  0  0  0  0  0  0  0  0  0  0
   -2.3047   -3.5865   -1.4183 H   0  0  0  0  0  0  0  0  0  0  0  0
    1.7825   -1.3136    1.0209 H   0  0  0  0  0  0  0  0  0  0  0  0
    1.4313   -3.2646    0.1500 H   0  0  0  0  0  0  0  0  0  0  0  0
  1  2  1  0  0  0  0
  1 37  1  0  0  0  0
  1 38  1  0  0  0  0
  1 39  1  0  0  0  0
  2  3  1  0  0  0  0
  3  4  1  0  0  0  0
  3 40  1  0  0  0  0
  3 41  1  0  0  0  0
  4  5  1  0  0  0  0
  4 42  1  6  0  0  0
  5  6  1  0  0  0  0
  6  7  1  0  0  0  0
  6 16  1  0  0  0  0
  6 43  1  6  0  0  0
  7  8  1  0  0  0  0
  8  9  1  0  0  0  0
  8 44  1  0  0  0  0
  8 45  1  0  0  0  0
  9 10  1  0  0  0  0
  9 46  1  0  0  0  0
  9 47  1  0  0  0  0
 10 11  2  0  0  0  0
 11 12  1  0  0  0  0
 11 48  1  0  0  0  0
 12 13  2  0  0  0  0
 12 49  1  0  0  0  0
 13 14  1  0  0  0  0
 13 50  1  0  0  0  0
 14 15  2  0  0  0  0
 14 51  1  0  0  0  0
 15 10  1  0  0  0  0
 15 52  1  0  0  0  0
 16 17  1  0  0  0  0
 16 22  1  0  0  0  0
 16 53  1  1  0  0  0
 17 18  1  0  0  0  0
 17 54  1  0  0  0  0
 17 55  1  0  0  0  0
 18 19  1  0  0  0  0
 18 56  1  0  0  0  0
 18 57  1  0  0  0  0
 19 20  1  0  0  0  0
 19 58  1  0  0  0  0
 19 59  1  0  0  0  0
 20 21  1  0  0  0  0
 20 60  1  0  0  0  0
 20 61  1  0  0  0  0
 21 62  1  0  0  0  0
 21 63  1  0  0  0  0
 22 23  1  0  0  0  0
 22 35  1  0  0  0  0
 22 64  1  6  0  0  0
 23 24  1  0  0  0  0
 24 25  1  0  0  0  0
 24 65  1  0  0  0  0
 24 66  1  0  0  0  0
 25 26  2  0  0  0  0
 26 27  1  0  0  0  0
 26 67  1  0  0  0  0
 27 28  2  0  0  0  0
 27 68  1  0  0  0  0
 28 29  1  0  0  0  0
 29 30  2  0  0  0  0
 29 69  1  0  0  0  0
 30 31  1  0  0  0  0
 30 70  1  0  0  0  0
 31 32  2  0  0  0  0
 31 71  1  0  0  0  0
 32 33  1  0  0  0  0
 32 72  1  0  0  0  0
 33 34  2  0  0  0  0
 33 28  1  0  0  0  0
 34 25  1  0  0  0  0
 34 73  1  0  0  0  0
 35 36  1  0  0  0  0
 35  4  1  0  0  0  0
 35 74  1  1  0  0  0
 36 75  1  0  0  0  0
M  CHG  1  17   1
M  END
>  <UniqueID>
32

>  <SMILES>
COC[C@H]1O[C@@H](OCCc2ccccc2)[C@H]([NH2+]CCCN)[C@H](OCc2ccc3ccccc3c2)[C@@H]1O

>  <Energy>
84.94842869824438

>  <Genealogy>
COC[C@H]1OC(OCCc2ccccc2)[C@H]([NH2+]CCCN)C(OCc2ccc3ccccc3c2)[C@@H]1O (protonated)
COC[C@H]1O[C@@H](OCCc2ccccc2)[C@H]([NH2+]CCCN)[C@H](OCc2ccc3ccccc3c2)[C@@H]1O (chirality)
COC[C@H]1O[C@@H](OCCc2ccccc2)[C@H]([NH2+]CCCN)[C@H](OCc2ccc3ccccc3c2)[C@@H]1O (3D coordinates assigned)
COC[C@H]1O[C@@H](OCCc2ccccc2)[C@H]([NH2+]CCCN)[C@H](OCc2ccc3ccccc3c2)[C@@H]1O (nonaromatic ring conformer: 84.94842869824438 kcal/mol)

$$$$
52944904
 OpenBabel03032110343D

 72 75  0  0  0  0  0  0  0  0999 V2000
   -3.7431   -4.4664    3.7817 C   0  0  0  0  0  0  0  0  0  0  0  0
   -3.4992   -3.4776    2.8084 O   0  0  0  0  0  0  0  0  0  0  0  0
   -2.2798   -2.8252    3.0952 C   0  0  0  0  0  0  0  0  0  0  0  0
   -1.9678   -1.8406    1.9644 C   0  0  1  0  0  0  0  0  0  0  0  0
   -3.0198   -0.8935    1.8878 O   0  0  0  0  0  0  0  0  0  0  0  0
   -2.8744   -0.0458    0.7566 C   0  0  2  0  0  0  0  0  0  0  0  0
   -2.8780   -0.7849   -0.4545 O   0  0  0  0  0  0  0  0  0  0  0  0
   -4.1743   -1.2730   -0.7304 C   0  0  0  0  0  0  0  0  0  0  0  0
   -4.0853   -2.3437   -1.8169 C   0  0  0  0  0  0  0  0  0  0  0  0
   -3.4270   -3.5919   -1.2867 C   0  0  0  0  0  0  0  0  0  0  0  0
   -4.1924   -4.5651   -0.6216 C   0  0  0  0  0  0  0  0  0  0  0  0
   -3.5753   -5.6935   -0.0732 C   0  0  0  0  0  0  0  0  0  0  0  0
   -2.1905   -5.8520   -0.1756 C   0  0  0  0  0  0  0  0  0  0  0  0
   -1.4194   -4.8834   -0.8247 C   0  0  0  0  0  0  0  0  0  0  0  0
   -2.0330   -3.7554   -1.3789 C   0  0  0  0  0  0  0  0  0  0  0  0
   -1.5811    0.8035    0.8608 C   0  0  2  0  0  0  0  0  0  0  0  0
   -1.4475    1.6906   -0.3267 N   0  3  0  0  0  0  0  0  0  0  0  0
   -0.8846    3.0069    0.0185 C   0  0  0  0  0  0  0  0  0  0  0  0
   -0.7507    3.8849   -1.2315 C   0  0  0  0  0  0  0  0  0  0  0  0
   -0.0863    5.1398   -0.8928 N   0  0  0  0  0  0  0  0  0  0  0  0
   -0.3499   -0.1291    1.0338 C   0  0  1  0  0  0  0  0  0  0  0  0
    0.7945    0.6539    1.3419 O   0  0  0  0  0  0  0  0  0  0  0  0
    1.9576    0.1812    0.6838 C   0  0  0  0  0  0  0  0  0  0  0  0
    2.0870    0.8046   -0.6800 C   0  0  0  0  0  0  0  0  0  0  0  0
    1.7333    0.0795   -1.8292 C   0  0  0  0  0  0  0  0  0  0  0  0
    1.7947    0.6767   -3.0902 C   0  0  0  0  0  0  0  0  0  0  0  0
    2.2163    2.0087   -3.2199 C   0  0  0  0  0  0  0  0  0  0  0  0
    2.2615    2.6269   -4.4796 C   0  0  0  0  0  0  0  0  0  0  0  0
    2.6679    3.9597   -4.5933 C   0  0  0  0  0  0  0  0  0  0  0  0
    3.0313    4.6833   -3.4541 C   0  0  0  0  0  0  0  0  0  0  0  0
    2.9930    4.0792   -2.1940 C   0  0  0  0  0  0  0  0  0  0  0  0
    2.5861    2.7422   -2.0662 C   0  0  0  0  0  0  0  0  0  0  0  0
    2.5169    2.1343   -0.8040 C   0  0  0  0  0  0  0  0  0  0  0  0
   -0.6169   -1.1231    2.1886 C   0  0  2  0  0  0  0  0  0  0  0  0
    0.4344   -2.0500    2.3055 O   0  0  0  0  0  0  0  0  0  0  0  0
   -3.7935   -4.0280    4.8028 H   0  0  0  0  0  0  0  0  0  0  0  0
   -4.7244   -4.9396    3.5685 H   0  0  0  0  0  0  0  0  0  0  0  0
   -2.9701   -5.2666    3.7391 H   0  0  0  0  0  0  0  0  0  0  0  0
   -1.4493   -3.5649    3.1670 H   0  0  0  0  0  0  0  0  0  0  0  0
   -2.3560   -2.2634    4.0533 H   0  0  0  0  0  0  0  0  0  0  0  0
   -1.9120   -2.4443    1.0340 H   0  0  0  0  0  0  0  0  0  0  0  0
   -3.7258    0.6752    0.7673 H   0  0  0  0  0  0  0  0  0  0  0  0
   -4.6632   -1.7133    0.1684 H   0  0  0  0  0  0  0  0  0  0  0  0
   -4.8089   -0.4393   -1.1064 H   0  0  0  0  0  0  0  0  0  0  0  0
   -3.5141   -1.9459   -2.6861 H   0  0  0  0  0  0  0  0  0  0  0  0
   -5.1094   -2.5848   -2.1804 H   0  0  0  0  0  0  0  0  0  0  0  0
   -5.2647   -4.4470   -0.5245 H   0  0  0  0  0  0  0  0  0  0  0  0
   -4.1714   -6.4427    0.4346 H   0  0  0  0  0  0  0  0  0  0  0  0
   -1.7143   -6.7243    0.2537 H   0  0  0  0  0  0  0  0  0  0  0  0
   -0.3450   -5.0030   -0.8896 H   0  0  0  0  0  0  0  0  0  0  0  0
   -1.4226   -3.0015   -1.8617 H   0  0  0  0  0  0  0  0  0  0  0  0
   -1.6807    1.4113    1.7908 H   0  0  0  0  0  0  0  0  0  0  0  0
   -0.8527    1.2363   -1.0580 H   0  0  0  0  0  0  0  0  0  0  0  0
   -2.3873    1.8620   -0.7595 H   0  0  0  0  0  0  0  0  0  0  0  0
   -1.5485    3.5242    0.7472 H   0  0  0  0  0  0  0  0  0  0  0  0
    0.1156    2.8930    0.4856 H   0  0  0  0  0  0  0  0  0  0  0  0
   -0.1553    3.3468   -1.9998 H   0  0  0  0  0  0  0  0  0  0  0  0
   -1.7571    4.0916   -1.6578 H   0  0  0  0  0  0  0  0  0  0  0  0
    0.2140    5.5939   -1.7853 H   0  0  0  0  0  0  0  0  0  0  0  0
   -0.7936    5.7742   -0.4553 H   0  0  0  0  0  0  0  0  0  0  0  0
   -0.2384   -0.7101    0.0866 H   0  0  0  0  0  0  0  0  0  0  0  0
    2.0052   -0.9298    0.6212 H   0  0  0  0  0  0  0  0  0  0  0  0
    2.8394    0.4758    1.2920 H   0  0  0  0  0  0  0  0  0  0  0  0
    1.3996   -0.9461   -1.7484 H   0  0  0  0  0  0  0  0  0  0  0  0
    1.5038    0.1013   -3.9622 H   0  0  0  0  0  0  0  0  0  0  0  0
    1.9768    2.0834   -5.3729 H   0  0  0  0  0  0  0  0  0  0  0  0
    2.6978    4.4334   -5.5660 H   0  0  0  0  0  0  0  0  0  0  0  0
    3.3401    5.7166   -3.5466 H   0  0  0  0  0  0  0  0  0  0  0  0
    3.2743    4.6573   -1.3214 H   0  0  0  0  0  0  0  0  0  0  0  0
    2.7793    2.6986    0.0846 H   0  0  0  0  0  0  0  0  0  0  0  0
   -0.6759   -0.5494    3.1409 H   0  0  0  0  0  0  0  0  0  0  0  0
    0.4539   -2.5889    1.4729 H   0  0  0  0  0  0  0  0  0  0  0  0
  1  2  1  0  0  0  0
  1 36  1  0  0  0  0
  1 37  1  0  0  0  0
  1 38  1  0  0  0  0
  2  3  1  0  0  0  0
  3  4  1  0  0  0  0
  3 39  1  0  0  0  0
  3 40  1  0  0  0  0
  4  5  1  0  0  0  0
  4 41  1  6  0  0  0
  5  6  1  0  0  0  0
  6  7  1  0  0  0  0
  6 16  1  0  0  0  0
  6 42  1  6  0  0  0
  7  8  1  0  0  0  0
  8  9  1  0  0  0  0
  8 43  1  0  0  0  0
  8 44  1  0  0  0  0
  9 10  1  0  0  0  0
  9 45  1  0  0  0  0
  9 46  1  0  0  0  0
 10 11  2  0  0  0  0
 11 12  1  0  0  0  0
 11 47  1  0  0  0  0
 12 13  2  0  0  0  0
 12 48  1  0  0  0  0
 13 14  1  0  0  0  0
 13 49  1  0  0  0  0
 14 15  2  0  0  0  0
 14 50  1  0  0  0  0
 15 10  1  0  0  0  0
 15 51  1  0  0  0  0
 16 17  1  0  0  0  0
 16 21  1  0  0  0  0
 16 52  1  1  0  0  0
 17 18  1  0  0  0  0
 17 53  1  0  0  0  0
 17 54  1  0  0  0  0
 18 19  1  0  0  0  0
 18 55  1  0  0  0  0
 18 56  1  0  0  0  0
 19 20  1  0  0  0  0
 19 57  1  0  0  0  0
 19 58  1  0  0  0  0
 20 59  1  0  0  0  0
 20 60  1  0  0  0  0
 21 22  1  0  0  0  0
 21 34  1  0  0  0  0
 21 61  1  6  0  0  0
 22 23  1  0  0  0  0
 23 24  1  0  0  0  0
 23 62  1  0  0  0  0
 23 63  1  0  0  0  0
 24 25  2  0  0  0  0
 25 26  1  0  0  0  0
 25 64  1  0  0  0  0
 26 27  2  0  0  0  0
 26 65  1  0  0  0  0
 27 28  1  0  0  0  0
 28 29  2  0  0  0  0
 28 66  1  0  0  0  0
 29 30  1  0  0  0  0
 29 67  1  0  0  0  0
 30 31  2  0  0  0  0
 30 68  1  0  0  0  0
 31 32  1  0  0  0  0
 31 69  1  0  0  0  0
 32 33  2  0  0  0  0
 32 27  1  0  0  0  0
 33 24  1  0  0  0  0
 33 70  1  0  0  0  0
 34 35  1  0  0  0  0
 34  4  1  0  0  0  0
 34 71  1  1  0  0  0
 35 72  1  0  0  0  0
M  CHG  1  17   1
M  END
>  <UniqueID>
33

>  <SMILES>
COC[C@H]1O[C@H](OCCc2ccccc2)[C@H]([NH2+]CCN)[C@@H](OCc2ccc3ccccc3c2)[C@@H]1O

>  <Energy>
73.75659243463325

>  <Genealogy>
COC[C@H]1OC(OCCc2ccccc2)[C@H]([NH2+]CCN)C(OCc2ccc3ccccc3c2)[C@@H]1O (protonated)
COC[C@H]1O[C@H](OCCc2ccccc2)[C@H]([NH2+]CCN)[C@@H](OCc2ccc3ccccc3c2)[C@@H]1O (chirality)
COC[C@H]1O[C@H](OCCc2ccccc2)[C@H]([NH2+]CCN)[C@@H](OCc2ccc3ccccc3c2)[C@@H]1O (3D coordinates assigned)
COC[C@H]1O[C@H](OCCc2ccccc2)[C@H]([NH2+]CCN)[C@@H](OCc2ccc3ccccc3c2)[C@@H]1O (nonaromatic ring conformer: 73.75659243463325 kcal/mol)

$$$$
52944904
 OpenBabel03032110343D

 71 74  0  0  0  0  0  0  0  0999 V2000
   -1.1178   -3.8582   -3.5155 C   0  0  0  0  0  0  0  0  0  0  0  0
   -1.1921   -2.7682   -2.6247 O   0  0  0  0  0  0  0  0  0  0  0  0
   -0.0562   -2.7689   -1.7851 C   0  0  0  0  0  0  0  0  0  0  0  0
   -0.1320   -1.5662   -0.8383 C   0  0  1  0  0  0  0  0  0  0  0  0
   -1.3304   -1.6625   -0.0863 O   0  0  0  0  0  0  0  0  0  0  0  0
   -1.5302   -0.4984    0.6982 C   0  0  1  0  0  0  0  0  0  0  0  0
   -2.7878   -0.6165    1.3448 O   0  0  0  0  0  0  0  0  0  0  0  0
   -3.7826    0.1745    0.7215 C   0  0  0  0  0  0  0  0  0  0  0  0
   -4.2833   -0.4714   -0.5769 C   0  0  0  0  0  0  0  0  0  0  0  0
   -5.3547    0.3761   -1.2073 C   0  0  0  0  0  0  0  0  0  0  0  0
   -6.7062    0.1742   -0.8811 C   0  0  0  0  0  0  0  0  0  0  0  0
   -7.6945    0.9931   -1.4374 C   0  0  0  0  0  0  0  0  0  0  0  0
   -7.3400    2.0240   -2.3124 C   0  0  0  0  0  0  0  0  0  0  0  0
   -5.9963    2.2386   -2.6318 C   0  0  0  0  0  0  0  0  0  0  0  0
   -5.0053    1.4213   -2.0794 C   0  0  0  0  0  0  0  0  0  0  0  0
   -0.4247   -0.3999    1.7809 C   0  0  2  0  0  0  0  0  0  0  0  0
   -0.5916    0.7982    2.6308 N   0  0  0  0  0  0  0  0  0  0  0  0
   -1.3344    0.5383    3.8743 C   0  0  0  0  0  0  0  0  0  0  0  0
   -0.3631    0.3965    5.0472 C   0  0  0  0  0  0  0  0  0  0  0  0
    0.4776   -0.7861    4.8886 N   0  0  0  0  0  0  0  0  0  0  0  0
    0.9651   -0.3599    1.1120 C   0  0  2  0  0  0  0  0  0  0  0  0
    1.1305    0.8711    0.4173 O   0  0  0  0  0  0  0  0  0  0  0  0
    2.0330    1.7356    1.0826 C   0  0  0  0  0  0  0  0  0  0  0  0
    3.4506    1.4192    0.6884 C   0  0  0  0  0  0  0  0  0  0  0  0
    4.3029    0.7465    1.5779 C   0  0  0  0  0  0  0  0  0  0  0  0
    5.6048    0.4137    1.1960 C   0  0  0  0  0  0  0  0  0  0  0  0
    6.0730    0.7497   -0.0823 C   0  0  0  0  0  0  0  0  0  0  0  0
    7.3789    0.4185   -0.4763 C   0  0  0  0  0  0  0  0  0  0  0  0
    7.8343    0.7615   -1.7525 C   0  0  0  0  0  0  0  0  0  0  0  0
    6.9926    1.4327   -2.6433 C   0  0  0  0  0  0  0  0  0  0  0  0
    5.6885    1.7653   -2.2643 C   0  0  0  0  0  0  0  0  0  0  0  0
    5.2189    1.4282   -0.9854 C   0  0  0  0  0  0  0  0  0  0  0  0
    3.9113    1.7533   -0.5946 C   0  0  0  0  0  0  0  0  0  0  0  0
    1.0890   -1.5329    0.1172 C   0  0  2  0  0  0  0  0  0  0  0  0
    2.3067   -1.4659   -0.5858 O   0  0  0  0  0  0  0  0  0  0  0  0
   -2.0316   -3.8628   -4.1442 H   0  0  0  0  0  0  0  0  0  0  0  0
   -0.2427   -3.7607   -4.1954 H   0  0  0  0  0  0  0  0  0  0  0  0
   -1.0802   -4.8273   -2.9708 H   0  0  0  0  0  0  0  0  0  0  0  0
    0.8744   -2.6906   -2.3933 H   0  0  0  0  0  0  0  0  0  0  0  0
   -0.0216   -3.7027   -1.1770 H   0  0  0  0  0  0  0  0  0  0  0  0
   -0.1433   -0.6488   -1.4732 H   0  0  0  0  0  0  0  0  0  0  0  0
   -1.4650    0.4136    0.0518 H   0  0  0  0  0  0  0  0  0  0  0  0
   -3.4383    1.2200    0.5489 H   0  0  0  0  0  0  0  0  0  0  0  0
   -4.6388    0.2481    1.4256 H   0  0  0  0  0  0  0  0  0  0  0  0
   -3.4440   -0.5911   -1.2943 H   0  0  0  0  0  0  0  0  0  0  0  0
   -4.6778   -1.4876   -0.3572 H   0  0  0  0  0  0  0  0  0  0  0  0
   -6.9931   -0.6127   -0.1941 H   0  0  0  0  0  0  0  0  0  0  0  0
   -8.7348    0.8317   -1.1862 H   0  0  0  0  0  0  0  0  0  0  0  0
   -8.1053    2.6593   -2.7395 H   0  0  0  0  0  0  0  0  0  0  0  0
   -5.7221    3.0421   -3.3038 H   0  0  0  0  0  0  0  0  0  0  0  0
   -3.9666    1.6048   -2.3269 H   0  0  0  0  0  0  0  0  0  0  0  0
   -0.4605   -1.3290    2.3965 H   0  0  0  0  0  0  0  0  0  0  0  0
   -1.0635    1.5654    2.0960 H   0  0  0  0  0  0  0  0  0  0  0  0
   -2.0016    1.4030    4.0917 H   0  0  0  0  0  0  0  0  0  0  0  0
   -1.9890   -0.3588    3.8025 H   0  0  0  0  0  0  0  0  0  0  0  0
   -0.9399    0.3253    5.9972 H   0  0  0  0  0  0  0  0  0  0  0  0
    0.2785    1.3027    5.1004 H   0  0  0  0  0  0  0  0  0  0  0  0
   -0.1256   -1.6310    5.0205 H   0  0  0  0  0  0  0  0  0  0  0  0
    1.1703   -0.7918    5.6719 H   0  0  0  0  0  0  0  0  0  0  0  0
    1.7353   -0.5282    1.9032 H   0  0  0  0  0  0  0  0  0  0  0  0
    1.9013    1.7262    2.1899 H   0  0  0  0  0  0  0  0  0  0  0  0
    1.8042    2.7764    0.7686 H   0  0  0  0  0  0  0  0  0  0  0  0
    3.9580    0.4748    2.5677 H   0  0  0  0  0  0  0  0  0  0  0  0
    6.2446   -0.1062    1.8987 H   0  0  0  0  0  0  0  0  0  0  0  0
    8.0446   -0.1046    0.1998 H   0  0  0  0  0  0  0  0  0  0  0  0
    8.8424    0.5054   -2.0513 H   0  0  0  0  0  0  0  0  0  0  0  0
    7.3504    1.6932   -3.6307 H   0  0  0  0  0  0  0  0  0  0  0  0
    5.0487    2.2843   -2.9684 H   0  0  0  0  0  0  0  0  0  0  0  0
    3.2479    2.2595   -1.2865 H   0  0  0  0  0  0  0  0  0  0  0  0
    1.0940   -2.4782    0.7054 H   0  0  0  0  0  0  0  0  0  0  0  0
    2.2560   -0.6990   -1.2131 H   0  0  0  0  0  0  0  0  0  0  0  0
  1  2  1  0  0  0  0
  1 36  1  0  0  0  0
  1 37  1  0  0  0  0
  1 38  1  0  0  0  0
  2  3  1  0  0  0  0
  3  4  1  0  0  0  0
  3 39  1  0  0  0  0
  3 40  1  0  0  0  0
  4  5  1  0  0  0  0
  4 41  1  6  0  0  0
  5  6  1  0  0  0  0
  6  7  1  0  0  0  0
  6 16  1  0  0  0  0
  6 42  1  6  0  0  0
  7  8  1  0  0  0  0
  8  9  1  0  0  0  0
  8 43  1  0  0  0  0
  8 44  1  0  0  0  0
  9 10  1  0  0  0  0
  9 45  1  0  0  0  0
  9 46  1  0  0  0  0
 10 11  2  0  0  0  0
 11 12  1  0  0  0  0
 11 47  1  0  0  0  0
 12 13  2  0  0  0  0
 12 48  1  0  0  0  0
 13 14  1  0  0  0  0
 13 49  1  0  0  0  0
 14 15  2  0  0  0  0
 14 50  1  0  0  0  0
 15 10  1  0  0  0  0
 15 51  1  0  0  0  0
 16 17  1  0  0  0  0
 16 21  1  0  0  0  0
 16 52  1  1  0  0  0
 17 18  1  0  0  0  0
 17 53  1  0  0  0  0
 18 19  1  0  0  0  0
 18 54  1  0  0  0  0
 18 55  1  0  0  0  0
 19 20  1  0  0  0  0
 19 56  1  0  0  0  0
 19 57  1  0  0  0  0
 20 58  1  0  0  0  0
 20 59  1  0  0  0  0
 21 22  1  0  0  0  0
 21 34  1  0  0  0  0
 21 60  1  1  0  0  0
 22 23  1  0  0  0  0
 23 24  1  0  0  0  0
 23 61  1  0  0  0  0
 23 62  1  0  0  0  0
 24 25  2  0  0  0  0
 25 26  1  0  0  0  0
 25 63  1  0  0  0  0
 26 27  2  0  0  0  0
 26 64  1  0  0  0  0
 27 28  1  0  0  0  0
 28 29  2  0  0  0  0
 28 65  1  0  0  0  0
 29 30  1  0  0  0  0
 29 66  1  0  0  0  0
 30 31  2  0  0  0  0
 30 67  1  0  0  0  0
 31 32  1  0  0  0  0
 31 68  1  0  0  0  0
 32 33  2  0  0  0  0
 32 27  1  0  0  0  0
 33 24  1  0  0  0  0
 33 69  1  0  0  0  0
 34 35  1  0  0  0  0
 34  4  1  0  0  0  0
 34 70  1  1  0  0  0
 35 71  1  0  0  0  0
M  END
>  <UniqueID>
34

>  <SMILES>
COC[C@H]1O[C@@H](OCCc2ccccc2)[C@H](NCCN)[C@H](OCc2ccc3ccccc3c2)[C@@H]1O

>  <Energy>
80.57119762461986

>  <Genealogy>
COC[C@H]1O[C@@H](OCCc2ccccc2)[C@H](NCCN)[C@H](OCc2ccc3ccccc3c2)[C@@H]1O (chirality)
COC[C@H]1O[C@@H](OCCc2ccccc2)[C@H](NCCN)[C@H](OCc2ccc3ccccc3c2)[C@@H]1O (3D coordinates assigned)
COC[C@H]1O[C@@H](OCCc2ccccc2)[C@H](NCCN)[C@H](OCc2ccc3ccccc3c2)[C@@H]1O (nonaromatic ring conformer: 80.57119762461986 kcal/mol)

$$$$
52944903
 OpenBabel03032110343D

 69 72  0  0  0  0  0  0  0  0999 V2000
   -3.3438   -1.4762    4.4329 C   0  0  0  0  0  0  0  0  0  0  0  0
   -1.9387   -1.4282    4.3161 O   0  0  0  0  0  0  0  0  0  0  0  0
   -1.4726   -2.4760    3.4852 C   0  0  0  0  0  0  0  0  0  0  0  0
   -1.3351   -1.9941    2.0315 C   0  0  1  0  0  0  0  0  0  0  0  0
   -0.6175   -0.7718    2.0352 O   0  0  0  0  0  0  0  0  0  0  0  0
   -0.6081   -0.1876    0.7432 C   0  0  1  0  0  0  0  0  0  0  0  0
    0.0513    1.0604    0.8240 O   0  0  0  0  0  0  0  0  0  0  0  0
   -0.7958    2.0488    1.3716 C   0  0  0  0  0  0  0  0  0  0  0  0
    0.0607    3.0925    2.0261 C   0  0  0  0  0  0  0  0  0  0  0  0
    0.2656    3.0688    3.4144 C   0  0  0  0  0  0  0  0  0  0  0  0
    1.1330    3.9800    4.0202 C   0  0  0  0  0  0  0  0  0  0  0  0
    1.8227    4.9206    3.2417 C   0  0  0  0  0  0  0  0  0  0  0  0
    2.7193    5.8219    3.8367 C   0  0  0  0  0  0  0  0  0  0  0  0
    3.4221    6.7372    3.0484 C   0  0  0  0  0  0  0  0  0  0  0  0
    3.2300    6.7663    1.6643 C   0  0  0  0  0  0  0  0  0  0  0  0
    2.3350    5.8781    1.0595 C   0  0  0  0  0  0  0  0  0  0  0  0
    1.6286    4.9471    1.8390 C   0  0  0  0  0  0  0  0  0  0  0  0
    0.7470    4.0318    1.2408 C   0  0  0  0  0  0  0  0  0  0  0  0
    0.1847   -1.0976   -0.2287 C   0  0  2  0  0  0  0  0  0  0  0  0
    0.3599   -0.4932   -1.5719 N   0  3  0  0  0  0  0  0  0  0  0  0
   -0.8674   -0.4231   -2.3951 C   0  0  0  0  0  0  0  0  0  0  0  0
   -0.8510    0.7789   -3.3464 C   0  0  0  0  0  0  0  0  0  0  0  0
   -0.9572    2.0253   -2.5945 N   0  0  0  0  0  0  0  0  0  0  0  0
   -0.4356   -2.5170   -0.2739 C   0  0  1  0  0  0  0  0  0  0  0  0
    0.4365   -3.3672   -1.0038 O   0  0  0  0  0  0  0  0  0  0  0  0
   -0.2828   -4.2432   -1.8424 C   0  0  0  0  0  0  0  0  0  0  0  0
    0.6944   -5.0464   -2.6455 C   0  0  0  0  0  0  0  0  0  0  0  0
    0.9694   -6.3828   -2.3124 C   0  0  0  0  0  0  0  0  0  0  0  0
    1.9170   -7.1067   -3.0424 C   0  0  0  0  0  0  0  0  0  0  0  0
    2.5992   -6.5011   -4.1027 C   0  0  0  0  0  0  0  0  0  0  0  0
    2.3372   -5.1695   -4.4325 C   0  0  0  0  0  0  0  0  0  0  0  0
    1.3905   -4.4419   -3.7061 C   0  0  0  0  0  0  0  0  0  0  0  0
   -0.5947   -3.0455    1.1668 C   0  0  2  0  0  0  0  0  0  0  0  0
   -1.3257   -4.2473    1.1451 O   0  0  0  0  0  0  0  0  0  0  0  0
   -3.6645   -2.3974    4.9672 H   0  0  0  0  0  0  0  0  0  0  0  0
   -3.6770   -0.6056    5.0302 H   0  0  0  0  0  0  0  0  0  0  0  0
   -3.8394   -1.4124    3.4401 H   0  0  0  0  0  0  0  0  0  0  0  0
   -2.1067   -3.3932    3.5377 H   0  0  0  0  0  0  0  0  0  0  0  0
   -0.4689   -2.7753    3.8572 H   0  0  0  0  0  0  0  0  0  0  0  0
   -2.3644   -1.8416    1.6305 H   0  0  0  0  0  0  0  0  0  0  0  0
   -1.6522   -0.0515    0.3724 H   0  0  0  0  0  0  0  0  0  0  0  0
   -1.5165    1.6419    2.1212 H   0  0  0  0  0  0  0  0  0  0  0  0
   -1.3921    2.5161    0.5577 H   0  0  0  0  0  0  0  0  0  0  0  0
   -0.2352    2.3301    4.0284 H   0  0  0  0  0  0  0  0  0  0  0  0
    1.2795    3.9367    5.0935 H   0  0  0  0  0  0  0  0  0  0  0  0
    2.8828    5.8126    4.9081 H   0  0  0  0  0  0  0  0  0  0  0  0
    4.1226    7.4212    3.5119 H   0  0  0  0  0  0  0  0  0  0  0  0
    3.7776    7.4777    1.0575 H   0  0  0  0  0  0  0  0  0  0  0  0
    2.2035    5.9116   -0.0159 H   0  0  0  0  0  0  0  0  0  0  0  0
    0.6098    4.0333    0.1644 H   0  0  0  0  0  0  0  0  0  0  0  0
    1.2027   -1.2065    0.2154 H   0  0  0  0  0  0  0  0  0  0  0  0
    1.0709   -1.0529   -2.0968 H   0  0  0  0  0  0  0  0  0  0  0  0
    0.7818    0.4560   -1.4554 H   0  0  0  0  0  0  0  0  0  0  0  0
   -0.9469   -1.3403   -3.0142 H   0  0  0  0  0  0  0  0  0  0  0  0
   -1.7885   -0.3685   -1.7853 H   0  0  0  0  0  0  0  0  0  0  0  0
    0.0911    0.7724   -3.9355 H   0  0  0  0  0  0  0  0  0  0  0  0
   -1.7077    0.6965   -4.0546 H   0  0  0  0  0  0  0  0  0  0  0  0
   -0.8109    2.8182   -3.2608 H   0  0  0  0  0  0  0  0  0  0  0  0
   -1.9384    2.1118   -2.2435 H   0  0  0  0  0  0  0  0  0  0  0  0
   -1.4564   -2.4424   -0.7186 H   0  0  0  0  0  0  0  0  0  0  0  0
   -0.9265   -4.9194   -1.2434 H   0  0  0  0  0  0  0  0  0  0  0  0
   -0.9325   -3.6797   -2.5495 H   0  0  0  0  0  0  0  0  0  0  0  0
    0.4559   -6.8627   -1.4878 H   0  0  0  0  0  0  0  0  0  0  0  0
    2.1301   -8.1364   -2.7826 H   0  0  0  0  0  0  0  0  0  0  0  0
    3.3394   -7.0611   -4.6603 H   0  0  0  0  0  0  0  0  0  0  0  0
    2.8739   -4.6989   -5.2461 H   0  0  0  0  0  0  0  0  0  0  0  0
    1.2091   -3.4064   -3.9622 H   0  0  0  0  0  0  0  0  0  0  0  0
    0.4262   -3.2134    1.5934 H   0  0  0  0  0  0  0  0  0  0  0  0
   -0.9401   -4.8368    1.8437 H   0  0  0  0  0  0  0  0  0  0  0  0
  1  2  1  0  0  0  0
  1 35  1  0  0  0  0
  1 36  1  0  0  0  0
  1 37  1  0  0  0  0
  2  3  1  0  0  0  0
  3  4  1  0  0  0  0
  3 38  1  0  0  0  0
  3 39  1  0  0  0  0
  4  5  1  0  0  0  0
  4 40  1  6  0  0  0
  5  6  1  0  0  0  0
  6  7  1  0  0  0  0
  6 19  1  0  0  0  0
  6 41  1  6  0  0  0
  7  8  1  0  0  0  0
  8  9  1  0  0  0  0
  8 42  1  0  0  0  0
  8 43  1  0  0  0  0
  9 10  2  0  0  0  0
 10 11  1  0  0  0  0
 10 44  1  0  0  0  0
 11 12  2  0  0  0  0
 11 45  1  0  0  0  0
 12 13  1  0  0  0  0
 13 14  2  0  0  0  0
 13 46  1  0  0  0  0
 14 15  1  0  0  0  0
 14 47  1  0  0  0  0
 15 16  2  0  0  0  0
 15 48  1  0  0  0  0
 16 17  1  0  0  0  0
 16 49  1  0  0  0  0
 17 18  2  0  0  0  0
 17 12  1  0  0  0  0
 18  9  1  0  0  0  0
 18 50  1  0  0  0  0
 19 20  1  0  0  0  0
 19 24  1  0  0  0  0
 19 51  1  1  0  0  0
 20 21  1  0  0  0  0
 20 52  1  0  0  0  0
 20 53  1  0  0  0  0
 21 22  1  0  0  0  0
 21 54  1  0  0  0  0
 21 55  1  0  0  0  0
 22 23  1  0  0  0  0
 22 56  1  0  0  0  0
 22 57  1  0  0  0  0
 23 58  1  0  0  0  0
 23 59  1  0  0  0  0
 24 25  1  0  0  0  0
 24 33  1  0  0  0  0
 24 60  1  6  0  0  0
 25 26  1  0  0  0  0
 26 27  1  0  0  0  0
 26 61  1  0  0  0  0
 26 62  1  0  0  0  0
 27 28  2  0  0  0  0
 28 29  1  0  0  0  0
 28 63  1  0  0  0  0
 29 30  2  0  0  0  0
 29 64  1  0  0  0  0
 30 31  1  0  0  0  0
 30 65  1  0  0  0  0
 31 32  2  0  0  0  0
 31 66  1  0  0  0  0
 32 27  1  0  0  0  0
 32 67  1  0  0  0  0
 33 34  1  0  0  0  0
 33  4  1  0  0  0  0
 33 68  1  1  0  0  0
 34 69  1  0  0  0  0
M  CHG  1  20   1
M  END
>  <UniqueID>
35

>  <SMILES>
COC[C@H]1O[C@@H](OCc2ccc3ccccc3c2)[C@H]([NH2+]CCN)[C@@H](OCc2ccccc2)[C@@H]1O

>  <Energy>
82.44430888244324

>  <Genealogy>
COC[C@H]1OC(OCc2ccc3ccccc3c2)[C@H]([NH2+]CCN)C(OCc2ccccc2)[C@@H]1O (protonated)
COC[C@H]1O[C@@H](OCc2ccc3ccccc3c2)[C@H]([NH2+]CCN)[C@@H](OCc2ccccc2)[C@@H]1O (chirality)
COC[C@H]1O[C@@H](OCc2ccc3ccccc3c2)[C@H]([NH2+]CCN)[C@@H](OCc2ccccc2)[C@@H]1O (3D coordinates assigned)
COC[C@H]1O[C@@H](OCc2ccc3ccccc3c2)[C@H]([NH2+]CCN)[C@@H](OCc2ccccc2)[C@@H]1O (nonaromatic ring conformer: 82.44430888244324 kcal/mol)

$$$$
52944903
 OpenBabel03032110343D

 69 72  0  0  0  0  0  0  0  0999 V2000
   -2.6635   -5.3280    1.8434 C   0  0  0  0  0  0  0  0  0  0  0  0
   -2.4366   -3.9710    1.5376 O   0  0  0  0  0  0  0  0  0  0  0  0
   -1.1804   -3.5781    2.0516 C   0  0  0  0  0  0  0  0  0  0  0  0
   -0.8931   -2.1207    1.6654 C   0  0  1  0  0  0  0  0  0  0  0  0
    0.2939   -1.7164    2.3352 O   0  0  0  0  0  0  0  0  0  0  0  0
    0.7520   -0.4710    1.8455 C   0  0  1  0  0  0  0  0  0  0  0  0
    1.7451    0.0217    2.7313 O   0  0  0  0  0  0  0  0  0  0  0  0
    1.2232    1.0007    3.6096 C   0  0  0  0  0  0  0  0  0  0  0  0
    1.2826    2.3567    2.9581 C   0  0  0  0  0  0  0  0  0  0  0  0
    2.5269    2.9624    2.7255 C   0  0  0  0  0  0  0  0  0  0  0  0
    2.6081    4.1713    2.0304 C   0  0  0  0  0  0  0  0  0  0  0  0
    1.4446    4.7874    1.5492 C   0  0  0  0  0  0  0  0  0  0  0  0
    1.5172    5.9907    0.8309 C   0  0  0  0  0  0  0  0  0  0  0  0
    0.3509    6.5910    0.3485 C   0  0  0  0  0  0  0  0  0  0  0  0
   -0.8928    5.9968    0.5786 C   0  0  0  0  0  0  0  0  0  0  0  0
   -0.9788    4.7975    1.2916 C   0  0  0  0  0  0  0  0  0  0  0  0
    0.1847    4.1843    1.7817 C   0  0  0  0  0  0  0  0  0  0  0  0
    0.1126    2.9739    2.4877 C   0  0  0  0  0  0  0  0  0  0  0  0
    1.3933   -0.6659    0.4448 C   0  0  2  0  0  0  0  0  0  0  0  0
    1.3944    0.6147   -0.3049 N   0  3  0  0  0  0  0  0  0  0  0  0
    2.4545    0.6592   -1.3286 C   0  0  0  0  0  0  0  0  0  0  0  0
    2.3844    1.9556   -2.1472 C   0  0  0  0  0  0  0  0  0  0  0  0
    2.6345    3.1193   -1.3004 N   0  0  0  0  0  0  0  0  0  0  0  0
    0.6700   -1.8045   -0.3409 C   0  0  1  0  0  0  0  0  0  0  0  0
    1.3499   -3.0289   -0.0856 O   0  0  0  0  0  0  0  0  0  0  0  0
    1.7082   -3.7019   -1.2779 C   0  0  0  0  0  0  0  0  0  0  0  0
    0.5191   -4.4141   -1.8663 C   0  0  0  0  0  0  0  0  0  0  0  0
   -0.0834   -3.9448   -3.0450 C   0  0  0  0  0  0  0  0  0  0  0  0
   -1.2215   -4.5788   -3.5530 C   0  0  0  0  0  0  0  0  0  0  0  0
   -1.7677   -5.6790   -2.8859 C   0  0  0  0  0  0  0  0  0  0  0  0
   -1.1763   -6.1477   -1.7098 C   0  0  0  0  0  0  0  0  0  0  0  0
   -0.0372   -5.5180   -1.1996 C   0  0  0  0  0  0  0  0  0  0  0  0
   -0.8007   -1.9526    0.1140 C   0  0  2  0  0  0  0  0  0  0  0  0
   -1.5398   -0.8202   -0.2707 O   0  0  0  0  0  0  0  0  0  0  0  0
   -3.6490   -5.6233    1.4288 H   0  0  0  0  0  0  0  0  0  0  0  0
   -2.6971   -5.4917    2.9432 H   0  0  0  0  0  0  0  0  0  0  0  0
   -1.8944   -5.9819    1.3760 H   0  0  0  0  0  0  0  0  0  0  0  0
   -1.1841   -3.6499    3.1636 H   0  0  0  0  0  0  0  0  0  0  0  0
   -0.3628   -4.2217    1.6528 H   0  0  0  0  0  0  0  0  0  0  0  0
   -1.7435   -1.5143    2.0552 H   0  0  0  0  0  0  0  0  0  0  0  0
   -0.1063    0.2412    1.7347 H   0  0  0  0  0  0  0  0  0  0  0  0
    0.1959    0.7509    3.9657 H   0  0  0  0  0  0  0  0  0  0  0  0
    1.8590    1.0206    4.5199 H   0  0  0  0  0  0  0  0  0  0  0  0
    3.4379    2.4856    3.0658 H   0  0  0  0  0  0  0  0  0  0  0  0
    3.5807    4.6155    1.8557 H   0  0  0  0  0  0  0  0  0  0  0  0
    2.4732    6.4637    0.6408 H   0  0  0  0  0  0  0  0  0  0  0  0
    0.4110    7.5186   -0.2059 H   0  0  0  0  0  0  0  0  0  0  0  0
   -1.7922    6.4664    0.2021 H   0  0  0  0  0  0  0  0  0  0  0  0
   -1.9515    4.3495    1.4570 H   0  0  0  0  0  0  0  0  0  0  0  0
   -0.8485    2.5000    2.6517 H   0  0  0  0  0  0  0  0  0  0  0  0
    2.4484   -0.9895    0.6122 H   0  0  0  0  0  0  0  0  0  0  0  0
    1.5705    1.4031    0.3590 H   0  0  0  0  0  0  0  0  0  0  0  0
    0.4604    0.7747   -0.7496 H   0  0  0  0  0  0  0  0  0  0  0  0
    2.3588   -0.1966   -2.0296 H   0  0  0  0  0  0  0  0  0  0  0  0
    3.4552    0.5920   -0.8461 H   0  0  0  0  0  0  0  0  0  0  0  0
    3.1399    1.9160   -2.9637 H   0  0  0  0  0  0  0  0  0  0  0  0
    1.3789    2.0456   -2.6139 H   0  0  0  0  0  0  0  0  0  0  0  0
    2.4993    3.9752   -1.8852 H   0  0  0  0  0  0  0  0  0  0  0  0
    3.6410    3.1077   -1.0152 H   0  0  0  0  0  0  0  0  0  0  0  0
    0.6460   -1.5419   -1.4243 H   0  0  0  0  0  0  0  0  0  0  0  0
    2.1984   -3.0215   -2.0124 H   0  0  0  0  0  0  0  0  0  0  0  0
    2.4760   -4.4629   -1.0232 H   0  0  0  0  0  0  0  0  0  0  0  0
    0.3210   -3.0848   -3.5644 H   0  0  0  0  0  0  0  0  0  0  0  0
   -1.6832   -4.2138   -4.4611 H   0  0  0  0  0  0  0  0  0  0  0  0
   -2.6509   -6.1661   -3.2780 H   0  0  0  0  0  0  0  0  0  0  0  0
   -1.6035   -6.9958   -1.1907 H   0  0  0  0  0  0  0  0  0  0  0  0
    0.4054   -5.8823   -0.2808 H   0  0  0  0  0  0  0  0  0  0  0  0
   -1.2406   -2.8417   -0.3938 H   0  0  0  0  0  0  0  0  0  0  0  0
   -1.6838   -0.8860   -1.2509 H   0  0  0  0  0  0  0  0  0  0  0  0
  1  2  1  0  0  0  0
  1 35  1  0  0  0  0
  1 36  1  0  0  0  0
  1 37  1  0  0  0  0
  2  3  1  0  0  0  0
  3  4  1  0  0  0  0
  3 38  1  0  0  0  0
  3 39  1  0  0  0  0
  4  5  1  0  0  0  0
  4 40  1  1  0  0  0
  5  6  1  0  0  0  0
  6  7  1  0  0  0  0
  6 19  1  0  0  0  0
  6 41  1  6  0  0  0
  7  8  1  0  0  0  0
  8  9  1  0  0  0  0
  8 42  1  0  0  0  0
  8 43  1  0  0  0  0
  9 10  2  0  0  0  0
 10 11  1  0  0  0  0
 10 44  1  0  0  0  0
 11 12  2  0  0  0  0
 11 45  1  0  0  0  0
 12 13  1  0  0  0  0
 13 14  2  0  0  0  0
 13 46  1  0  0  0  0
 14 15  1  0  0  0  0
 14 47  1  0  0  0  0
 15 16  2  0  0  0  0
 15 48  1  0  0  0  0
 16 17  1  0  0  0  0
 16 49  1  0  0  0  0
 17 18  2  0  0  0  0
 17 12  1  0  0  0  0
 18  9  1  0  0  0  0
 18 50  1  0  0  0  0
 19 20  1  0  0  0  0
 19 24  1  0  0  0  0
 19 51  1  1  0  0  0
 20 21  1  0  0  0  0
 20 52  1  0  0  0  0
 20 53  1  0  0  0  0
 21 22  1  0  0  0  0
 21 54  1  0  0  0  0
 21 55  1  0  0  0  0
 22 23  1  0  0  0  0
 22 56  1  0  0  0  0
 22 57  1  0  0  0  0
 23 58  1  0  0  0  0
 23 59  1  0  0  0  0
 24 25  1  0  0  0  0
 24 33  1  0  0  0  0
 24 60  1  6  0  0  0
 25 26  1  0  0  0  0
 26 27  1  0  0  0  0
 26 61  1  0  0  0  0
 26 62  1  0  0  0  0
 27 28  2  0  0  0  0
 28 29  1  0  0  0  0
 28 63  1  0  0  0  0
 29 30  2  0  0  0  0
 29 64  1  0  0  0  0
 30 31  1  0  0  0  0
 30 65  1  0  0  0  0
 31 32  2  0  0  0  0
 31 66  1  0  0  0  0
 32 27  1  0  0  0  0
 32 67  1  0  0  0  0
 33 34  1  0  0  0  0
 33  4  1  0  0  0  0
 33 68  1  6  0  0  0
 34 69  1  0  0  0  0
M  CHG  1  20   1
M  END
>  <UniqueID>
36

>  <SMILES>
COC[C@H]1O[C@@H](OCc2ccc3ccccc3c2)[C@H]([NH2+]CCN)[C@@H](OCc2ccccc2)[C@@H]1O

>  <Energy>
83.70178625603643

>  <Genealogy>
COC[C@H]1OC(OCc2ccc3ccccc3c2)[C@H]([NH2+]CCN)C(OCc2ccccc2)[C@@H]1O (protonated)
COC[C@H]1O[C@@H](OCc2ccc3ccccc3c2)[C@H]([NH2+]CCN)[C@@H](OCc2ccccc2)[C@@H]1O (chirality)
COC[C@H]1O[C@@H](OCc2ccc3ccccc3c2)[C@H]([NH2+]CCN)[C@@H](OCc2ccccc2)[C@@H]1O (3D coordinates assigned)
COC[C@H]1O[C@@H](OCc2ccc3ccccc3c2)[C@H]([NH2+]CCN)[C@@H](OCc2ccccc2)[C@@H]1O (nonaromatic ring conformer: 83.70178625603643 kcal/mol)

$$$$
51351654
 OpenBabel03032110343D

 28 28  0  0  0  0  0  0  0  0999 V2000
    3.3349    1.7323   -0.2841 O   0  0  0  0  0  0  0  0  0  0  0  0
    3.2897    0.8342    0.9201 S   0  0  0  0  0  0  0  0  0  0  0  0
    4.2578    1.3419    1.9506 O   0  0  0  0  0  0  0  0  0  0  0  0
    3.7283   -0.7245    0.4715 O   0  5  0  0  0  0  0  0  0  0  0  0
    1.6857    0.8354    1.5906 N   0  0  0  0  0  0  0  0  0  0  0  0
    0.7042    0.2625    0.6459 C   0  0  1  0  0  0  0  0  0  0  0  0
    0.1442   -1.0898    1.1487 C   0  0  2  0  0  0  0  0  0  0  0  0
    1.1943   -2.0125    1.2480 O   0  0  0  0  0  0  0  0  0  0  0  0
   -0.8163   -1.5917    0.2353 O   0  0  0  0  0  0  0  0  0  0  0  0
   -1.9584   -0.7526    0.1972 C   0  0  2  0  0  0  0  0  0  0  0  0
   -3.0256   -1.4484   -0.6647 C   0  0  0  0  0  0  0  0  0  0  0  0
   -4.2646   -0.7988   -0.5642 O   0  0  0  0  0  0  0  0  0  0  0  0
   -1.5768    0.6337   -0.3785 C   0  0  1  0  0  0  0  0  0  0  0  0
   -2.6881    1.4948   -0.3607 O   0  0  0  0  0  0  0  0  0  0  0  0
   -0.4573    1.2579    0.4689 C   0  0  2  0  0  0  0  0  0  0  0  0
    0.0010    2.4245   -0.1662 O   0  0  0  0  0  0  0  0  0  0  0  0
    1.7182    0.2983    2.4876 H   0  0  0  0  0  0  0  0  0  0  0  0
    1.1545    0.0903   -0.3597 H   0  0  0  0  0  0  0  0  0  0  0  0
   -0.3077   -0.9564    2.1624 H   0  0  0  0  0  0  0  0  0  0  0  0
    0.8154   -2.8242    1.6757 H   0  0  0  0  0  0  0  0  0  0  0  0
   -2.3829   -0.6322    1.2222 H   0  0  0  0  0  0  0  0  0  0  0  0
   -2.7073   -1.4557   -1.7291 H   0  0  0  0  0  0  0  0  0  0  0  0
   -3.1319   -2.5104   -0.3447 H   0  0  0  0  0  0  0  0  0  0  0  0
   -4.6426   -1.0413    0.3212 H   0  0  0  0  0  0  0  0  0  0  0  0
   -1.1928    0.5015   -1.4201 H   0  0  0  0  0  0  0  0  0  0  0  0
   -3.0677    1.5048   -1.2780 H   0  0  0  0  0  0  0  0  0  0  0  0
   -0.8777    1.5113    1.4725 H   0  0  0  0  0  0  0  0  0  0  0  0
    0.4284    2.9860    0.5321 H   0  0  0  0  0  0  0  0  0  0  0  0
  1  2  2  0  0  0  0
  2  3  2  0  0  0  0
  2  4  1  0  0  0  0
  2  5  1  0  0  0  0
  5  6  1  0  0  0  0
  5 17  1  0  0  0  0
  6  7  1  0  0  0  0
  6 18  1  6  0  0  0
  7  8  1  0  0  0  0
  7  9  1  0  0  0  0
  7 19  1  1  0  0  0
  8 20  1  0  0  0  0
  9 10  1  0  0  0  0
 10 11  1  0  0  0  0
 10 13  1  0  0  0  0
 10 21  1  1  0  0  0
 11 12  1  0  0  0  0
 11 22  1  0  0  0  0
 11 23  1  0  0  0  0
 12 24  1  0  0  0  0
 13 14  1  0  0  0  0
 13 15  1  0  0  0  0
 13 25  1  6  0  0  0
 14 26  1  0  0  0  0
 15 16  1  0  0  0  0
 15  6  1  0  0  0  0
 15 27  1  1  0  0  0
 16 28  1  0  0  0  0
M  CHG  1   4  -1
M  END
>  <UniqueID>
37

>  <SMILES>
O=S(=O)([O-])N[C@H]1[C@H](O)O[C@H](CO)[C@@H](O)[C@@H]1O

>  <Energy>
25.24663720746606

>  <Genealogy>
O=S(=O)([O-])N[C@H]1[C@H](O)O[C@H](CO)[C@@H](O)[C@@H]1O (chirality)
O=S(=O)([O-])N[C@H]1[C@H](O)O[C@H](CO)[C@@H](O)[C@@H]1O (3D coordinates assigned)
O=S(=O)([O-])N[C@H]1[C@H](O)O[C@H](CO)[C@@H](O)[C@@H]1O (nonaromatic ring conformer: 25.24663720746606 kcal/mol)

$$$$
51351654
 OpenBabel03032110343D

 28 28  0  0  0  0  0  0  0  0999 V2000
   -2.1258   -2.9876   -4.5153 O   0  0  0  0  0  0  0  0  0  0  0  0
   -1.4918   -1.9454   -3.6385 S   0  0  0  0  0  0  0  0  0  0  0  0
   -0.7389   -0.9717   -4.5011 O   0  0  0  0  0  0  0  0  0  0  0  0
   -2.6972   -1.1315   -2.7984 O   0  5  0  0  0  0  0  0  0  0  0  0
   -0.3958   -2.7230   -2.5338 N   0  0  0  0  0  0  0  0  0  0  0  0
    0.2480   -1.7522   -1.6278 C   0  0  1  0  0  0  0  0  0  0  0  0
   -0.5313   -1.5634   -0.3005 C   0  0  1  0  0  0  0  0  0  0  0  0
   -0.7349   -2.7909    0.3564 O   0  0  0  0  0  0  0  0  0  0  0  0
    0.1320   -0.6355    0.5471 O   0  0  0  0  0  0  0  0  0  0  0  0
    1.4154   -1.1034    0.9398 C   0  0  2  0  0  0  0  0  0  0  0  0
    2.0176   -0.0970    1.9313 C   0  0  0  0  0  0  0  0  0  0  0  0
    1.2179   -0.0045    3.0798 O   0  0  0  0  0  0  0  0  0  0  0  0
    2.3382   -1.2704   -0.2941 C   0  0  1  0  0  0  0  0  0  0  0  0
    3.6082   -1.7499    0.0752 O   0  0  0  0  0  0  0  0  0  0  0  0
    1.6825   -2.2169   -1.3204 C   0  0  2  0  0  0  0  0  0  0  0  0
    2.4518   -2.2905   -2.4959 O   0  0  0  0  0  0  0  0  0  0  0  0
   -0.9315   -3.4456   -2.0017 H   0  0  0  0  0  0  0  0  0  0  0  0
    0.3211   -0.7538   -2.1173 H   0  0  0  0  0  0  0  0  0  0  0  0
   -1.5236   -1.1308   -0.5501 H   0  0  0  0  0  0  0  0  0  0  0  0
   -1.3313   -2.6006    1.1267 H   0  0  0  0  0  0  0  0  0  0  0  0
    1.3288   -2.0764    1.4763 H   0  0  0  0  0  0  0  0  0  0  0  0
    3.0282   -0.4358    2.2432 H   0  0  0  0  0  0  0  0  0  0  0  0
    2.1286    0.9030    1.4514 H   0  0  0  0  0  0  0  0  0  0  0  0
    0.4742    0.6162    2.8626 H   0  0  0  0  0  0  0  0  0  0  0  0
    2.4727   -0.2721   -0.7673 H   0  0  0  0  0  0  0  0  0  0  0  0
    3.4807   -2.6265    0.5240 H   0  0  0  0  0  0  0  0  0  0  0  0
    1.6346   -3.2395   -0.8835 H   0  0  0  0  0  0  0  0  0  0  0  0
    2.4878   -1.3807   -2.8923 H   0  0  0  0  0  0  0  0  0  0  0  0
  1  2  2  0  0  0  0
  2  3  2  0  0  0  0
  2  4  1  0  0  0  0
  2  5  1  0  0  0  0
  5  6  1  0  0  0  0
  5 17  1  0  0  0  0
  6  7  1  0  0  0  0
  6 18  1  6  0  0  0
  7  8  1  0  0  0  0
  7  9  1  0  0  0  0
  7 19  1  6  0  0  0
  8 20  1  0  0  0  0
  9 10  1  0  0  0  0
 10 11  1  0  0  0  0
 10 13  1  0  0  0  0
 10 21  1  1  0  0  0
 11 12  1  0  0  0  0
 11 22  1  0  0  0  0
 11 23  1  0  0  0  0
 12 24  1  0  0  0  0
 13 14  1  0  0  0  0
 13 15  1  0  0  0  0
 13 25  1  6  0  0  0
 14 26  1  0  0  0  0
 15 16  1  0  0  0  0
 15  6  1  0  0  0  0
 15 27  1  1  0  0  0
 16 28  1  0  0  0  0
M  CHG  1   4  -1
M  END
>  <UniqueID>
38

>  <SMILES>
O=S(=O)([O-])N[C@H]1[C@@H](O)O[C@H](CO)[C@@H](O)[C@@H]1O

>  <Energy>
27.30991902596836

>  <Genealogy>
O=S(=O)([O-])N[C@H]1[C@@H](O)O[C@H](CO)[C@@H](O)[C@@H]1O (chirality)
O=S(=O)([O-])N[C@H]1[C@@H](O)O[C@H](CO)[C@@H](O)[C@@H]1O (3D coordinates assigned)
O=S(=O)([O-])N[C@H]1[C@@H](O)O[C@H](CO)[C@@H](O)[C@@H]1O (nonaromatic ring conformer: 27.30991902596836 kcal/mol)

$$$$
49859685
 OpenBabel03032110343D

 33 33  0  0  0  0  0  0  0  0999 V2000
    3.8097   -0.6982   -0.2988 H   0  0  0  0  0  0  0  0  0  0  0  0
    4.2175    0.2256   -0.2544 O   0  0  0  0  0  0  0  0  0  0  0  0
    3.4894    1.4041   -0.4414 C   0  0  0  0  0  0  0  0  0  0  0  0
    2.2044    1.4056   -0.6551 N   0  0  0  0  0  0  0  0  0  0  0  0
    1.3217    0.2367   -0.6909 C   0  0  1  0  0  0  0  0  0  0  0  0
    1.7994   -0.5797   -1.2772 H   0  0  0  0  0  0  0  0  0  0  0  0
    1.0240   -0.2615    0.7437 C   0  0  1  0  0  0  0  0  0  0  0  0
    1.9865   -0.6548    1.1398 H   0  0  0  0  0  0  0  0  0  0  0  0
    0.5562    0.8112    1.5426 O   0  0  0  0  0  0  0  0  0  0  0  0
    0.7221    0.4045    3.1921 P   0  0  0  0  0  0  0  0  0  0  0  0
    0.1422    1.5188    4.0320 O   0  0  0  0  0  0  0  0  0  0  0  0
   -0.1060   -1.0306    3.5353 O   0  5  0  0  0  0  0  0  0  0  0  0
    2.3587    0.2185    3.5791 O   0  5  0  0  0  0  0  0  0  0  0  0
    0.0969   -1.3403    0.7235 O   0  0  0  0  0  0  0  0  0  0  0  0
   -1.1543   -0.9472    0.1802 C   0  0  2  0  0  0  0  0  0  0  0  0
   -1.5757   -0.0885    0.7529 H   0  0  0  0  0  0  0  0  0  0  0  0
   -2.1446   -2.1063    0.3487 C   0  0  0  0  0  0  0  0  0  0  0  0
   -1.7945   -2.9972   -0.2193 H   0  0  0  0  0  0  0  0  0  0  0  0
   -2.1968   -2.3796    1.4266 H   0  0  0  0  0  0  0  0  0  0  0  0
   -3.4182   -1.7247   -0.0938 O   0  0  0  0  0  0  0  0  0  0  0  0
   -4.0035   -2.5153    0.0374 H   0  0  0  0  0  0  0  0  0  0  0  0
   -0.9989   -0.5417   -1.3022 C   0  0  2  0  0  0  0  0  0  0  0  0
   -1.9862   -0.1887   -1.6838 H   0  0  0  0  0  0  0  0  0  0  0  0
   -0.5533   -1.6436   -2.0547 O   0  0  0  0  0  0  0  0  0  0  0  0
   -0.8241   -1.4799   -2.9956 H   0  0  0  0  0  0  0  0  0  0  0  0
    0.0121    0.6163   -1.4010 C   0  0  2  0  0  0  0  0  0  0  0  0
   -0.4192    1.5145   -0.8970 H   0  0  0  0  0  0  0  0  0  0  0  0
    0.2783    0.9224   -2.7458 O   0  0  0  0  0  0  0  0  0  0  0  0
   -0.5262    1.3857   -3.0979 H   0  0  0  0  0  0  0  0  0  0  0  0
    4.2163    2.7063   -0.4195 C   0  0  0  0  0  0  0  0  0  0  0  0
    3.7040    3.4138    0.2663 H   0  0  0  0  0  0  0  0  0  0  0  0
    4.2387    3.1373   -1.4422 H   0  0  0  0  0  0  0  0  0  0  0  0
    5.2585    2.5582   -0.0667 H   0  0  0  0  0  0  0  0  0  0  0  0
  1  2  1  0  0  0  0
  2  3  1  0  0  0  0
  3  4  2  0  0  0  0
  3 30  1  0  0  0  0
  4  5  1  0  0  0  0
  5  6  1  6  0  0  0
  5  7  1  0  0  0  0
  7  8  1  1  0  0  0
  7  9  1  0  0  0  0
  7 14  1  0  0  0  0
  9 10  1  0  0  0  0
 10 11  2  0  0  0  0
 10 12  1  0  0  0  0
 10 13  1  0  0  0  0
 14 15  1  0  0  0  0
 15 16  1  1  0  0  0
 15 17  1  0  0  0  0
 15 22  1  0  0  0  0
 17 18  1  0  0  0  0
 17 19  1  0  0  0  0
 17 20  1  0  0  0  0
 20 21  1  0  0  0  0
 22 23  1  6  0  0  0
 22 24  1  0  0  0  0
 22 26  1  0  0  0  0
 24 25  1  0  0  0  0
 26 27  1  1  0  0  0
 26 28  1  0  0  0  0
 26  5  1  0  0  0  0
 28 29  1  0  0  0  0
 30 31  1  0  0  0  0
 30 32  1  0  0  0  0
 30 33  1  0  0  0  0
M  CHG  2  12  -1  13  -1
M  END
>  <UniqueID>
39

>  <SMILES>
C/C(O)=N\[C@H]1[C@@H](OP(=O)([O-])[O-])O[C@H](CO)[C@H](O)[C@@H]1O

>  <Energy>
29.086888409077467

>  <Genealogy>
CC(O)=N[C@H]1[C@@H](OP(=O)([O-])[O-])O[C@H](CO)[C@H](O)[C@@H]1O (tautomer)
C/C(O)=N\[C@H]1[C@@H](OP(=O)([O-])[O-])O[C@H](CO)[C@H](O)[C@@H]1O (cis-trans isomerization)
C/C(O)=N\[C@H]1[C@@H](OP(=O)([O-])[O-])O[C@H](CO)[C@H](O)[C@@H]1O (3D coordinates assigned)
C/C(O)=N\[C@H]1[C@@H](OP(=O)([O-])[O-])O[C@H](CO)[C@H](O)[C@@H]1O (nonaromatic ring conformer: 29.086888409077467 kcal/mol)

$$$$
49859685
 OpenBabel03032110343D

 33 33  0  0  0  0  0  0  0  0999 V2000
    3.8328    3.6748   -1.4593 H   0  0  0  0  0  0  0  0  0  0  0  0
    2.9572    3.2634   -1.1592 O   0  0  0  0  0  0  0  0  0  0  0  0
    2.8736    1.9308   -0.7637 C   0  0  0  0  0  0  0  0  0  0  0  0
    1.7188    1.4742   -0.3712 N   0  0  0  0  0  0  0  0  0  0  0  0
    1.4216    0.1052    0.0677 C   0  0  1  0  0  0  0  0  0  0  0  0
    2.3024   -0.3241    0.5913 H   0  0  0  0  0  0  0  0  0  0  0  0
    0.2440    0.1301    1.0630 C   0  0  1  0  0  0  0  0  0  0  0  0
    0.0482   -0.9102    1.4146 H   0  0  0  0  0  0  0  0  0  0  0  0
    0.5683    1.0040    2.1297 O   0  0  0  0  0  0  0  0  0  0  0  0
    1.0344    0.1178    3.5144 P   0  0  0  0  0  0  0  0  0  0  0  0
    1.4853    1.0812    4.5877 O   0  0  0  0  0  0  0  0  0  0  0  0
    2.3077   -0.9327    3.1438 O   0  5  0  0  0  0  0  0  0  0  0  0
   -0.2825   -0.7749    4.0898 O   0  5  0  0  0  0  0  0  0  0  0  0
   -0.9253    0.6367    0.4373 O   0  0  0  0  0  0  0  0  0  0  0  0
   -1.3820   -0.1860   -0.6296 C   0  0  2  0  0  0  0  0  0  0  0  0
   -2.2080    0.3828   -1.1117 H   0  0  0  0  0  0  0  0  0  0  0  0
   -2.0279   -1.4949   -0.1161 C   0  0  0  0  0  0  0  0  0  0  0  0
   -2.6013   -1.2673    0.8076 H   0  0  0  0  0  0  0  0  0  0  0  0
   -1.2646   -2.2559    0.1581 H   0  0  0  0  0  0  0  0  0  0  0  0
   -2.9306   -2.0026   -1.0647 O   0  0  0  0  0  0  0  0  0  0  0  0
   -2.5085   -2.8007   -1.4772 H   0  0  0  0  0  0  0  0  0  0  0  0
   -0.2986   -0.3632   -1.7266 C   0  0  2  0  0  0  0  0  0  0  0  0
   -0.1684    0.6344   -2.2102 H   0  0  0  0  0  0  0  0  0  0  0  0
   -0.7234   -1.2823   -2.7000 O   0  0  0  0  0  0  0  0  0  0  0  0
   -0.1368   -1.1555   -3.4912 H   0  0  0  0  0  0  0  0  0  0  0  0
    1.0658   -0.7788   -1.1438 C   0  0  2  0  0  0  0  0  0  0  0  0
    1.8289   -0.6394   -1.9437 H   0  0  0  0  0  0  0  0  0  0  0  0
    1.0429   -2.1332   -0.7711 O   0  0  0  0  0  0  0  0  0  0  0  0
    1.9881   -2.4180   -0.6643 H   0  0  0  0  0  0  0  0  0  0  0  0
    4.1149    1.0794   -0.7688 C   0  0  0  0  0  0  0  0  0  0  0  0
    3.9465    0.1415   -1.3351 H   0  0  0  0  0  0  0  0  0  0  0  0
    4.4066    0.8370    0.2743 H   0  0  0  0  0  0  0  0  0  0  0  0
    4.9561    1.6209   -1.2491 H   0  0  0  0  0  0  0  0  0  0  0  0
  1  2  1  0  0  0  0
  2  3  1  0  0  0  0
  3  4  2  0  0  0  0
  3 30  1  0  0  0  0
  4  5  1  0  0  0  0
  5  6  1  1  0  0  0
  5  7  1  0  0  0  0
  7  8  1  1  0  0  0
  7  9  1  0  0  0  0
  7 14  1  0  0  0  0
  9 10  1  0  0  0  0
 10 11  2  0  0  0  0
 10 12  1  0  0  0  0
 10 13  1  0  0  0  0
 14 15  1  0  0  0  0
 15 16  1  6  0  0  0
 15 17  1  0  0  0  0
 15 22  1  0  0  0  0
 17 18  1  0  0  0  0
 17 19  1  0  0  0  0
 17 20  1  0  0  0  0
 20 21  1  0  0  0  0
 22 23  1  6  0  0  0
 22 24  1  0  0  0  0
 22 26  1  0  0  0  0
 24 25  1  0  0  0  0
 26 27  1  6  0  0  0
 26 28  1  0  0  0  0
 26  5  1  0  0  0  0
 28 29  1  0  0  0  0
 30 31  1  0  0  0  0
 30 32  1  0  0  0  0
 30 33  1  0  0  0  0
M  CHG  2  12  -1  13  -1
M  END
>  <UniqueID>
40

>  <SMILES>
C/C(O)=N\[C@H]1[C@@H](OP(=O)([O-])[O-])O[C@H](CO)[C@H](O)[C@@H]1O

>  <Energy>
36.86356290443075

>  <Genealogy>
CC(O)=N[C@H]1[C@@H](OP(=O)([O-])[O-])O[C@H](CO)[C@H](O)[C@@H]1O (tautomer)
C/C(O)=N\[C@H]1[C@@H](OP(=O)([O-])[O-])O[C@H](CO)[C@H](O)[C@@H]1O (cis-trans isomerization)
C/C(O)=N\[C@H]1[C@@H](OP(=O)([O-])[O-])O[C@H](CO)[C@H](O)[C@@H]1O (3D coordinates assigned)
C/C(O)=N\[C@H]1[C@@H](OP(=O)([O-])[O-])O[C@H](CO)[C@H](O)[C@@H]1O (nonaromatic ring conformer: 36.86356290443075 kcal/mol)

$$$$
49802606
 OpenBabel03032110343D

 30 30  0  0  0  0  0  0  0  0999 V2000
    3.7046    0.0168    2.6229 H   0  0  0  0  0  0  0  0  0  0  0  0
    2.8761    0.1402    2.0534 O   0  0  0  0  0  0  0  0  0  0  0  0
    2.8870    0.9686    0.9310 C   0  0  0  0  0  0  0  0  0  0  0  0
    1.8196    1.1065    0.2011 N   0  0  0  0  0  0  0  0  0  0  0  0
    0.5316    0.4643    0.4745 C   0  0  1  0  0  0  0  0  0  0  0  0
    0.6922   -0.5488    0.9094 H   0  0  0  0  0  0  0  0  0  0  0  0
   -0.2981    1.3155    1.4635 C   0  0  2  0  0  0  0  0  0  0  0  0
   -0.3927    2.3556    1.0655 H   0  0  0  0  0  0  0  0  0  0  0  0
    0.3672    1.3736    2.6955 O   0  0  0  0  0  0  0  0  0  0  0  0
   -0.1368    2.0187    3.2571 H   0  0  0  0  0  0  0  0  0  0  0  0
   -1.5796    0.7392    1.6671 O   0  0  0  0  0  0  0  0  0  0  0  0
   -2.3320    0.7558    0.4649 C   0  0  2  0  0  0  0  0  0  0  0  0
   -2.3774    1.7917    0.0518 H   0  0  0  0  0  0  0  0  0  0  0  0
   -3.7879    0.3604    0.7639 C   0  0  0  0  0  0  0  0  0  0  0  0
   -4.2651    1.1454    1.3947 H   0  0  0  0  0  0  0  0  0  0  0  0
   -4.3627    0.3101   -0.1855 H   0  0  0  0  0  0  0  0  0  0  0  0
   -3.8629   -0.8860    1.4038 O   0  0  0  0  0  0  0  0  0  0  0  0
   -3.6611   -0.7289    2.3630 H   0  0  0  0  0  0  0  0  0  0  0  0
   -1.6846   -0.1696   -0.5904 C   0  0  2  0  0  0  0  0  0  0  0  0
   -2.2690   -0.0942   -1.5386 H   0  0  0  0  0  0  0  0  0  0  0  0
   -1.6732   -1.4962   -0.1227 O   0  0  0  0  0  0  0  0  0  0  0  0
   -1.7253   -2.0861   -0.9195 H   0  0  0  0  0  0  0  0  0  0  0  0
   -0.2453    0.3167   -0.8512 C   0  0  2  0  0  0  0  0  0  0  0  0
   -0.3096    1.3205   -1.3288 H   0  0  0  0  0  0  0  0  0  0  0  0
    0.4236   -0.5306   -1.7539 O   0  0  0  0  0  0  0  0  0  0  0  0
    0.6120   -1.3877   -1.2903 H   0  0  0  0  0  0  0  0  0  0  0  0
    4.1479    1.6856    0.5524 C   0  0  0  0  0  0  0  0  0  0  0  0
    4.6021    2.4194    1.6322 F   0  0  0  0  0  0  0  0  0  0  0  0
    5.1103    0.7603    0.1947 F   0  0  0  0  0  0  0  0  0  0  0  0
    3.9280    2.5430   -0.5123 F   0  0  0  0  0  0  0  0  0  0  0  0
  1  2  1  0  0  0  0
  2  3  1  0  0  0  0
  3  4  2  0  0  0  0
  3 27  1  0  0  0  0
  4  5  1  0  0  0  0
  5  6  1  1  0  0  0
  5  7  1  0  0  0  0
  7  8  1  6  0  0  0
  7  9  1  0  0  0  0
  7 11  1  0  0  0  0
  9 10  1  0  0  0  0
 11 12  1  0  0  0  0
 12 13  1  6  0  0  0
 12 14  1  0  0  0  0
 12 19  1  0  0  0  0
 14 15  1  0  0  0  0
 14 16  1  0  0  0  0
 14 17  1  0  0  0  0
 17 18  1  0  0  0  0
 19 20  1  6  0  0  0
 19 21  1  0  0  0  0
 19 23  1  0  0  0  0
 21 22  1  0  0  0  0
 23 24  1  6  0  0  0
 23 25  1  0  0  0  0
 23  5  1  0  0  0  0
 25 26  1  0  0  0  0
 27 28  1  0  0  0  0
 27 29  1  0  0  0  0
 27 30  1  0  0  0  0
M  END
>  <UniqueID>
41

>  <SMILES>
OC[C@H]1O[C@@H](O)[C@H](/N=C(\O)C(F)(F)F)[C@@H](O)[C@H]1O

>  <Energy>
27.00529397928857

>  <Genealogy>
OC[C@H]1OC(O)[C@H](N=C(O)C(F)(F)F)[C@@H](O)[C@H]1O (tautomer)
OC[C@H]1O[C@@H](O)[C@H](N=C(O)C(F)(F)F)[C@@H](O)[C@H]1O (chirality)
OC[C@H]1O[C@@H](O)[C@H](/N=C(\O)C(F)(F)F)[C@@H](O)[C@H]1O (cis-trans isomerization)
OC[C@H]1O[C@@H](O)[C@H](/N=C(\O)C(F)(F)F)[C@@H](O)[C@H]1O (3D coordinates assigned)
OC[C@H]1O[C@@H](O)[C@H](/N=C(\O)C(F)(F)F)[C@@H](O)[C@H]1O (nonaromatic ring conformer: 27.00529397928857 kcal/mol)

$$$$
49802606
 OpenBabel03032110343D

 30 30  0  0  0  0  0  0  0  0999 V2000
    4.3519   -0.4455   -0.1726 H   0  0  0  0  0  0  0  0  0  0  0  0
    3.4323   -0.3484    0.2408 O   0  0  0  0  0  0  0  0  0  0  0  0
    2.8788    0.9086    0.4854 C   0  0  0  0  0  0  0  0  0  0  0  0
    1.7017    1.0166    1.0270 N   0  0  0  0  0  0  0  0  0  0  0  0
    0.8496   -0.1172    1.3997 C   0  0  1  0  0  0  0  0  0  0  0  0
    1.4816   -0.8826    1.9061 H   0  0  0  0  0  0  0  0  0  0  0  0
   -0.2559    0.3678    2.3868 C   0  0  2  0  0  0  0  0  0  0  0  0
    0.0190    1.3711    2.7927 H   0  0  0  0  0  0  0  0  0  0  0  0
   -0.3251   -0.5284    3.4635 O   0  0  0  0  0  0  0  0  0  0  0  0
   -0.9447   -0.1266    4.1273 H   0  0  0  0  0  0  0  0  0  0  0  0
   -1.5430    0.4488    1.7843 O   0  0  0  0  0  0  0  0  0  0  0  0
   -1.4768    1.1376    0.5490 C   0  0  2  0  0  0  0  0  0  0  0  0
   -0.8865    2.0784    0.6699 H   0  0  0  0  0  0  0  0  0  0  0  0
   -2.8864    1.5900    0.1404 C   0  0  0  0  0  0  0  0  0  0  0  0
   -2.8596    2.0264   -0.8836 H   0  0  0  0  0  0  0  0  0  0  0  0
   -3.2289    2.3790    0.8471 H   0  0  0  0  0  0  0  0  0  0  0  0
   -3.7819    0.5124    0.1839 O   0  0  0  0  0  0  0  0  0  0  0  0
   -4.6607    0.8733   -0.1029 H   0  0  0  0  0  0  0  0  0  0  0  0
   -0.7700    0.2579   -0.5246 C   0  0  2  0  0  0  0  0  0  0  0  0
   -0.1853    0.9463   -1.1803 H   0  0  0  0  0  0  0  0  0  0  0  0
   -1.7006   -0.4386   -1.3166 O   0  0  0  0  0  0  0  0  0  0  0  0
   -1.2106   -0.7609   -2.1180 H   0  0  0  0  0  0  0  0  0  0  0  0
    0.2102   -0.7411    0.1389 C   0  0  2  0  0  0  0  0  0  0  0  0
    1.0017   -0.9945   -0.6041 H   0  0  0  0  0  0  0  0  0  0  0  0
   -0.4756   -1.9167    0.4940 O   0  0  0  0  0  0  0  0  0  0  0  0
    0.2126   -2.6153    0.6498 H   0  0  0  0  0  0  0  0  0  0  0  0
    3.6564    2.1418    0.1371 C   0  0  0  0  0  0  0  0  0  0  0  0
    2.8980    3.2804    0.3504 F   0  0  0  0  0  0  0  0  0  0  0  0
    4.7925    2.2031    0.9218 F   0  0  0  0  0  0  0  0  0  0  0  0
    4.0255    2.0922   -1.1941 F   0  0  0  0  0  0  0  0  0  0  0  0
  1  2  1  0  0  0  0
  2  3  1  0  0  0  0
  3  4  2  0  0  0  0
  3 27  1  0  0  0  0
  4  5  1  0  0  0  0
  5  6  1  1  0  0  0
  5  7  1  0  0  0  0
  7  8  1  1  0  0  0
  7  9  1  0  0  0  0
  7 11  1  0  0  0  0
  9 10  1  0  0  0  0
 11 12  1  0  0  0  0
 12 13  1  1  0  0  0
 12 14  1  0  0  0  0
 12 19  1  0  0  0  0
 14 15  1  0  0  0  0
 14 16  1  0  0  0  0
 14 17  1  0  0  0  0
 17 18  1  0  0  0  0
 19 20  1  6  0  0  0
 19 21  1  0  0  0  0
 19 23  1  0  0  0  0
 21 22  1  0  0  0  0
 23 24  1  6  0  0  0
 23 25  1  0  0  0  0
 23  5  1  0  0  0  0
 25 26  1  0  0  0  0
 27 28  1  0  0  0  0
 27 29  1  0  0  0  0
 27 30  1  0  0  0  0
M  END
>  <UniqueID>
42

>  <SMILES>
OC[C@H]1O[C@@H](O)[C@H](/N=C(\O)C(F)(F)F)[C@@H](O)[C@H]1O

>  <Energy>
34.66129969515294

>  <Genealogy>
OC[C@H]1OC(O)[C@H](N=C(O)C(F)(F)F)[C@@H](O)[C@H]1O (tautomer)
OC[C@H]1O[C@@H](O)[C@H](N=C(O)C(F)(F)F)[C@@H](O)[C@H]1O (chirality)
OC[C@H]1O[C@@H](O)[C@H](/N=C(\O)C(F)(F)F)[C@@H](O)[C@H]1O (cis-trans isomerization)
OC[C@H]1O[C@@H](O)[C@H](/N=C(\O)C(F)(F)F)[C@@H](O)[C@H]1O (3D coordinates assigned)
OC[C@H]1O[C@@H](O)[C@H](/N=C(\O)C(F)(F)F)[C@@H](O)[C@H]1O (nonaromatic ring conformer: 34.66129969515294 kcal/mol)

$$$$
46174147
 OpenBabel03032110343D

 34 34  0  0  0  0  0  0  0  0999 V2000
    1.9869    3.4950   -2.9224 H   0  0  0  0  0  0  0  0  0  0  0  0
    1.6059    3.2069   -1.9936 N   0  0  0  0  0  0  0  0  0  0  0  0
    1.1981    1.9982   -1.7772 C   0  0  0  0  0  0  0  0  0  0  0  0
    1.2582    1.0400   -2.7903 O   0  0  0  0  0  0  0  0  0  0  0  0
    1.6127    1.2629   -3.7130 H   0  0  0  0  0  0  0  0  0  0  0  0
    0.6974    1.6629   -0.5175 O   0  0  0  0  0  0  0  0  0  0  0  0
    0.2178    0.3533   -0.2004 C   0  0  1  0  0  0  0  0  0  0  0  0
   -0.5783    0.0916   -0.9301 H   0  0  0  0  0  0  0  0  0  0  0  0
    1.2445   -0.6193   -0.3209 O   0  0  0  0  0  0  0  0  0  0  0  0
    2.3163   -0.3674    0.5759 C   0  0  2  0  0  0  0  0  0  0  0  0
    2.7467    0.6441    0.3934 H   0  0  0  0  0  0  0  0  0  0  0  0
    3.4233   -1.3888    0.2792 C   0  0  0  0  0  0  0  0  0  0  0  0
    3.0933   -2.4072    0.5845 H   0  0  0  0  0  0  0  0  0  0  0  0
    3.6188   -1.3997   -0.8170 H   0  0  0  0  0  0  0  0  0  0  0  0
    4.6044   -1.0438    0.9508 O   0  0  0  0  0  0  0  0  0  0  0  0
    5.2689   -1.7425    0.7155 H   0  0  0  0  0  0  0  0  0  0  0  0
    1.8333   -0.4682    2.0432 C   0  0  1  0  0  0  0  0  0  0  0  0
    1.4738   -1.5094    2.2279 H   0  0  0  0  0  0  0  0  0  0  0  0
    2.8906   -0.1625    2.9165 O   0  0  0  0  0  0  0  0  0  0  0  0
    2.6556   -0.5501    3.7997 H   0  0  0  0  0  0  0  0  0  0  0  0
    0.6751    0.5158    2.2800 C   0  0  2  0  0  0  0  0  0  0  0  0
    1.0830    1.5534    2.2202 H   0  0  0  0  0  0  0  0  0  0  0  0
    0.1298    0.2876    3.5545 O   0  0  0  0  0  0  0  0  0  0  0  0
   -0.3297    1.1246    3.8270 H   0  0  0  0  0  0  0  0  0  0  0  0
   -0.4109    0.3238    1.2047 C   0  0  1  0  0  0  0  0  0  0  0  0
   -0.8747   -0.6760    1.3637 H   0  0  0  0  0  0  0  0  0  0  0  0
   -1.4429    1.3602    1.3165 N   0  0  0  0  0  0  0  0  0  0  0  0
   -1.1859    2.2955    1.7094 H   0  0  0  0  0  0  0  0  0  0  0  0
   -2.7706    1.1790    0.8062 C   0  0  0  0  0  0  0  0  0  0  0  0
   -3.1087    0.0837    0.2800 O   0  0  0  0  0  0  0  0  0  0  0  0
   -3.7518    2.3059    0.8504 C   0  0  0  0  0  0  0  0  0  0  0  0
   -3.5842    2.9270    1.7565 H   0  0  0  0  0  0  0  0  0  0  0  0
   -3.6230    2.9392   -0.0529 H   0  0  0  0  0  0  0  0  0  0  0  0
   -4.7894    1.9117    0.8699 H   0  0  0  0  0  0  0  0  0  0  0  0
  1  2  1  0  0  0  0
  2  3  2  0  0  0  0
  3  4  1  0  0  0  0
  3  6  1  0  0  0  0
  4  5  1  0  0  0  0
  6  7  1  0  0  0  0
  7  8  1  6  0  0  0
  7  9  1  0  0  0  0
  9 10  1  0  0  0  0
 10 11  1  6  0  0  0
 10 12  1  0  0  0  0
 10 17  1  0  0  0  0
 12 13  1  0  0  0  0
 12 14  1  0  0  0  0
 12 15  1  0  0  0  0
 15 16  1  0  0  0  0
 17 18  1  1  0  0  0
 17 19  1  0  0  0  0
 17 21  1  0  0  0  0
 19 20  1  0  0  0  0
 21 22  1  6  0  0  0
 21 23  1  0  0  0  0
 21 25  1  0  0  0  0
 23 24  1  0  0  0  0
 25 26  1  1  0  0  0
 25 27  1  0  0  0  0
 25  7  1  0  0  0  0
 27 28  1  0  0  0  0
 27 29  1  0  0  0  0
 29 30  2  0  0  0  0
 29 31  1  0  0  0  0
 31 32  1  0  0  0  0
 31 33  1  0  0  0  0
 31 34  1  0  0  0  0
M  END
>  <UniqueID>
43

>  <SMILES>
[H]/N=C(\O)O[C@H]1O[C@H](CO)[C@@H](O)[C@H](O)[C@H]1NC(C)=O

>  <Energy>
25.164990696089482

>  <Genealogy>
CC(=O)N[C@H]1[C@@H](OC(=N)O)O[C@H](CO)[C@@H](O)[C@@H]1O (tautomer)
[H]/N=C(\O)O[C@H]1O[C@H](CO)[C@@H](O)[C@H](O)[C@H]1NC(C)=O (cis-trans isomerization)
[H]/N=C(\O)O[C@H]1O[C@H](CO)[C@@H](O)[C@H](O)[C@H]1NC(C)=O (3D coordinates assigned)
[H]/N=C(\O)O[C@H]1O[C@H](CO)[C@@H](O)[C@H](O)[C@H]1NC(C)=O (nonaromatic ring conformer: 25.164990696089482 kcal/mol)

$$$$
46174147
 OpenBabel03032110343D

 34 34  0  0  0  0  0  0  0  0999 V2000
   -0.3372   -4.2435   -1.0384 C   0  0  0  0  0  0  0  0  0  0  0  0
   -0.2113   -2.9624   -0.2805 C   0  0  0  0  0  0  0  0  0  0  0  0
    0.8072   -2.7597    0.4346 O   0  0  0  0  0  0  0  0  0  0  0  0
   -1.2629   -1.9889   -0.3424 N   0  0  0  0  0  0  0  0  0  0  0  0
   -1.1810   -0.6980    0.3516 C   0  0  1  0  0  0  0  0  0  0  0  0
   -0.2212    0.2516   -0.3936 C   0  0  1  0  0  0  0  0  0  0  0  0
   -0.5981    0.3790   -1.7679 O   0  0  0  0  0  0  0  0  0  0  0  0
    0.1830    1.0508   -2.7127 C   0  0  0  0  0  0  0  0  0  0  0  0
   -0.2715    1.1455   -4.0595 N   0  0  0  0  0  0  0  0  0  0  0  0
    1.2831    1.5729   -2.3857 O   0  0  0  0  0  0  0  0  0  0  0  0
   -0.1538    1.5187    0.2433 O   0  0  0  0  0  0  0  0  0  0  0  0
   -1.4156    2.1695    0.2542 C   0  0  2  0  0  0  0  0  0  0  0  0
   -1.2282    3.5834    0.8277 C   0  0  0  0  0  0  0  0  0  0  0  0
   -0.8054    3.5381    2.1650 O   0  0  0  0  0  0  0  0  0  0  0  0
   -2.4506    1.3546    1.0677 C   0  0  1  0  0  0  0  0  0  0  0  0
   -3.7079    1.9820    1.0195 O   0  0  0  0  0  0  0  0  0  0  0  0
   -2.5744   -0.0563    0.4711 C   0  0  2  0  0  0  0  0  0  0  0  0
   -3.3821   -0.8567    1.2961 O   0  0  0  0  0  0  0  0  0  0  0  0
   -1.1218   -4.8740   -0.5705 H   0  0  0  0  0  0  0  0  0  0  0  0
   -0.6194   -4.0291   -2.0905 H   0  0  0  0  0  0  0  0  0  0  0  0
    0.6256   -4.7973   -1.0320 H   0  0  0  0  0  0  0  0  0  0  0  0
   -2.1232   -2.2281   -0.8870 H   0  0  0  0  0  0  0  0  0  0  0  0
   -0.7890   -0.8637    1.3810 H   0  0  0  0  0  0  0  0  0  0  0  0
    0.7950   -0.1969   -0.3525 H   0  0  0  0  0  0  0  0  0  0  0  0
    0.3006    1.6419   -4.7780 H   0  0  0  0  0  0  0  0  0  0  0  0
   -1.1824    0.7177   -4.3366 H   0  0  0  0  0  0  0  0  0  0  0  0
   -1.7921    2.3019   -0.7865 H   0  0  0  0  0  0  0  0  0  0  0  0
   -2.1850    4.1439    0.7734 H   0  0  0  0  0  0  0  0  0  0  0  0
   -0.4907    4.1432    0.2078 H   0  0  0  0  0  0  0  0  0  0  0  0
    0.1688    3.3481    2.1508 H   0  0  0  0  0  0  0  0  0  0  0  0
   -2.1002    1.2555    2.1239 H   0  0  0  0  0  0  0  0  0  0  0  0
   -3.7751    2.5641    1.8209 H   0  0  0  0  0  0  0  0  0  0  0  0
   -3.0255    0.0163   -0.5482 H   0  0  0  0  0  0  0  0  0  0  0  0
   -4.3249   -0.6251    1.0888 H   0  0  0  0  0  0  0  0  0  0  0  0
  1  2  1  0  0  0  0
  1 19  1  0  0  0  0
  1 20  1  0  0  0  0
  1 21  1  0  0  0  0
  2  3  2  0  0  0  0
  2  4  1  0  0  0  0
  4  5  1  0  0  0  0
  4 22  1  0  0  0  0
  5  6  1  0  0  0  0
  5 23  1  1  0  0  0
  6  7  1  0  0  0  0
  6 11  1  0  0  0  0
  6 24  1  1  0  0  0
  7  8  1  0  0  0  0
  8  9  1  0  0  0  0
  8 10  2  0  0  0  0
  9 25  1  0  0  0  0
  9 26  1  0  0  0  0
 11 12  1  0  0  0  0
 12 13  1  0  0  0  0
 12 15  1  0  0  0  0
 12 27  1  6  0  0  0
 13 14  1  0  0  0  0
 13 28  1  0  0  0  0
 13 29  1  0  0  0  0
 14 30  1  0  0  0  0
 15 16  1  0  0  0  0
 15 17  1  0  0  0  0
 15 31  1  1  0  0  0
 16 32  1  0  0  0  0
 17 18  1  0  0  0  0
 17  5  1  0  0  0  0
 17 33  1  6  0  0  0
 18 34  1  0  0  0  0
M  END
>  <UniqueID>
44

>  <SMILES>
CC(=O)N[C@H]1[C@@H](OC(N)=O)O[C@H](CO)[C@@H](O)[C@@H]1O

>  <Energy>
25.16813974318025

>  <Genealogy>
CC(=O)N[C@H]1[C@@H](OC(N)=O)O[C@H](CO)[C@@H](O)[C@@H]1O (3D coordinates assigned)
CC(=O)N[C@H]1[C@@H](OC(N)=O)O[C@H](CO)[C@@H](O)[C@@H]1O (nonaromatic ring conformer: 25.16813974318025 kcal/mol)

$$$$
45934204
 OpenBabel03032110343D

 38 38  0  0  0  0  0  0  0  0999 V2000
    1.4201   -3.4716    2.9622 H   0  0  0  0  0  0  0  0  0  0  0  0
    0.7677   -3.2479    2.2204 O   0  0  0  0  0  0  0  0  0  0  0  0
    1.0186   -2.2249    1.3095 C   0  0  0  0  0  0  0  0  0  0  0  0
    0.1378   -2.0008    0.3764 N   0  0  0  0  0  0  0  0  0  0  0  0
    0.1926   -0.9680   -0.6647 C   0  0  1  0  0  0  0  0  0  0  0  0
    1.2390   -0.6372   -0.8469 H   0  0  0  0  0  0  0  0  0  0  0  0
   -0.3470   -1.5512   -1.9864 C   0  0  2  0  0  0  0  0  0  0  0  0
   -1.3880   -1.9359   -1.8424 H   0  0  0  0  0  0  0  0  0  0  0  0
    0.4775   -2.6085   -2.4023 O   0  0  0  0  0  0  0  0  0  0  0  0
    0.1930   -3.4171   -1.9011 H   0  0  0  0  0  0  0  0  0  0  0  0
   -0.3309   -0.5607   -2.9976 O   0  0  0  0  0  0  0  0  0  0  0  0
   -1.2402    0.4839   -2.6946 C   0  0  2  0  0  0  0  0  0  0  0  0
   -2.2655    0.0704   -2.5430 H   0  0  0  0  0  0  0  0  0  0  0  0
   -1.2978    1.4249   -3.9100 C   0  0  0  0  0  0  0  0  0  0  0  0
   -0.3359    1.9715   -4.0117 H   0  0  0  0  0  0  0  0  0  0  0  0
   -1.4381    0.8278   -4.8403 H   0  0  0  0  0  0  0  0  0  0  0  0
   -2.3394    2.3558   -3.7851 O   0  0  0  0  0  0  0  0  0  0  0  0
   -3.1834    1.8653   -3.9662 H   0  0  0  0  0  0  0  0  0  0  0  0
   -0.7828    1.2317   -1.4179 C   0  0  1  0  0  0  0  0  0  0  0  0
    0.2279    1.6741   -1.5997 H   0  0  0  0  0  0  0  0  0  0  0  0
   -1.7135    2.2303   -1.0819 O   0  0  0  0  0  0  0  0  0  0  0  0
   -1.3289    3.1007   -1.3650 H   0  0  0  0  0  0  0  0  0  0  0  0
   -0.6664    0.2404   -0.2449 C   0  0  2  0  0  0  0  0  0  0  0  0
   -1.6867   -0.1501   -0.0054 H   0  0  0  0  0  0  0  0  0  0  0  0
   -0.0430    0.8870    0.8547 O   0  0  0  0  0  0  0  0  0  0  0  0
   -0.9719    1.2708    1.8546 C   0  0  2  0  0  0  0  0  0  0  0  0
   -1.9637    1.5535    1.4285 H   0  0  0  0  0  0  0  0  0  0  0  0
   -0.4282    2.4715    2.5684 C   0  0  0  0  0  0  0  0  0  0  0  0
   -1.1896    3.4273    2.8728 O   0  0  0  0  0  0  0  0  0  0  0  0
    0.9116    2.5186    2.9350 O   0  5  0  0  0  0  0  0  0  0  0  0
   -1.1675    0.1314    2.8582 C   0  0  0  0  0  0  0  0  0  0  0  0
   -1.8506    0.4505    3.6745 H   0  0  0  0  0  0  0  0  0  0  0  0
   -0.1928   -0.1711    3.2983 H   0  0  0  0  0  0  0  0  0  0  0  0
   -1.6186   -0.7496    2.3561 H   0  0  0  0  0  0  0  0  0  0  0  0
    2.2962   -1.4375    1.4189 C   0  0  0  0  0  0  0  0  0  0  0  0
    2.0815   -0.3538    1.5051 H   0  0  0  0  0  0  0  0  0  0  0  0
    2.8663   -1.7436    2.3204 H   0  0  0  0  0  0  0  0  0  0  0  0
    2.9310   -1.6245    0.5278 H   0  0  0  0  0  0  0  0  0  0  0  0
  1  2  1  0  0  0  0
  2  3  1  0  0  0  0
  3  4  2  0  0  0  0
  3 35  1  0  0  0  0
  4  5  1  0  0  0  0
  5  6  1  6  0  0  0
  5  7  1  0  0  0  0
  7  8  1  1  0  0  0
  7  9  1  0  0  0  0
  7 11  1  0  0  0  0
  9 10  1  0  0  0  0
 11 12  1  0  0  0  0
 12 13  1  1  0  0  0
 12 14  1  0  0  0  0
 12 19  1  0  0  0  0
 14 15  1  0  0  0  0
 14 16  1  0  0  0  0
 14 17  1  0  0  0  0
 17 18  1  0  0  0  0
 19 20  1  6  0  0  0
 19 21  1  0  0  0  0
 19 23  1  0  0  0  0
 21 22  1  0  0  0  0
 23 24  1  1  0  0  0
 23 25  1  0  0  0  0
 23  5  1  0  0  0  0
 25 26  1  0  0  0  0
 26 27  1  6  0  0  0
 26 28  1  0  0  0  0
 26 31  1  0  0  0  0
 28 29  2  0  0  0  0
 28 30  1  0  0  0  0
 31 32  1  0  0  0  0
 31 33  1  0  0  0  0
 31 34  1  0  0  0  0
 35 36  1  0  0  0  0
 35 37  1  0  0  0  0
 35 38  1  0  0  0  0
M  CHG  1  30  -1
M  END
>  <UniqueID>
45

>  <SMILES>
C/C(O)=N\[C@H]1[C@H](O)O[C@H](CO)[C@@H](O)[C@@H]1O[C@@H](C)C(=O)[O-]

>  <Energy>
35.06884186767618

>  <Genealogy>
CC(=O)N[C@H]1[C@H](O)O[C@H](CO)[C@@H](O)[C@@H]1OC(C)C(=O)[O-] (protonated)
CC(O)=N[C@H]1[C@H](O)O[C@H](CO)[C@@H](O)[C@@H]1OC(C)C(=O)[O-] (tautomer)
CC(O)=N[C@H]1[C@H](O)O[C@H](CO)[C@@H](O)[C@@H]1O[C@@H](C)C(=O)[O-] (chirality)
C/C(O)=N\[C@H]1[C@H](O)O[C@H](CO)[C@@H](O)[C@@H]1O[C@@H](C)C(=O)[O-] (cis-trans isomerization)
C/C(O)=N\[C@H]1[C@H](O)O[C@H](CO)[C@@H](O)[C@@H]1O[C@@H](C)C(=O)[O-] (3D coordinates assigned)
C/C(O)=N\[C@H]1[C@H](O)O[C@H](CO)[C@@H](O)[C@@H]1O[C@@H](C)C(=O)[O-] (nonaromatic ring conformer: 35.06884186767618 kcal/mol)

$$$$
45934204
 OpenBabel03032110343D

 38 38  0  0  0  0  0  0  0  0999 V2000
    2.0800   -4.1723    0.7405 H   0  0  0  0  0  0  0  0  0  0  0  0
    1.5967   -3.2993    0.5670 O   0  0  0  0  0  0  0  0  0  0  0  0
    0.2054   -3.2212    0.6242 C   0  0  0  0  0  0  0  0  0  0  0  0
   -0.4063   -2.1004    0.3822 N   0  0  0  0  0  0  0  0  0  0  0  0
    0.2657   -0.8451    0.0347 C   0  0  1  0  0  0  0  0  0  0  0  0
    1.1587   -0.7260    0.6882 H   0  0  0  0  0  0  0  0  0  0  0  0
    0.7158   -0.8694   -1.4436 C   0  0  2  0  0  0  0  0  0  0  0  0
    1.2857   -1.8112   -1.6099 H   0  0  0  0  0  0  0  0  0  0  0  0
    1.5739    0.2026   -1.7404 O   0  0  0  0  0  0  0  0  0  0  0  0
    2.4256    0.0348   -1.2583 H   0  0  0  0  0  0  0  0  0  0  0  0
   -0.3811   -0.9045   -2.3450 O   0  0  0  0  0  0  0  0  0  0  0  0
   -1.2952    0.1772   -2.1970 C   0  0  2  0  0  0  0  0  0  0  0  0
   -2.1820   -0.1049   -2.8078 H   0  0  0  0  0  0  0  0  0  0  0  0
   -0.7806    1.4800   -2.8431 C   0  0  0  0  0  0  0  0  0  0  0  0
   -0.0293    1.9852   -2.2034 H   0  0  0  0  0  0  0  0  0  0  0  0
   -0.3010    1.2326   -3.8166 H   0  0  0  0  0  0  0  0  0  0  0  0
   -1.8517    2.3557   -3.0678 O   0  0  0  0  0  0  0  0  0  0  0  0
   -1.4649    3.1613   -3.4998 H   0  0  0  0  0  0  0  0  0  0  0  0
   -1.8212    0.3504   -0.7486 C   0  0  1  0  0  0  0  0  0  0  0  0
   -2.3568    1.3268   -0.6780 H   0  0  0  0  0  0  0  0  0  0  0  0
   -2.7354   -0.6829   -0.4755 O   0  0  0  0  0  0  0  0  0  0  0  0
   -3.2908   -0.3853    0.2921 H   0  0  0  0  0  0  0  0  0  0  0  0
   -0.6867    0.3351    0.2949 C   0  0  2  0  0  0  0  0  0  0  0  0
   -1.1669    0.1972    1.2953 H   0  0  0  0  0  0  0  0  0  0  0  0
    0.0247    1.5620    0.2251 O   0  0  0  0  0  0  0  0  0  0  0  0
    0.4778    1.9869    1.4985 C   0  0  2  0  0  0  0  0  0  0  0  0
    0.7808    1.1290    2.1454 H   0  0  0  0  0  0  0  0  0  0  0  0
   -0.5955    2.7835    2.1838 C   0  0  0  0  0  0  0  0  0  0  0  0
   -0.7818    2.6595    3.4228 O   0  0  0  0  0  0  0  0  0  0  0  0
   -1.3621    3.6901    1.4614 O   0  5  0  0  0  0  0  0  0  0  0  0
    1.7166    2.8567    1.3075 C   0  0  0  0  0  0  0  0  0  0  0  0
    1.4810    3.7377    0.6721 H   0  0  0  0  0  0  0  0  0  0  0  0
    2.0980    3.2078    2.2905 H   0  0  0  0  0  0  0  0  0  0  0  0
    2.5150    2.2650    0.8110 H   0  0  0  0  0  0  0  0  0  0  0  0
   -0.5949   -4.4426    0.9425 C   0  0  0  0  0  0  0  0  0  0  0  0
   -0.6420   -5.0955    0.0465 H   0  0  0  0  0  0  0  0  0  0  0  0
   -0.1150   -4.9991    1.7745 H   0  0  0  0  0  0  0  0  0  0  0  0
   -1.6275   -4.1685    1.2476 H   0  0  0  0  0  0  0  0  0  0  0  0
  1  2  1  0  0  0  0
  2  3  1  0  0  0  0
  3  4  2  0  0  0  0
  3 35  1  0  0  0  0
  4  5  1  0  0  0  0
  5  6  1  1  0  0  0
  5  7  1  0  0  0  0
  7  8  1  6  0  0  0
  7  9  1  0  0  0  0
  7 11  1  0  0  0  0
  9 10  1  0  0  0  0
 11 12  1  0  0  0  0
 12 13  1  6  0  0  0
 12 14  1  0  0  0  0
 12 19  1  0  0  0  0
 14 15  1  0  0  0  0
 14 16  1  0  0  0  0
 14 17  1  0  0  0  0
 17 18  1  0  0  0  0
 19 20  1  1  0  0  0
 19 21  1  0  0  0  0
 19 23  1  0  0  0  0
 21 22  1  0  0  0  0
 23 24  1  1  0  0  0
 23 25  1  0  0  0  0
 23  5  1  0  0  0  0
 25 26  1  0  0  0  0
 26 27  1  1  0  0  0
 26 28  1  0  0  0  0
 26 31  1  0  0  0  0
 28 29  2  0  0  0  0
 28 30  1  0  0  0  0
 31 32  1  0  0  0  0
 31 33  1  0  0  0  0
 31 34  1  0  0  0  0
 35 36  1  0  0  0  0
 35 37  1  0  0  0  0
 35 38  1  0  0  0  0
M  CHG  1  30  -1
M  END
>  <UniqueID>
46

>  <SMILES>
C/C(O)=N\[C@H]1[C@H](O)O[C@H](CO)[C@@H](O)[C@@H]1O[C@@H](C)C(=O)[O-]

>  <Energy>
39.662586010320226

>  <Genealogy>
CC(=O)N[C@H]1[C@H](O)O[C@H](CO)[C@@H](O)[C@@H]1OC(C)C(=O)[O-] (protonated)
CC(O)=N[C@H]1[C@H](O)O[C@H](CO)[C@@H](O)[C@@H]1OC(C)C(=O)[O-] (tautomer)
CC(O)=N[C@H]1[C@H](O)O[C@H](CO)[C@@H](O)[C@@H]1O[C@@H](C)C(=O)[O-] (chirality)
C/C(O)=N\[C@H]1[C@H](O)O[C@H](CO)[C@@H](O)[C@@H]1O[C@@H](C)C(=O)[O-] (cis-trans isomerization)
C/C(O)=N\[C@H]1[C@H](O)O[C@H](CO)[C@@H](O)[C@@H]1O[C@@H](C)C(=O)[O-] (3D coordinates assigned)
C/C(O)=N\[C@H]1[C@H](O)O[C@H](CO)[C@@H](O)[C@@H]1O[C@@H](C)C(=O)[O-] (nonaromatic ring conformer: 39.662586010320226 kcal/mol)

$$$$
45933887
 OpenBabel03032110343D

 26 26  0  0  0  0  0  0  0  0999 V2000
   -2.8804    0.0719    0.0021 N   0  3  0  0  0  0  0  0  0  0  0  0
   -1.4787   -0.1358    0.3941 C   0  0  2  0  0  0  0  0  0  0  0  0
   -0.7561    1.2185    0.5825 C   0  0  1  0  0  0  0  0  0  0  0  0
   -1.3903    1.9413    1.6027 O   0  0  0  0  0  0  0  0  0  0  0  0
    0.5956    1.0077    0.9522 O   0  0  0  0  0  0  0  0  0  0  0  0
    1.3111    0.3868   -0.1018 C   0  0  1  0  0  0  0  0  0  0  0  0
    2.7960    0.3484    0.2779 C   0  0  0  0  0  0  0  0  0  0  0  0
    3.2644    1.6530    0.4805 O   0  0  0  0  0  0  0  0  0  0  0  0
    0.7698   -1.0397   -0.3427 C   0  0  2  0  0  0  0  0  0  0  0  0
    1.4588   -1.6323   -1.4146 O   0  0  0  0  0  0  0  0  0  0  0  0
   -0.7333   -0.9784   -0.6661 C   0  0  1  0  0  0  0  0  0  0  0  0
   -1.2492   -2.2859   -0.6893 O   0  0  0  0  0  0  0  0  0  0  0  0
   -3.3804    0.6275    0.7332 H   0  0  0  0  0  0  0  0  0  0  0  0
   -2.9362    0.5789   -0.9113 H   0  0  0  0  0  0  0  0  0  0  0  0
   -3.3691   -0.8481   -0.0841 H   0  0  0  0  0  0  0  0  0  0  0  0
   -1.4541   -0.6833    1.3647 H   0  0  0  0  0  0  0  0  0  0  0  0
   -0.8200    1.8107   -0.3633 H   0  0  0  0  0  0  0  0  0  0  0  0
   -0.9704    2.8409    1.6124 H   0  0  0  0  0  0  0  0  0  0  0  0
    1.2253    0.9836   -1.0411 H   0  0  0  0  0  0  0  0  0  0  0  0
    2.9293   -0.2453    1.2106 H   0  0  0  0  0  0  0  0  0  0  0  0
    3.3831   -0.1289   -0.5385 H   0  0  0  0  0  0  0  0  0  0  0  0
    4.2207    1.5667    0.7316 H   0  0  0  0  0  0  0  0  0  0  0  0
    0.9202   -1.6375    0.5886 H   0  0  0  0  0  0  0  0  0  0  0  0
    1.3456   -2.6143   -1.3225 H   0  0  0  0  0  0  0  0  0  0  0  0
   -0.8506   -0.4944   -1.6668 H   0  0  0  0  0  0  0  0  0  0  0  0
   -1.9511   -2.3122   -1.3908 H   0  0  0  0  0  0  0  0  0  0  0  0
  1  2  1  0  0  0  0
  1 13  1  0  0  0  0
  1 14  1  0  0  0  0
  1 15  1  0  0  0  0
  2  3  1  0  0  0  0
  2 16  1  1  0  0  0
  3  4  1  0  0  0  0
  3  5  1  0  0  0  0
  3 17  1  6  0  0  0
  4 18  1  0  0  0  0
  5  6  1  0  0  0  0
  6  7  1  0  0  0  0
  6  9  1  0  0  0  0
  6 19  1  6  0  0  0
  7  8  1  0  0  0  0
  7 20  1  0  0  0  0
  7 21  1  0  0  0  0
  8 22  1  0  0  0  0
  9 10  1  0  0  0  0
  9 11  1  0  0  0  0
  9 23  1  1  0  0  0
 10 24  1  0  0  0  0
 11 12  1  0  0  0  0
 11  2  1  0  0  0  0
 11 25  1  6  0  0  0
 12 26  1  0  0  0  0
M  CHG  1   1   1
M  END
>  <UniqueID>
47

>  <SMILES>
[NH3+][C@@H]1[C@@H](O)O[C@@H](CO)[C@H](O)[C@H]1O

>  <Energy>
21.7281730675372

>  <Genealogy>
[NH3+][C@@H]1C(O)O[C@@H](CO)[C@H](O)[C@H]1O (protonated)
[NH3+][C@@H]1[C@@H](O)O[C@@H](CO)[C@H](O)[C@H]1O (chirality)
[NH3+][C@@H]1[C@@H](O)O[C@@H](CO)[C@H](O)[C@H]1O (3D coordinates assigned)
[NH3+][C@@H]1[C@@H](O)O[C@@H](CO)[C@H](O)[C@H]1O (nonaromatic ring conformer: 21.7281730675372 kcal/mol)

$$$$
45933887
 OpenBabel03032110343D

 25 25  0  0  0  0  0  0  0  0999 V2000
    1.3187    0.4813    2.4680 N   0  0  0  0  0  0  0  0  0  0  0  0
    0.6705    0.0790    1.2162 C   0  0  2  0  0  0  0  0  0  0  0  0
    0.4011   -1.4429    1.1747 C   0  0  2  0  0  0  0  0  0  0  0  0
    1.5816   -2.1770    1.3882 O   0  0  0  0  0  0  0  0  0  0  0  0
   -0.2191   -1.8157   -0.0473 O   0  0  0  0  0  0  0  0  0  0  0  0
    0.6106   -1.5326   -1.1652 C   0  0  1  0  0  0  0  0  0  0  0  0
   -0.0698   -2.0894   -2.4229 C   0  0  0  0  0  0  0  0  0  0  0  0
   -1.3147   -1.4761   -2.6185 O   0  0  0  0  0  0  0  0  0  0  0  0
    0.8780   -0.0112   -1.2878 C   0  0  2  0  0  0  0  0  0  0  0  0
    1.7511    0.2420   -2.3603 O   0  0  0  0  0  0  0  0  0  0  0  0
    1.5199    0.5074    0.0097 C   0  0  1  0  0  0  0  0  0  0  0  0
    1.6031    1.9094   -0.0228 O   0  0  0  0  0  0  0  0  0  0  0  0
    2.2249   -0.0291    2.5782 H   0  0  0  0  0  0  0  0  0  0  0  0
    0.7038    0.2062    3.2682 H   0  0  0  0  0  0  0  0  0  0  0  0
   -0.3117    0.6006    1.1521 H   0  0  0  0  0  0  0  0  0  0  0  0
   -0.3123   -1.6752    1.9975 H   0  0  0  0  0  0  0  0  0  0  0  0
    1.3095   -3.1288    1.4604 H   0  0  0  0  0  0  0  0  0  0  0  0
    1.5840   -2.0676   -1.0716 H   0  0  0  0  0  0  0  0  0  0  0  0
   -0.2127   -3.1863   -2.2981 H   0  0  0  0  0  0  0  0  0  0  0  0
    0.5787   -1.9285   -3.3128 H   0  0  0  0  0  0  0  0  0  0  0  0
   -1.6926   -1.8774   -3.4437 H   0  0  0  0  0  0  0  0  0  0  0  0
   -0.0910    0.5256   -1.4336 H   0  0  0  0  0  0  0  0  0  0  0  0
    1.1900    0.4541   -3.1513 H   0  0  0  0  0  0  0  0  0  0  0  0
    2.5414    0.0685    0.1157 H   0  0  0  0  0  0  0  0  0  0  0  0
    2.3927    2.1387   -0.5792 H   0  0  0  0  0  0  0  0  0  0  0  0
  1  2  1  0  0  0  0
  1 13  1  0  0  0  0
  1 14  1  0  0  0  0
  2  3  1  0  0  0  0
  2 15  1  6  0  0  0
  3  4  1  0  0  0  0
  3  5  1  0  0  0  0
  3 16  1  1  0  0  0
  4 17  1  0  0  0  0
  5  6  1  0  0  0  0
  6  7  1  0  0  0  0
  6  9  1  0  0  0  0
  6 18  1  1  0  0  0
  7  8  1  0  0  0  0
  7 19  1  0  0  0  0
  7 20  1  0  0  0  0
  8 21  1  0  0  0  0
  9 10  1  0  0  0  0
  9 11  1  0  0  0  0
  9 22  1  6  0  0  0
 10 23  1  0  0  0  0
 11 12  1  0  0  0  0
 11  2  1  0  0  0  0
 11 24  1  1  0  0  0
 12 25  1  0  0  0  0
M  END
>  <UniqueID>
48

>  <SMILES>
N[C@H]1[C@H](O)[C@@H](O)[C@H](CO)O[C@H]1O

>  <Energy>
22.79791847909555

>  <Genealogy>
N[C@H]1[C@H](O)[C@@H](O)[C@H](CO)O[C@H]1O (chirality)
N[C@H]1[C@H](O)[C@@H](O)[C@H](CO)O[C@H]1O (3D coordinates assigned)
N[C@H]1[C@H](O)[C@@H](O)[C@H](CO)O[C@H]1O (nonaromatic ring conformer: 22.79791847909555 kcal/mol)

$$$$
45357367
 OpenBabel03032110343D

 33 33  0  0  0  0  0  0  0  0999 V2000
   -4.3705    2.0010   -2.9112 C   0  0  0  0  0  0  0  0  0  0  0  0
   -2.9049    1.9721   -2.9356 N   0  0  0  0  0  0  0  0  0  0  0  0
   -2.1956    2.7674   -3.8538 N   0  0  0  0  0  0  0  0  0  0  0  0
   -2.7818    3.5414   -4.6389 O   0  0  0  0  0  0  0  0  0  0  0  0
   -2.1840    1.0169   -2.1360 C   0  0  0  0  0  0  0  0  0  0  0  0
   -2.8169    0.1548   -1.4660 O   0  0  0  0  0  0  0  0  0  0  0  0
   -0.7472    1.0384   -2.0963 N   0  0  0  0  0  0  0  0  0  0  0  0
    0.0380    0.0974   -1.2905 C   0  0  1  0  0  0  0  0  0  0  0  0
    1.2914   -0.3557   -2.0686 C   0  0  2  0  0  0  0  0  0  0  0  0
    0.8992   -1.0430   -3.2279 O   0  0  0  0  0  0  0  0  0  0  0  0
    2.0619   -1.2394   -1.2742 O   0  0  0  0  0  0  0  0  0  0  0  0
    2.5977   -0.5690   -0.1446 C   0  0  2  0  0  0  0  0  0  0  0  0
    3.5663   -1.5341    0.5599 C   0  0  0  0  0  0  0  0  0  0  0  0
    4.2771   -0.8882    1.5820 O   0  0  0  0  0  0  0  0  0  0  0  0
    1.4562   -0.1231    0.8016 C   0  0  1  0  0  0  0  0  0  0  0  0
    1.9860    0.5960    1.8859 O   0  0  0  0  0  0  0  0  0  0  0  0
    0.4644    0.7702    0.0285 C   0  0  2  0  0  0  0  0  0  0  0  0
   -0.6567    1.0780    0.8200 O   0  0  0  0  0  0  0  0  0  0  0  0
   -4.7456    3.0142   -3.1660 H   0  0  0  0  0  0  0  0  0  0  0  0
   -4.7517    1.7536   -1.8977 H   0  0  0  0  0  0  0  0  0  0  0  0
   -4.7690    1.2679   -3.6433 H   0  0  0  0  0  0  0  0  0  0  0  0
   -0.2418    1.8327   -2.5496 H   0  0  0  0  0  0  0  0  0  0  0  0
   -0.5625   -0.8119   -1.0619 H   0  0  0  0  0  0  0  0  0  0  0  0
    1.9075    0.5310   -2.3619 H   0  0  0  0  0  0  0  0  0  0  0  0
    0.6765   -0.3592   -3.9126 H   0  0  0  0  0  0  0  0  0  0  0  0
    3.1890    0.3204   -0.4678 H   0  0  0  0  0  0  0  0  0  0  0  0
    4.2793   -1.9585   -0.1838 H   0  0  0  0  0  0  0  0  0  0  0  0
    3.0011   -2.3850    0.9970 H   0  0  0  0  0  0  0  0  0  0  0  0
    4.9620   -0.3224    1.1388 H   0  0  0  0  0  0  0  0  0  0  0  0
    0.9261   -1.0352    1.1671 H   0  0  0  0  0  0  0  0  0  0  0  0
    1.3081    0.5651    2.6105 H   0  0  0  0  0  0  0  0  0  0  0  0
    0.9787    1.7268   -0.2164 H   0  0  0  0  0  0  0  0  0  0  0  0
   -1.1136    0.2244    1.0408 H   0  0  0  0  0  0  0  0  0  0  0  0
  1  2  1  0  0  0  0
  1 19  1  0  0  0  0
  1 20  1  0  0  0  0
  1 21  1  0  0  0  0
  2  3  1  0  0  0  0
  2  5  1  0  0  0  0
  3  4  2  0  0  0  0
  5  6  2  0  0  0  0
  5  7  1  0  0  0  0
  7  8  1  0  0  0  0
  7 22  1  0  0  0  0
  8  9  1  0  0  0  0
  8 23  1  1  0  0  0
  9 10  1  0  0  0  0
  9 11  1  0  0  0  0
  9 24  1  6  0  0  0
 10 25  1  0  0  0  0
 11 12  1  0  0  0  0
 12 13  1  0  0  0  0
 12 15  1  0  0  0  0
 12 26  1  6  0  0  0
 13 14  1  0  0  0  0
 13 27  1  0  0  0  0
 13 28  1  0  0  0  0
 14 29  1  0  0  0  0
 15 16  1  0  0  0  0
 15 17  1  0  0  0  0
 15 30  1  1  0  0  0
 16 31  1  0  0  0  0
 17 18  1  0  0  0  0
 17  8  1  0  0  0  0
 17 32  1  6  0  0  0
 18 33  1  0  0  0  0
M  END
>  <UniqueID>
49

>  <SMILES>
CN(N=O)C(=O)N[C@H]1[C@H](O)O[C@H](CO)[C@@H](O)[C@@H]1O

>  <Energy>
29.41115823605938

>  <Genealogy>
CN(N=O)C(=O)N[C@H]1[C@H](O)O[C@H](CO)[C@@H](O)[C@@H]1O (chirality)
CN(N=O)C(=O)N[C@H]1[C@H](O)O[C@H](CO)[C@@H](O)[C@@H]1O (3D coordinates assigned)
CN(N=O)C(=O)N[C@H]1[C@H](O)O[C@H](CO)[C@@H](O)[C@@H]1O (nonaromatic ring conformer: 29.41115823605938 kcal/mol)

$$$$
45357367
 OpenBabel03032110343D

 34 34  0  0  0  0  0  0  0  0999 V2000
    4.7522   -1.2570   -2.1487 H   0  0  0  0  0  0  0  0  0  0  0  0
    5.3158   -0.4456   -2.3655 O   0  0  0  0  0  0  0  0  0  0  0  0
    4.9726    0.8334   -1.9701 N   0  0  0  0  0  0  0  0  0  0  0  0
    3.8421    1.1479   -1.4607 N   0  3  0  0  0  0  0  0  0  0  0  0
    2.7653    0.2032   -1.3212 C   0  0  0  0  0  0  0  0  0  0  0  0
    2.4411   -0.5255   -2.2985 O   0  0  0  0  0  0  0  0  0  0  0  0
    2.0263    0.1309   -0.0922 N   0  0  0  0  0  0  0  0  0  0  0  0
    2.3034    0.7626    0.6930 H   0  0  0  0  0  0  0  0  0  0  0  0
    0.7999   -0.6598    0.0513 C   0  0  1  0  0  0  0  0  0  0  0  0
    0.7672   -1.4659   -0.7160 H   0  0  0  0  0  0  0  0  0  0  0  0
    0.7613   -1.3324    1.4366 C   0  0  2  0  0  0  0  0  0  0  0  0
    0.8450   -0.5550    2.2354 H   0  0  0  0  0  0  0  0  0  0  0  0
    1.8541   -2.2032    1.5479 O   0  0  0  0  0  0  0  0  0  0  0  0
    1.8544   -2.5346    2.4837 H   0  0  0  0  0  0  0  0  0  0  0  0
   -0.4357   -2.0779    1.5861 O   0  0  0  0  0  0  0  0  0  0  0  0
   -1.5633   -1.2171    1.5957 C   0  0  2  0  0  0  0  0  0  0  0  0
   -1.4537   -0.4432    2.3922 H   0  0  0  0  0  0  0  0  0  0  0  0
   -2.8053   -2.0437    1.9541 C   0  0  0  0  0  0  0  0  0  0  0  0
   -2.6673   -2.4775    2.9699 H   0  0  0  0  0  0  0  0  0  0  0  0
   -3.7053   -1.3892    1.9780 H   0  0  0  0  0  0  0  0  0  0  0  0
   -2.9901   -3.0778    1.0263 O   0  0  0  0  0  0  0  0  0  0  0  0
   -3.8045   -3.5653    1.3161 H   0  0  0  0  0  0  0  0  0  0  0  0
   -1.7246   -0.5190    0.2242 C   0  0  1  0  0  0  0  0  0  0  0  0
   -1.9031   -1.2991   -0.5538 H   0  0  0  0  0  0  0  0  0  0  0  0
   -2.8086    0.3735    0.2718 O   0  0  0  0  0  0  0  0  0  0  0  0
   -3.0827    0.5432   -0.6671 H   0  0  0  0  0  0  0  0  0  0  0  0
   -0.4320    0.2512   -0.1154 C   0  0  2  0  0  0  0  0  0  0  0  0
   -0.3378    1.1030    0.5954 H   0  0  0  0  0  0  0  0  0  0  0  0
   -0.4908    0.7838   -1.4158 O   0  0  0  0  0  0  0  0  0  0  0  0
   -0.5732    0.0238   -2.0497 H   0  0  0  0  0  0  0  0  0  0  0  0
    3.6593    2.5136   -0.9751 C   0  0  0  0  0  0  0  0  0  0  0  0
    4.2493    3.2261   -1.5914 H   0  0  0  0  0  0  0  0  0  0  0  0
    3.9983    2.5825    0.0799 H   0  0  0  0  0  0  0  0  0  0  0  0
    2.5898    2.8103   -1.0365 H   0  0  0  0  0  0  0  0  0  0  0  0
  1  2  1  0  0  0  0
  2  3  1  0  0  0  0
  3  4  2  0  0  0  0
  4  5  1  0  0  0  0
  4 31  1  0  0  0  0
  5  6  2  0  0  0  0
  5  7  1  0  0  0  0
  7  8  1  0  0  0  0
  7  9  1  0  0  0  0
  9 10  1  6  0  0  0
  9 11  1  0  0  0  0
 11 12  1  1  0  0  0
 11 13  1  0  0  0  0
 11 15  1  0  0  0  0
 13 14  1  0  0  0  0
 15 16  1  0  0  0  0
 16 17  1  1  0  0  0
 16 18  1  0  0  0  0
 16 23  1  0  0  0  0
 18 19  1  0  0  0  0
 18 20  1  0  0  0  0
 18 21  1  0  0  0  0
 21 22  1  0  0  0  0
 23 24  1  6  0  0  0
 23 25  1  0  0  0  0
 23 27  1  0  0  0  0
 25 26  1  0  0  0  0
 27 28  1  1  0  0  0
 27 29  1  0  0  0  0
 27  9  1  0  0  0  0
 29 30  1  0  0  0  0
 31 32  1  0  0  0  0
 31 33  1  0  0  0  0
 31 34  1  0  0  0  0
M  CHG  1   4   1
M  END
>  <UniqueID>
50

>  <SMILES>
C/[N+](=N\O)C(=O)N[C@H]1[C@H](O)O[C@H](CO)[C@@H](O)[C@@H]1O

>  <Energy>
35.15469687860515

>  <Genealogy>
C[NH+](N=O)C(=O)NC1[C@H](O)O[C@H](CO)[C@@H](O)[C@@H]1O (protonated)
C[N+](=NO)C(=O)NC1[C@H](O)O[C@H](CO)[C@@H](O)[C@@H]1O (tautomer)
C[N+](=NO)C(=O)N[C@H]1[C@H](O)O[C@H](CO)[C@@H](O)[C@@H]1O (chirality)
C/[N+](=N\O)C(=O)N[C@H]1[C@H](O)O[C@H](CO)[C@@H](O)[C@@H]1O (cis-trans isomerization)
C/[N+](=N\O)C(=O)N[C@H]1[C@H](O)O[C@H](CO)[C@@H](O)[C@@H]1O (3D coordinates assigned)
C/[N+](=N\O)C(=O)N[C@H]1[C@H](O)O[C@H](CO)[C@@H](O)[C@@H]1O (nonaromatic ring conformer: 35.15469687860515 kcal/mol)

$$$$
45266822
 OpenBabel03032110343D

 52 52  0  0  0  0  0  0  0  0999 V2000
   -2.1107   -2.5994    6.1048 C   0  0  0  0  0  0  0  0  0  0  0  0
   -1.9801   -1.6331    4.9731 C   0  0  0  0  0  0  0  0  0  0  0  0
   -3.0085   -1.2879    4.3302 O   0  0  0  0  0  0  0  0  0  0  0  0
   -0.6851   -1.1424    4.5972 N   0  0  0  0  0  0  0  0  0  0  0  0
   -0.4721   -0.2698    3.4377 C   0  0  1  0  0  0  0  0  0  0  0  0
    0.5876    0.8066    3.7690 C   0  0  2  0  0  0  0  0  0  0  0  0
    0.1084    1.6318    4.7984 O   0  0  0  0  0  0  0  0  0  0  0  0
    0.8377    1.6205    2.6358 O   0  0  0  0  0  0  0  0  0  0  0  0
    1.4381    0.8628    1.5984 C   0  0  2  0  0  0  0  0  0  0  0  0
    1.8862    1.8169    0.4844 C   0  0  0  0  0  0  0  0  0  0  0  0
    2.5630    1.0919   -0.5151 O   0  0  0  0  0  0  0  0  0  0  0  0
    2.9734    2.1487   -1.7943 P   0  0  2  0  0  0  0  0  0  0  0  0
    4.4556    2.0230   -2.0602 O   0  0  0  0  0  0  0  0  0  0  0  0
    2.6300    3.7678   -1.4262 O   0  5  0  0  0  0  0  0  0  0  0  0
    2.1315    1.6984   -3.2073 O   0  0  0  0  0  0  0  0  0  0  0  0
    0.7518    1.7007   -2.9252 C   0  0  0  0  0  0  0  0  0  0  0  0
   -0.0128    1.3725   -4.2225 C   0  0  0  0  0  0  0  0  0  0  0  0
   -1.5026    1.3264   -4.0967 N   0  3  0  0  0  0  0  0  0  0  0  0
   -2.0622    1.0056   -5.4328 C   0  0  0  0  0  0  0  0  0  0  0  0
   -1.9326    0.2707   -3.1481 C   0  0  0  0  0  0  0  0  0  0  0  0
   -2.0502    2.6355   -3.6655 C   0  0  0  0  0  0  0  0  0  0  0  0
    0.4518   -0.2121    1.0711 C   0  0  2  0  0  0  0  0  0  0  0  0
   -0.6476    0.3607    0.4020 O   0  0  0  0  0  0  0  0  0  0  0  0
   -0.0132   -1.1133    2.2338 C   0  0  2  0  0  0  0  0  0  0  0  0
   -1.0621   -1.9484    1.8151 O   0  0  0  0  0  0  0  0  0  0  0  0
   -1.8071   -3.6109    5.7627 H   0  0  0  0  0  0  0  0  0  0  0  0
   -3.1612   -2.6368    6.4640 H   0  0  0  0  0  0  0  0  0  0  0  0
   -1.4574   -2.2862    6.9462 H   0  0  0  0  0  0  0  0  0  0  0  0
    0.1517   -1.5264    5.0927 H   0  0  0  0  0  0  0  0  0  0  0  0
   -1.4191    0.2546    3.1800 H   0  0  0  0  0  0  0  0  0  0  0  0
    1.5374    0.3209    4.1063 H   0  0  0  0  0  0  0  0  0  0  0  0
    0.2596    1.1513    5.6539 H   0  0  0  0  0  0  0  0  0  0  0  0
    2.3597    0.3571    1.9740 H   0  0  0  0  0  0  0  0  0  0  0  0
    0.9916    2.3371    0.0716 H   0  0  0  0  0  0  0  0  0  0  0  0
    2.5712    2.5713    0.9342 H   0  0  0  0  0  0  0  0  0  0  0  0
    0.5288    0.9252   -2.1624 H   0  0  0  0  0  0  0  0  0  0  0  0
    0.4404    2.7030   -2.5592 H   0  0  0  0  0  0  0  0  0  0  0  0
    0.2792    2.1327   -4.9837 H   0  0  0  0  0  0  0  0  0  0  0  0
    0.3662    0.3930   -4.5960 H   0  0  0  0  0  0  0  0  0  0  0  0
   -3.1745    0.9564   -5.4067 H   0  0  0  0  0  0  0  0  0  0  0  0
   -1.7779    1.7784   -6.1824 H   0  0  0  0  0  0  0  0  0  0  0  0
   -1.6906    0.0210   -5.7971 H   0  0  0  0  0  0  0  0  0  0  0  0
   -3.0371    0.1318   -3.1767 H   0  0  0  0  0  0  0  0  0  0  0  0
   -1.4571   -0.7049   -3.3933 H   0  0  0  0  0  0  0  0  0  0  0  0
   -1.6762    0.5328   -2.1009 H   0  0  0  0  0  0  0  0  0  0  0  0
   -1.7897    2.8617   -2.6091 H   0  0  0  0  0  0  0  0  0  0  0  0
   -3.1617    2.6425   -3.7241 H   0  0  0  0  0  0  0  0  0  0  0  0
   -1.6671    3.4602   -4.3070 H   0  0  0  0  0  0  0  0  0  0  0  0
    0.9900   -0.8551    0.3405 H   0  0  0  0  0  0  0  0  0  0  0  0
   -1.0658    1.0281    1.0044 H   0  0  0  0  0  0  0  0  0  0  0  0
    0.8524   -1.7391    2.5599 H   0  0  0  0  0  0  0  0  0  0  0  0
   -0.6570   -2.6488    1.2395 H   0  0  0  0  0  0  0  0  0  0  0  0
  1  2  1  0  0  0  0
  1 26  1  0  0  0  0
  1 27  1  0  0  0  0
  1 28  1  0  0  0  0
  2  3  2  0  0  0  0
  2  4  1  0  0  0  0
  4  5  1  0  0  0  0
  4 29  1  0  0  0  0
  5  6  1  0  0  0  0
  5 30  1  6  0  0  0
  6  7  1  0  0  0  0
  6  8  1  0  0  0  0
  6 31  1  1  0  0  0
  7 32  1  0  0  0  0
  8  9  1  0  0  0  0
  9 10  1  0  0  0  0
  9 22  1  0  0  0  0
  9 33  1  1  0  0  0
 10 11  1  0  0  0  0
 10 34  1  0  0  0  0
 10 35  1  0  0  0  0
 12 11  1  1  0  0  0
 12 13  2  0  0  0  0
 12 14  1  0  0  0  0
 12 15  1  0  0  0  0
 15 16  1  0  0  0  0
 16 17  1  0  0  0  0
 16 36  1  0  0  0  0
 16 37  1  0  0  0  0
 17 18  1  0  0  0  0
 17 38  1  0  0  0  0
 17 39  1  0  0  0  0
 18 19  1  0  0  0  0
 18 20  1  0  0  0  0
 18 21  1  0  0  0  0
 19 40  1  0  0  0  0
 19 41  1  0  0  0  0
 19 42  1  0  0  0  0
 20 43  1  0  0  0  0
 20 44  1  0  0  0  0
 20 45  1  0  0  0  0
 21 46  1  0  0  0  0
 21 47  1  0  0  0  0
 21 48  1  0  0  0  0
 22 23  1  0  0  0  0
 22 24  1  0  0  0  0
 22 49  1  6  0  0  0
 23 50  1  0  0  0  0
 24 25  1  0  0  0  0
 24  5  1  0  0  0  0
 24 51  1  1  0  0  0
 25 52  1  0  0  0  0
M  CHG  2  14  -1  18   1
M  END
>  <UniqueID>
51

>  <SMILES>
CC(=O)N[C@H]1[C@H](O)O[C@H](CO[P@](=O)([O-])OCC[N+](C)(C)C)[C@H](O)[C@@H]1O

>  <Energy>
49.19629167051553

>  <Genealogy>
CC(=O)N[C@H]1C(O)O[C@H](COP(=O)([O-])OCC[N+](C)(C)C)[C@H](O)[C@@H]1O (protonated)
CC(=O)N[C@H]1[C@H](O)O[C@H](CO[P@](=O)([O-])OCC[N+](C)(C)C)[C@H](O)[C@@H]1O (chirality)
CC(=O)N[C@H]1[C@H](O)O[C@H](CO[P@](=O)([O-])OCC[N+](C)(C)C)[C@H](O)[C@@H]1O (3D coordinates assigned)
CC(=O)N[C@H]1[C@H](O)O[C@H](CO[P@](=O)([O-])OCC[N+](C)(C)C)[C@H](O)[C@@H]1O (nonaromatic ring conformer: 49.19629167051553 kcal/mol)

$$$$
45266822
 OpenBabel03032110343D

 52 52  0  0  0  0  0  0  0  0999 V2000
    8.0220    0.9009    0.9062 C   0  0  0  0  0  0  0  0  0  0  0  0
    6.6667    0.8725    0.2786 C   0  0  0  0  0  0  0  0  0  0  0  0
    6.5381    1.1647   -0.9412 O   0  0  0  0  0  0  0  0  0  0  0  0
    5.5225    0.5151    1.0662 N   0  0  0  0  0  0  0  0  0  0  0  0
    4.1728    0.4276    0.4964 C   0  0  1  0  0  0  0  0  0  0  0  0
    4.0118   -0.8929   -0.2906 C   0  0  1  0  0  0  0  0  0  0  0  0
    4.3782   -1.9952    0.5021 O   0  0  0  0  0  0  0  0  0  0  0  0
    2.6931   -1.0430   -0.8000 O   0  0  0  0  0  0  0  0  0  0  0  0
    1.7317   -1.0735    0.2445 C   0  0  2  0  0  0  0  0  0  0  0  0
    0.3567   -1.4188   -0.3446 C   0  0  0  0  0  0  0  0  0  0  0  0
    0.0437   -0.5348   -1.3963 O   0  0  0  0  0  0  0  0  0  0  0  0
   -1.5130   -0.9191   -1.9724 P   0  0  1  0  0  0  0  0  0  0  0  0
   -1.8583    0.0311   -3.0966 O   0  0  0  0  0  0  0  0  0  0  0  0
   -1.5255   -2.5060   -2.5634 O   0  5  0  0  0  0  0  0  0  0  0  0
   -2.6446   -0.7455   -0.7072 O   0  0  0  0  0  0  0  0  0  0  0  0
   -3.9063   -1.1671   -1.1701 C   0  0  0  0  0  0  0  0  0  0  0  0
   -4.9672   -0.9638   -0.0669 C   0  0  0  0  0  0  0  0  0  0  0  0
   -5.4440    0.4413    0.1317 N   0  3  0  0  0  0  0  0  0  0  0  0
   -6.2013    0.9245   -1.0492 C   0  0  0  0  0  0  0  0  0  0  0  0
   -4.3219    1.3677    0.4145 C   0  0  0  0  0  0  0  0  0  0  0  0
   -6.3585    0.4495    1.3002 C   0  0  0  0  0  0  0  0  0  0  0  0
    1.7078    0.2680    1.0114 C   0  0  2  0  0  0  0  0  0  0  0  0
    1.3465    1.3141    0.1430 O   0  0  0  0  0  0  0  0  0  0  0  0
    3.1024    0.5289    1.6042 C   0  0  2  0  0  0  0  0  0  0  0  0
    3.1295    1.8045    2.1935 O   0  0  0  0  0  0  0  0  0  0  0  0
    8.7915    1.2029    0.1641 H   0  0  0  0  0  0  0  0  0  0  0  0
    8.0272    1.6269    1.7459 H   0  0  0  0  0  0  0  0  0  0  0  0
    8.2722   -0.1086    1.2940 H   0  0  0  0  0  0  0  0  0  0  0  0
    5.6700    0.2955    2.0778 H   0  0  0  0  0  0  0  0  0  0  0  0
    4.0198    1.2789   -0.2051 H   0  0  0  0  0  0  0  0  0  0  0  0
    4.7012   -0.8451   -1.1631 H   0  0  0  0  0  0  0  0  0  0  0  0
    4.3589   -2.7879   -0.0950 H   0  0  0  0  0  0  0  0  0  0  0  0
    1.9670   -1.8902    0.9663 H   0  0  0  0  0  0  0  0  0  0  0  0
   -0.4012   -1.3644    0.4707 H   0  0  0  0  0  0  0  0  0  0  0  0
    0.4025   -2.4651   -0.7240 H   0  0  0  0  0  0  0  0  0  0  0  0
   -4.2038   -0.6422   -2.1013 H   0  0  0  0  0  0  0  0  0  0  0  0
   -3.8716   -2.2577   -1.3917 H   0  0  0  0  0  0  0  0  0  0  0  0
   -4.5420   -1.3647    0.8823 H   0  0  0  0  0  0  0  0  0  0  0  0
   -5.8338   -1.6204   -0.3118 H   0  0  0  0  0  0  0  0  0  0  0  0
   -6.9966    0.2023   -1.3389 H   0  0  0  0  0  0  0  0  0  0  0  0
   -6.6895    1.9026   -0.8381 H   0  0  0  0  0  0  0  0  0  0  0  0
   -5.5408    1.0890   -1.9260 H   0  0  0  0  0  0  0  0  0  0  0  0
   -4.6973    2.3728    0.7116 H   0  0  0  0  0  0  0  0  0  0  0  0
   -3.6843    0.9809    1.2408 H   0  0  0  0  0  0  0  0  0  0  0  0
   -3.6845    1.5206   -0.4832 H   0  0  0  0  0  0  0  0  0  0  0  0
   -7.2253   -0.2295    1.1350 H   0  0  0  0  0  0  0  0  0  0  0  0
   -6.7613    1.4691    1.4947 H   0  0  0  0  0  0  0  0  0  0  0  0
   -5.8330    0.1161    2.2234 H   0  0  0  0  0  0  0  0  0  0  0  0
    0.9715    0.1882    1.8465 H   0  0  0  0  0  0  0  0  0  0  0  0
    0.9492    2.0316    0.7022 H   0  0  0  0  0  0  0  0  0  0  0  0
    3.2953   -0.2499    2.3812 H   0  0  0  0  0  0  0  0  0  0  0  0
    3.8558    1.7976    2.8697 H   0  0  0  0  0  0  0  0  0  0  0  0
  1  2  1  0  0  0  0
  1 26  1  0  0  0  0
  1 27  1  0  0  0  0
  1 28  1  0  0  0  0
  2  3  2  0  0  0  0
  2  4  1  0  0  0  0
  4  5  1  0  0  0  0
  4 29  1  0  0  0  0
  5  6  1  0  0  0  0
  5 30  1  6  0  0  0
  6  7  1  0  0  0  0
  6  8  1  0  0  0  0
  6 31  1  6  0  0  0
  7 32  1  0  0  0  0
  8  9  1  0  0  0  0
  9 10  1  0  0  0  0
  9 22  1  0  0  0  0
  9 33  1  1  0  0  0
 10 11  1  0  0  0  0
 10 34  1  0  0  0  0
 10 35  1  0  0  0  0
 12 11  1  1  0  0  0
 12 13  2  0  0  0  0
 12 14  1  0  0  0  0
 12 15  1  0  0  0  0
 15 16  1  0  0  0  0
 16 17  1  0  0  0  0
 16 36  1  0  0  0  0
 16 37  1  0  0  0  0
 17 18  1  0  0  0  0
 17 38  1  0  0  0  0
 17 39  1  0  0  0  0
 18 19  1  0  0  0  0
 18 20  1  0  0  0  0
 18 21  1  0  0  0  0
 19 40  1  0  0  0  0
 19 41  1  0  0  0  0
 19 42  1  0  0  0  0
 20 43  1  0  0  0  0
 20 44  1  0  0  0  0
 20 45  1  0  0  0  0
 21 46  1  0  0  0  0
 21 47  1  0  0  0  0
 21 48  1  0  0  0  0
 22 23  1  0  0  0  0
 22 24  1  0  0  0  0
 22 49  1  1  0  0  0
 23 50  1  0  0  0  0
 24 25  1  0  0  0  0
 24  5  1  0  0  0  0
 24 51  1  1  0  0  0
 25 52  1  0  0  0  0
M  CHG  2  14  -1  18   1
M  END
>  <UniqueID>
52

>  <SMILES>
CC(=O)N[C@H]1[C@@H](O)O[C@H](CO[P@@](=O)([O-])OCC[N+](C)(C)C)[C@H](O)[C@@H]1O

>  <Energy>
51.014250041809206

>  <Genealogy>
CC(=O)N[C@H]1C(O)O[C@H](COP(=O)([O-])OCC[N+](C)(C)C)[C@H](O)[C@@H]1O (protonated)
CC(=O)N[C@H]1[C@@H](O)O[C@H](CO[P@@](=O)([O-])OCC[N+](C)(C)C)[C@H](O)[C@@H]1O (chirality)
CC(=O)N[C@H]1[C@@H](O)O[C@H](CO[P@@](=O)([O-])OCC[N+](C)(C)C)[C@H](O)[C@@H]1O (3D coordinates assigned)
CC(=O)N[C@H]1[C@@H](O)O[C@H](CO[P@@](=O)([O-])OCC[N+](C)(C)C)[C@H](O)[C@@H]1O (nonaromatic ring conformer: 51.014250041809206 kcal/mol)

$$$$
45266741
 OpenBabel03032110343D

 25 25  0  0  0  0  0  0  0  0999 V2000
    2.3111    2.0510    0.1137 N   0  0  0  0  0  0  0  0  0  0  0  0
    1.5674    0.8257    0.4185 C   0  0  1  0  0  0  0  0  0  0  0  0
    0.0563    1.0496    0.1935 C   0  0  1  0  0  0  0  0  0  0  0  0
   -0.1913    1.5531   -1.0962 O   0  0  0  0  0  0  0  0  0  0  0  0
   -0.6827   -0.1390    0.4331 O   0  0  0  0  0  0  0  0  0  0  0  0
   -0.3118   -1.1770   -0.4619 C   0  0  2  0  0  0  0  0  0  0  0  0
   -1.2356   -2.3791   -0.2135 C   0  0  0  0  0  0  0  0  0  0  0  0
   -2.5791   -2.0015   -0.3515 O   0  0  0  0  0  0  0  0  0  0  0  0
    1.1698   -1.5693   -0.2558 C   0  0  1  0  0  0  0  0  0  0  0  0
    1.5445   -2.5589   -1.1818 O   0  0  0  0  0  0  0  0  0  0  0  0
    2.0650   -0.3394   -0.4591 C   0  0  2  0  0  0  0  0  0  0  0  0
    3.3849   -0.6759   -0.1119 O   0  0  0  0  0  0  0  0  0  0  0  0
    1.9402    2.8216    0.7163 H   0  0  0  0  0  0  0  0  0  0  0  0
    3.3050    1.9182    0.4103 H   0  0  0  0  0  0  0  0  0  0  0  0
    1.7237    0.5608    1.4903 H   0  0  0  0  0  0  0  0  0  0  0  0
   -0.2808    1.8069    0.9373 H   0  0  0  0  0  0  0  0  0  0  0  0
   -1.1582    1.7750   -1.1286 H   0  0  0  0  0  0  0  0  0  0  0  0
   -0.4666   -0.8592   -1.5191 H   0  0  0  0  0  0  0  0  0  0  0  0
   -1.0028   -3.2070   -0.9211 H   0  0  0  0  0  0  0  0  0  0  0  0
   -1.0822   -2.7602    0.8189 H   0  0  0  0  0  0  0  0  0  0  0  0
   -2.7492   -1.9065   -1.3251 H   0  0  0  0  0  0  0  0  0  0  0  0
    1.3093   -1.9353    0.7912 H   0  0  0  0  0  0  0  0  0  0  0  0
    1.4437   -3.4371   -0.7301 H   0  0  0  0  0  0  0  0  0  0  0  0
    2.0109   -0.0388   -1.5344 H   0  0  0  0  0  0  0  0  0  0  0  0
    3.9861   -0.1424   -0.6945 H   0  0  0  0  0  0  0  0  0  0  0  0
  1  2  1  0  0  0  0
  1 13  1  0  0  0  0
  1 14  1  0  0  0  0
  2  3  1  0  0  0  0
  2 15  1  1  0  0  0
  3  4  1  0  0  0  0
  3  5  1  0  0  0  0
  3 16  1  1  0  0  0
  4 17  1  0  0  0  0
  5  6  1  0  0  0  0
  6  7  1  0  0  0  0
  6  9  1  0  0  0  0
  6 18  1  6  0  0  0
  7  8  1  0  0  0  0
  7 19  1  0  0  0  0
  7 20  1  0  0  0  0
  8 21  1  0  0  0  0
  9 10  1  0  0  0  0
  9 11  1  0  0  0  0
  9 22  1  1  0  0  0
 10 23  1  0  0  0  0
 11 12  1  0  0  0  0
 11  2  1  0  0  0  0
 11 24  1  6  0  0  0
 12 25  1  0  0  0  0
M  END
>  <UniqueID>
53

>  <SMILES>
N[C@H]1[C@@H](O)O[C@H](CO)[C@@H](O)[C@@H]1O

>  <Energy>
22.528458248200064

>  <Genealogy>
N[C@H]1C(O)O[C@H](CO)[C@@H](O)[C@@H]1O (protonated)
N[C@H]1[C@@H](O)O[C@H](CO)[C@@H](O)[C@@H]1O (chirality)
N[C@H]1[C@@H](O)O[C@H](CO)[C@@H](O)[C@@H]1O (3D coordinates assigned)
N[C@H]1[C@@H](O)O[C@H](CO)[C@@H](O)[C@@H]1O (nonaromatic ring conformer: 22.528458248200064 kcal/mol)

$$$$
45266741
 OpenBabel03032110343D

 26 26  0  0  0  0  0  0  0  0999 V2000
   -2.8887    0.1569   -0.4460 N   0  3  0  0  0  0  0  0  0  0  0  0
   -1.5830   -0.1617    0.1498 C   0  0  1  0  0  0  0  0  0  0  0  0
   -0.8364   -1.2180   -0.6962 C   0  0  2  0  0  0  0  0  0  0  0  0
   -1.5949   -2.3964   -0.7352 O   0  0  0  0  0  0  0  0  0  0  0  0
    0.4229   -1.5101   -0.1154 O   0  0  0  0  0  0  0  0  0  0  0  0
    1.2745   -0.3784   -0.1669 C   0  0  2  0  0  0  0  0  0  0  0  0
    2.6730   -0.8202    0.2967 C   0  0  0  0  0  0  0  0  0  0  0  0
    3.6288    0.1775    0.0555 O   0  0  0  0  0  0  0  0  0  0  0  0
    0.7075    0.7495    0.7297 C   0  0  1  0  0  0  0  0  0  0  0  0
    1.5156    1.8966    0.6399 O   0  0  0  0  0  0  0  0  0  0  0  0
   -0.7173    1.1101    0.2727 C   0  0  2  0  0  0  0  0  0  0  0  0
   -1.3049    1.9865    1.2005 O   0  0  0  0  0  0  0  0  0  0  0  0
   -3.3834    0.8713    0.1357 H   0  0  0  0  0  0  0  0  0  0  0  0
   -2.7702    0.5280   -1.4170 H   0  0  0  0  0  0  0  0  0  0  0  0
   -3.4876   -0.6996   -0.4771 H   0  0  0  0  0  0  0  0  0  0  0  0
   -1.7457   -0.5811    1.1697 H   0  0  0  0  0  0  0  0  0  0  0  0
   -0.7129   -0.8416   -1.7413 H   0  0  0  0  0  0  0  0  0  0  0  0
   -1.1381   -3.0033   -1.3743 H   0  0  0  0  0  0  0  0  0  0  0  0
    1.3700   -0.0142   -1.2174 H   0  0  0  0  0  0  0  0  0  0  0  0
    2.6572   -1.0493    1.3838 H   0  0  0  0  0  0  0  0  0  0  0  0
    2.9656   -1.7557   -0.2334 H   0  0  0  0  0  0  0  0  0  0  0  0
    3.8121    0.1667   -0.9202 H   0  0  0  0  0  0  0  0  0  0  0  0
    0.6519    0.3828    1.7842 H   0  0  0  0  0  0  0  0  0  0  0  0
    2.0961    1.9119    1.4451 H   0  0  0  0  0  0  0  0  0  0  0  0
   -0.6631    1.5986   -0.7303 H   0  0  0  0  0  0  0  0  0  0  0  0
   -0.9489    2.8929    1.0075 H   0  0  0  0  0  0  0  0  0  0  0  0
  1  2  1  0  0  0  0
  1 13  1  0  0  0  0
  1 14  1  0  0  0  0
  1 15  1  0  0  0  0
  2  3  1  0  0  0  0
  2 16  1  1  0  0  0
  3  4  1  0  0  0  0
  3  5  1  0  0  0  0
  3 17  1  6  0  0  0
  4 18  1  0  0  0  0
  5  6  1  0  0  0  0
  6  7  1  0  0  0  0
  6  9  1  0  0  0  0
  6 19  1  6  0  0  0
  7  8  1  0  0  0  0
  7 20  1  0  0  0  0
  7 21  1  0  0  0  0
  8 22  1  0  0  0  0
  9 10  1  0  0  0  0
  9 11  1  0  0  0  0
  9 23  1  1  0  0  0
 10 24  1  0  0  0  0
 11 12  1  0  0  0  0
 11  2  1  0  0  0  0
 11 25  1  6  0  0  0
 12 26  1  0  0  0  0
M  CHG  1   1   1
M  END
>  <UniqueID>
54

>  <SMILES>
[NH3+][C@H]1[C@H](O)O[C@H](CO)[C@@H](O)[C@@H]1O

>  <Energy>
22.933556962543324

>  <Genealogy>
[NH3+][C@H]1[C@H](O)O[C@H](CO)[C@@H](O)[C@@H]1O (chirality)
[NH3+][C@H]1[C@H](O)O[C@H](CO)[C@@H](O)[C@@H]1O (3D coordinates assigned)
[NH3+][C@H]1[C@H](O)O[C@H](CO)[C@@H](O)[C@@H]1O (nonaromatic ring conformer: 22.933556962543324 kcal/mol)

$$$$
44630437
 OpenBabel03032110343D

 33 33  0  0  0  0  0  0  0  0999 V2000
   -3.4115    2.2362   -2.2573 C   0  0  0  0  0  0  0  0  0  0  0  0
   -1.9685    2.6669   -2.4950 C   0  0  0  0  0  0  0  0  0  0  0  0
   -1.1080    2.2684   -1.3348 C   0  0  0  0  0  0  0  0  0  0  0  0
   -0.9549    3.0696   -0.3722 O   0  0  0  0  0  0  0  0  0  0  0  0
   -0.5101    0.9648   -1.2995 N   0  0  0  0  0  0  0  0  0  0  0  0
    0.1082    0.4159   -0.0885 C   0  0  1  0  0  0  0  0  0  0  0  0
   -0.9596   -0.2963    0.7822 C   0  0  1  0  0  0  0  0  0  0  0  0
   -1.8073   -1.1596    0.0579 O   0  0  0  0  0  0  0  0  0  0  0  0
   -0.3931   -0.9511    1.9062 O   0  0  0  0  0  0  0  0  0  0  0  0
    0.5786   -1.9161    1.5331 C   0  0  2  0  0  0  0  0  0  0  0  0
    1.0372   -2.6488    2.8015 C   0  0  0  0  0  0  0  0  0  0  0  0
    1.6084   -1.7475    3.7101 O   0  0  0  0  0  0  0  0  0  0  0  0
    1.7702   -1.2521    0.8037 C   0  0  1  0  0  0  0  0  0  0  0  0
    2.7073   -2.2345    0.4393 O   0  0  0  0  0  0  0  0  0  0  0  0
    1.2664   -0.5279   -0.4562 C   0  0  2  0  0  0  0  0  0  0  0  0
    2.3080    0.2280   -1.0223 O   0  0  0  0  0  0  0  0  0  0  0  0
   -3.8220    2.7524   -1.3614 H   0  0  0  0  0  0  0  0  0  0  0  0
   -4.0300    2.5068   -3.1389 H   0  0  0  0  0  0  0  0  0  0  0  0
   -3.4686    1.1363   -2.1056 H   0  0  0  0  0  0  0  0  0  0  0  0
   -1.9296    3.7692   -2.6308 H   0  0  0  0  0  0  0  0  0  0  0  0
   -1.5912    2.1903   -3.4259 H   0  0  0  0  0  0  0  0  0  0  0  0
   -0.6748    0.3247   -2.1109 H   0  0  0  0  0  0  0  0  0  0  0  0
    0.5388    1.2455    0.5182 H   0  0  0  0  0  0  0  0  0  0  0  0
   -1.6118    0.5076    1.1856 H   0  0  0  0  0  0  0  0  0  0  0  0
   -1.2639   -1.6822   -0.5830 H   0  0  0  0  0  0  0  0  0  0  0  0
    0.1264   -2.6916    0.8737 H   0  0  0  0  0  0  0  0  0  0  0  0
    0.1543   -3.1410    3.2681 H   0  0  0  0  0  0  0  0  0  0  0  0
    1.7746   -3.4405    2.5428 H   0  0  0  0  0  0  0  0  0  0  0  0
    1.7935   -2.2653    4.5345 H   0  0  0  0  0  0  0  0  0  0  0  0
    2.2387   -0.5056    1.4897 H   0  0  0  0  0  0  0  0  0  0  0  0
    3.5864   -1.7801    0.3612 H   0  0  0  0  0  0  0  0  0  0  0  0
    0.9059   -1.2864   -1.1920 H   0  0  0  0  0  0  0  0  0  0  0  0
    2.8209   -0.3823   -1.6143 H   0  0  0  0  0  0  0  0  0  0  0  0
  1  2  1  0  0  0  0
  1 17  1  0  0  0  0
  1 18  1  0  0  0  0
  1 19  1  0  0  0  0
  2  3  1  0  0  0  0
  2 20  1  0  0  0  0
  2 21  1  0  0  0  0
  3  4  2  0  0  0  0
  3  5  1  0  0  0  0
  5  6  1  0  0  0  0
  5 22  1  0  0  0  0
  6  7  1  0  0  0  0
  6 23  1  1  0  0  0
  7  8  1  0  0  0  0
  7  9  1  0  0  0  0
  7 24  1  1  0  0  0
  8 25  1  0  0  0  0
  9 10  1  0  0  0  0
 10 11  1  0  0  0  0
 10 13  1  0  0  0  0
 10 26  1  6  0  0  0
 11 12  1  0  0  0  0
 11 27  1  0  0  0  0
 11 28  1  0  0  0  0
 12 29  1  0  0  0  0
 13 14  1  0  0  0  0
 13 15  1  0  0  0  0
 13 30  1  1  0  0  0
 14 31  1  0  0  0  0
 15 16  1  0  0  0  0
 15  6  1  0  0  0  0
 15 32  1  6  0  0  0
 16 33  1  0  0  0  0
M  END
>  <UniqueID>
55

>  <SMILES>
CCC(=O)N[C@H]1[C@@H](O)O[C@H](CO)[C@@H](O)[C@@H]1O

>  <Energy>
28.04225041368164

>  <Genealogy>
CCC(=O)N[C@H]1[C@@H](O)O[C@H](CO)[C@@H](O)[C@@H]1O (chirality)
CCC(=O)N[C@H]1[C@@H](O)O[C@H](CO)[C@@H](O)[C@@H]1O (3D coordinates assigned)
CCC(=O)N[C@H]1[C@@H](O)O[C@H](CO)[C@@H](O)[C@@H]1O (nonaromatic ring conformer: 28.04225041368164 kcal/mol)

$$$$
44630437
 OpenBabel03032110343D

 33 33  0  0  0  0  0  0  0  0999 V2000
   -0.3084    1.4725   -4.5638 C   0  0  0  0  0  0  0  0  0  0  0  0
   -1.3101    0.7568   -3.6653 C   0  0  0  0  0  0  0  0  0  0  0  0
   -0.6395   -0.3416   -2.8976 C   0  0  0  0  0  0  0  0  0  0  0  0
   -0.6820   -1.5220   -3.3392 O   0  0  0  0  0  0  0  0  0  0  0  0
    0.0819   -0.0409   -1.6938 N   0  0  0  0  0  0  0  0  0  0  0  0
    0.7184   -1.0847   -0.8770 C   0  0  1  0  0  0  0  0  0  0  0  0
    1.8113   -0.4760    0.0614 C   0  0  2  0  0  0  0  0  0  0  0  0
    2.9886   -1.2273   -0.0720 O   0  0  0  0  0  0  0  0  0  0  0  0
    1.4272   -0.4840    1.4310 O   0  0  0  0  0  0  0  0  0  0  0  0
    0.1338    0.0680    1.5896 C   0  0  2  0  0  0  0  0  0  0  0  0
   -0.0998    0.3769    3.0715 C   0  0  0  0  0  0  0  0  0  0  0  0
    0.8294    1.3305    3.5069 O   0  0  0  0  0  0  0  0  0  0  0  0
   -0.9377   -0.9169    1.0510 C   0  0  1  0  0  0  0  0  0  0  0  0
   -2.0202   -0.1797    0.5416 O   0  0  0  0  0  0  0  0  0  0  0  0
   -0.3495   -1.8330   -0.0541 C   0  0  2  0  0  0  0  0  0  0  0  0
    0.2422   -2.9673    0.5289 O   0  0  0  0  0  0  0  0  0  0  0  0
   -0.8238    2.2797   -5.1256 H   0  0  0  0  0  0  0  0  0  0  0  0
    0.1347    0.7594   -5.2915 H   0  0  0  0  0  0  0  0  0  0  0  0
    0.5024    1.9259   -3.9541 H   0  0  0  0  0  0  0  0  0  0  0  0
   -1.7591    1.4856   -2.9567 H   0  0  0  0  0  0  0  0  0  0  0  0
   -2.1288    0.3360   -4.2886 H   0  0  0  0  0  0  0  0  0  0  0  0
    0.1332    0.9590   -1.3943 H   0  0  0  0  0  0  0  0  0  0  0  0
    1.2048   -1.8121   -1.5664 H   0  0  0  0  0  0  0  0  0  0  0  0
    2.0435    0.5713   -0.2455 H   0  0  0  0  0  0  0  0  0  0  0  0
    3.6897   -0.7511    0.4454 H   0  0  0  0  0  0  0  0  0  0  0  0
    0.0599    1.0405    1.0457 H   0  0  0  0  0  0  0  0  0  0  0  0
   -1.1309    0.7738    3.2095 H   0  0  0  0  0  0  0  0  0  0  0  0
    0.0122   -0.5544    3.6718 H   0  0  0  0  0  0  0  0  0  0  0  0
    0.6317    1.4892    4.4664 H   0  0  0  0  0  0  0  0  0  0  0  0
   -1.3011   -1.5656    1.8840 H   0  0  0  0  0  0  0  0  0  0  0  0
   -2.7897   -0.8039    0.4758 H   0  0  0  0  0  0  0  0  0  0  0  0
   -1.1640   -2.1670   -0.7391 H   0  0  0  0  0  0  0  0  0  0  0  0
   -0.4967   -3.5793    0.7854 H   0  0  0  0  0  0  0  0  0  0  0  0
  1  2  1  0  0  0  0
  1 17  1  0  0  0  0
  1 18  1  0  0  0  0
  1 19  1  0  0  0  0
  2  3  1  0  0  0  0
  2 20  1  0  0  0  0
  2 21  1  0  0  0  0
  3  4  2  0  0  0  0
  3  5  1  0  0  0  0
  5  6  1  0  0  0  0
  5 22  1  0  0  0  0
  6  7  1  0  0  0  0
  6 23  1  6  0  0  0
  7  8  1  0  0  0  0
  7  9  1  0  0  0  0
  7 24  1  6  0  0  0
  8 25  1  0  0  0  0
  9 10  1  0  0  0  0
 10 11  1  0  0  0  0
 10 13  1  0  0  0  0
 10 26  1  6  0  0  0
 11 12  1  0  0  0  0
 11 27  1  0  0  0  0
 11 28  1  0  0  0  0
 12 29  1  0  0  0  0
 13 14  1  0  0  0  0
 13 15  1  0  0  0  0
 13 30  1  1  0  0  0
 14 31  1  0  0  0  0
 15 16  1  0  0  0  0
 15  6  1  0  0  0  0
 15 32  1  6  0  0  0
 16 33  1  0  0  0  0
M  END
>  <UniqueID>
56

>  <SMILES>
CCC(=O)N[C@H]1[C@H](O)O[C@H](CO)[C@@H](O)[C@@H]1O

>  <Energy>
32.0342846508604

>  <Genealogy>
CCC(=O)N[C@H]1[C@H](O)O[C@H](CO)[C@@H](O)[C@@H]1O (chirality)
CCC(=O)N[C@H]1[C@H](O)O[C@H](CO)[C@@H](O)[C@@H]1O (3D coordinates assigned)
CCC(=O)N[C@H]1[C@H](O)O[C@H](CO)[C@@H](O)[C@@H]1O (nonaromatic ring conformer: 32.0342846508604 kcal/mol)

$$$$
44341508
 OpenBabel03032110343D

 50 52  0  0  0  0  0  0  0  0999 V2000
   -5.5660   -2.1474   -2.4906 H   0  0  0  0  0  0  0  0  0  0  0  0
   -5.5654   -2.7598   -1.6832 O   0  0  0  0  0  0  0  0  0  0  0  0
   -4.6775   -2.5605   -0.6299 C   0  0  0  0  0  0  0  0  0  0  0  0
   -3.8278   -1.5742   -0.6971 N   0  0  0  0  0  0  0  0  0  0  0  0
   -2.8303   -1.1926    0.3112 C   0  0  1  0  0  0  0  0  0  0  0  0
   -2.6088   -2.0425    0.9922 H   0  0  0  0  0  0  0  0  0  0  0  0
   -1.5199   -0.8162   -0.4044 C   0  0  2  0  0  0  0  0  0  0  0  0
   -1.2479   -1.6706   -1.0623 H   0  0  0  0  0  0  0  0  0  0  0  0
   -0.4662   -0.6354    0.5480 O   0  0  0  0  0  0  0  0  0  0  0  0
    0.8803   -0.4054    0.2257 C   0  0  0  0  0  0  0  0  0  0  0  0
    1.3487   -0.3876   -1.1019 C   0  0  0  0  0  0  0  0  0  0  0  0
    0.6797   -0.5588   -1.9335 H   0  0  0  0  0  0  0  0  0  0  0  0
    2.6984   -0.1479   -1.3729 C   0  0  0  0  0  0  0  0  0  0  0  0
    3.0358   -0.1380   -2.4026 H   0  0  0  0  0  0  0  0  0  0  0  0
    3.6015    0.0760   -0.3239 C   0  0  0  0  0  0  0  0  0  0  0  0
    4.9590    0.3182   -0.5874 C   0  0  0  0  0  0  0  0  0  0  0  0
    5.3063    0.3314   -1.6125 H   0  0  0  0  0  0  0  0  0  0  0  0
    5.8601    0.5420    0.4720 C   0  0  0  0  0  0  0  0  0  0  0  0
    7.2248    0.7884    0.2591 O   0  0  0  0  0  0  0  0  0  0  0  0
    7.8435    0.8397   -1.0223 C   0  0  0  0  0  0  0  0  0  0  0  0
    7.7299   -0.1358   -1.5406 H   0  0  0  0  0  0  0  0  0  0  0  0
    7.3931    1.6517   -1.6315 H   0  0  0  0  0  0  0  0  0  0  0  0
    8.9250    1.0501   -0.8945 H   0  0  0  0  0  0  0  0  0  0  0  0
    5.3889    0.5204    1.7897 C   0  0  0  0  0  0  0  0  0  0  0  0
    6.0749    0.6915    2.6097 H   0  0  0  0  0  0  0  0  0  0  0  0
    4.0398    0.2801    2.0615 C   0  0  0  0  0  0  0  0  0  0  0  0
    3.7023    0.2691    3.0911 H   0  0  0  0  0  0  0  0  0  0  0  0
    3.1380    0.0567    1.0118 C   0  0  0  0  0  0  0  0  0  0  0  0
    1.7811   -0.1849    1.2740 C   0  0  0  0  0  0  0  0  0  0  0  0
    1.4162   -0.1998    2.2945 H   0  0  0  0  0  0  0  0  0  0  0  0
   -1.6874    0.3354   -1.2203 O   0  0  0  0  0  0  0  0  0  0  0  0
   -2.0320    1.4784   -0.4518 C   0  0  1  0  0  0  0  0  0  0  0  0
   -1.2413    1.6878    0.3049 H   0  0  0  0  0  0  0  0  0  0  0  0
   -2.0727    2.6956   -1.3840 C   0  0  0  0  0  0  0  0  0  0  0  0
   -1.0631    2.8396   -1.8305 H   0  0  0  0  0  0  0  0  0  0  0  0
   -2.3280    3.6111   -0.8049 H   0  0  0  0  0  0  0  0  0  0  0  0
   -3.0112    2.4982   -2.4061 O   0  0  0  0  0  0  0  0  0  0  0  0
   -2.9848    3.3172   -2.9658 H   0  0  0  0  0  0  0  0  0  0  0  0
   -3.3901    1.2712    0.2669 C   0  0  2  0  0  0  0  0  0  0  0  0
   -4.1840    1.1316   -0.4998 H   0  0  0  0  0  0  0  0  0  0  0  0
   -3.7343    2.3921    1.0445 O   0  0  0  0  0  0  0  0  0  0  0  0
   -3.0116    2.5308    1.7113 H   0  0  0  0  0  0  0  0  0  0  0  0
   -3.3334    0.0059    1.1413 C   0  0  1  0  0  0  0  0  0  0  0  0
   -2.6127    0.1870    1.9752 H   0  0  0  0  0  0  0  0  0  0  0  0
   -4.6083   -0.2558    1.6685 O   0  0  0  0  0  0  0  0  0  0  0  0
   -4.4732   -0.7964    2.4901 H   0  0  0  0  0  0  0  0  0  0  0  0
   -4.7243   -3.5110    0.5299 C   0  0  0  0  0  0  0  0  0  0  0  0
   -4.8810   -2.9608    1.4790 H   0  0  0  0  0  0  0  0  0  0  0  0
   -3.7793   -4.0912    0.5814 H   0  0  0  0  0  0  0  0  0  0  0  0
   -5.5651   -4.2245    0.4007 H   0  0  0  0  0  0  0  0  0  0  0  0
  1  2  1  0  0  0  0
  2  3  1  0  0  0  0
  3  4  2  0  0  0  0
  3 47  1  0  0  0  0
  4  5  1  0  0  0  0
  5  6  1  1  0  0  0
  5  7  1  0  0  0  0
  7  8  1  6  0  0  0
  7  9  1  0  0  0  0
  7 31  1  0  0  0  0
  9 10  1  0  0  0  0
 10 11  2  0  0  0  0
 11 12  1  0  0  0  0
 11 13  1  0  0  0  0
 13 14  1  0  0  0  0
 13 15  2  0  0  0  0
 15 16  1  0  0  0  0
 16 17  1  0  0  0  0
 16 18  2  0  0  0  0
 18 19  1  0  0  0  0
 18 24  1  0  0  0  0
 19 20  1  0  0  0  0
 20 21  1  0  0  0  0
 20 22  1  0  0  0  0
 20 23  1  0  0  0  0
 24 25  1  0  0  0  0
 24 26  2  0  0  0  0
 26 27  1  0  0  0  0
 26 28  1  0  0  0  0
 28 29  2  0  0  0  0
 28 15  1  0  0  0  0
 29 30  1  0  0  0  0
 29 10  1  0  0  0  0
 31 32  1  0  0  0  0
 32 33  1  1  0  0  0
 32 34  1  0  0  0  0
 32 39  1  0  0  0  0
 34 35  1  0  0  0  0
 34 36  1  0  0  0  0
 34 37  1  0  0  0  0
 37 38  1  0  0  0  0
 39 40  1  6  0  0  0
 39 41  1  0  0  0  0
 39 43  1  0  0  0  0
 41 42  1  0  0  0  0
 43 44  1  1  0  0  0
 43 45  1  0  0  0  0
 43  5  1  0  0  0  0
 45 46  1  0  0  0  0
 47 48  1  0  0  0  0
 47 49  1  0  0  0  0
 47 50  1  0  0  0  0
M  END
>  <UniqueID>
57

>  <SMILES>
COc1ccc2cc(O[C@@H]3O[C@@H](CO)[C@H](O)[C@@H](O)[C@H]3/N=C(/C)O)ccc2c1

>  <Energy>
54.62874774238343

>  <Genealogy>
COc1ccc2cc(OC3OC(CO)C(O)C(O)C3N=C(C)O)ccc2c1 (tautomer)
COc1ccc2cc(O[C@@H]3O[C@@H](CO)[C@H](O)[C@@H](O)[C@H]3N=C(C)O)ccc2c1 (chirality)
COc1ccc2cc(O[C@@H]3O[C@@H](CO)[C@H](O)[C@@H](O)[C@H]3/N=C(/C)O)ccc2c1 (cis-trans isomerization)
COc1ccc2cc(O[C@@H]3O[C@@H](CO)[C@H](O)[C@@H](O)[C@H]3/N=C(/C)O)ccc2c1 (3D coordinates assigned)
COc1ccc2cc(O[C@@H]3O[C@@H](CO)[C@H](O)[C@@H](O)[C@H]3/N=C(/C)O)ccc2c1 (nonaromatic ring conformer: 54.62874774238343 kcal/mol)

$$$$
44341508
 OpenBabel03032110343D

 50 52  0  0  0  0  0  0  0  0999 V2000
   -3.5370    4.4345    0.8334 H   0  0  0  0  0  0  0  0  0  0  0  0
   -3.6994    3.5055    0.4637 O   0  0  0  0  0  0  0  0  0  0  0  0
   -2.6520    2.6176    0.2310 C   0  0  0  0  0  0  0  0  0  0  0  0
   -2.9401    1.4350   -0.2325 N   0  0  0  0  0  0  0  0  0  0  0  0
   -2.0114    0.3350   -0.5245 C   0  0  1  0  0  0  0  0  0  0  0  0
   -1.0787    0.7327   -0.9749 H   0  0  0  0  0  0  0  0  0  0  0  0
   -1.6952   -0.4573    0.7663 C   0  0  2  0  0  0  0  0  0  0  0  0
   -1.3141    0.2370    1.5414 H   0  0  0  0  0  0  0  0  0  0  0  0
   -0.7054   -1.4697    0.5348 O   0  0  0  0  0  0  0  0  0  0  0  0
    0.6557   -1.2548    0.2640 C   0  0  0  0  0  0  0  0  0  0  0  0
    1.4248   -2.3526   -0.1386 C   0  0  0  0  0  0  0  0  0  0  0  0
    0.9628   -3.3273   -0.2325 H   0  0  0  0  0  0  0  0  0  0  0  0
    2.7833   -2.2059   -0.4294 C   0  0  0  0  0  0  0  0  0  0  0  0
    3.3530   -3.0726   -0.7429 H   0  0  0  0  0  0  0  0  0  0  0  0
    3.3963   -0.9505   -0.3169 C   0  0  0  0  0  0  0  0  0  0  0  0
    4.7594   -0.7907   -0.6087 C   0  0  0  0  0  0  0  0  0  0  0  0
    5.3530   -1.6401   -0.9265 H   0  0  0  0  0  0  0  0  0  0  0  0
    5.3709    0.4636   -0.4943 C   0  0  0  0  0  0  0  0  0  0  0  0
    6.7364    0.5676   -0.7987 O   0  0  0  0  0  0  0  0  0  0  0  0
    7.4867    1.7756   -0.7271 C   0  0  0  0  0  0  0  0  0  0  0  0
    7.0645    2.5293   -1.4248 H   0  0  0  0  0  0  0  0  0  0  0  0
    8.5362    1.5685   -1.0206 H   0  0  0  0  0  0  0  0  0  0  0  0
    7.4790    2.1689    0.3115 H   0  0  0  0  0  0  0  0  0  0  0  0
    4.6042    1.5702   -0.0814 C   0  0  0  0  0  0  0  0  0  0  0  0
    5.0487    2.5512    0.0161 H   0  0  0  0  0  0  0  0  0  0  0  0
    3.2461    1.4203    0.2118 C   0  0  0  0  0  0  0  0  0  0  0  0
    2.6756    2.2862    0.5271 H   0  0  0  0  0  0  0  0  0  0  0  0
    2.6324    0.1647    0.0969 C   0  0  0  0  0  0  0  0  0  0  0  0
    1.2691    0.0059    0.3891 C   0  0  0  0  0  0  0  0  0  0  0  0
    0.7004    0.8617    0.7165 H   0  0  0  0  0  0  0  0  0  0  0  0
   -2.8772   -1.0394    1.2941 O   0  0  0  0  0  0  0  0  0  0  0  0
   -3.4376   -1.9970    0.4056 C   0  0  1  0  0  0  0  0  0  0  0  0
   -2.7033   -2.8092    0.1983 H   0  0  0  0  0  0  0  0  0  0  0  0
   -4.6317   -2.6677    1.1043 C   0  0  0  0  0  0  0  0  0  0  0  0
   -5.0422   -3.4746    0.4613 H   0  0  0  0  0  0  0  0  0  0  0  0
   -4.2899   -3.1498    2.0489 H   0  0  0  0  0  0  0  0  0  0  0  0
   -5.6507   -1.7412    1.3730 O   0  0  0  0  0  0  0  0  0  0  0  0
   -5.3713   -1.2341    2.1793 H   0  0  0  0  0  0  0  0  0  0  0  0
   -3.8573   -1.3406   -0.9338 C   0  0  2  0  0  0  0  0  0  0  0  0
   -4.6605   -0.5879   -0.7444 H   0  0  0  0  0  0  0  0  0  0  0  0
   -4.3062   -2.3216   -1.8351 O   0  0  0  0  0  0  0  0  0  0  0  0
   -5.2913   -2.3865   -1.7309 H   0  0  0  0  0  0  0  0  0  0  0  0
   -2.6549   -0.6128   -1.5538 C   0  0  1  0  0  0  0  0  0  0  0  0
   -1.9019   -1.3772   -1.8627 H   0  0  0  0  0  0  0  0  0  0  0  0
   -3.0752    0.1056   -2.6853 O   0  0  0  0  0  0  0  0  0  0  0  0
   -2.2554    0.3517   -3.1886 H   0  0  0  0  0  0  0  0  0  0  0  0
   -1.2429    3.0501    0.5314 C   0  0  0  0  0  0  0  0  0  0  0  0
   -0.5742    2.8477   -0.3299 H   0  0  0  0  0  0  0  0  0  0  0  0
   -1.2094    4.1422    0.7257 H   0  0  0  0  0  0  0  0  0  0  0  0
   -0.8722    2.5326    1.4382 H   0  0  0  0  0  0  0  0  0  0  0  0
  1  2  1  0  0  0  0
  2  3  1  0  0  0  0
  3  4  2  0  0  0  0
  3 47  1  0  0  0  0
  4  5  1  0  0  0  0
  5  6  1  6  0  0  0
  5  7  1  0  0  0  0
  7  8  1  1  0  0  0
  7  9  1  0  0  0  0
  7 31  1  0  0  0  0
  9 10  1  0  0  0  0
 10 11  2  0  0  0  0
 11 12  1  0  0  0  0
 11 13  1  0  0  0  0
 13 14  1  0  0  0  0
 13 15  2  0  0  0  0
 15 16  1  0  0  0  0
 16 17  1  0  0  0  0
 16 18  2  0  0  0  0
 18 19  1  0  0  0  0
 18 24  1  0  0  0  0
 19 20  1  0  0  0  0
 20 21  1  0  0  0  0
 20 22  1  0  0  0  0
 20 23  1  0  0  0  0
 24 25  1  0  0  0  0
 24 26  2  0  0  0  0
 26 27  1  0  0  0  0
 26 28  1  0  0  0  0
 28 29  2  0  0  0  0
 28 15  1  0  0  0  0
 29 30  1  0  0  0  0
 29 10  1  0  0  0  0
 31 32  1  0  0  0  0
 32 33  1  6  0  0  0
 32 34  1  0  0  0  0
 32 39  1  0  0  0  0
 34 35  1  0  0  0  0
 34 36  1  0  0  0  0
 34 37  1  0  0  0  0
 37 38  1  0  0  0  0
 39 40  1  1  0  0  0
 39 41  1  0  0  0  0
 39 43  1  0  0  0  0
 41 42  1  0  0  0  0
 43 44  1  6  0  0  0
 43 45  1  0  0  0  0
 43  5  1  0  0  0  0
 45 46  1  0  0  0  0
 47 48  1  0  0  0  0
 47 49  1  0  0  0  0
 47 50  1  0  0  0  0
M  END
>  <UniqueID>
58

>  <SMILES>
COc1ccc2cc(O[C@@H]3O[C@@H](CO)[C@H](O)[C@@H](O)[C@H]3/N=C(\C)O)ccc2c1

>  <Energy>
54.86279735570546

>  <Genealogy>
COc1ccc2cc(OC3OC(CO)C(O)C(O)C3N=C(C)O)ccc2c1 (tautomer)
COc1ccc2cc(O[C@@H]3O[C@@H](CO)[C@H](O)[C@@H](O)[C@H]3N=C(C)O)ccc2c1 (chirality)
COc1ccc2cc(O[C@@H]3O[C@@H](CO)[C@H](O)[C@@H](O)[C@H]3/N=C(\C)O)ccc2c1 (cis-trans isomerization)
COc1ccc2cc(O[C@@H]3O[C@@H](CO)[C@H](O)[C@@H](O)[C@H]3/N=C(\C)O)ccc2c1 (3D coordinates assigned)
COc1ccc2cc(O[C@@H]3O[C@@H](CO)[C@H](O)[C@@H](O)[C@H]3/N=C(\C)O)ccc2c1 (nonaromatic ring conformer: 54.86279735570546 kcal/mol)

$$$$
44229083
 OpenBabel03032110343D

 33 33  0  0  0  0  0  0  0  0999 V2000
   -4.5892   -1.7672    0.4010 H   0  0  0  0  0  0  0  0  0  0  0  0
   -3.7061   -1.3486    0.1347 O   0  0  0  0  0  0  0  0  0  0  0  0
   -3.6501   -0.0637   -0.4042 C   0  0  0  0  0  0  0  0  0  0  0  0
   -2.5110    0.4722   -0.7275 N   0  0  0  0  0  0  0  0  0  0  0  0
   -1.2071   -0.1762   -0.5641 C   0  0  1  0  0  0  0  0  0  0  0  0
   -1.2990   -1.2659   -0.7746 H   0  0  0  0  0  0  0  0  0  0  0  0
   -0.2127    0.4240   -1.5823 C   0  0  2  0  0  0  0  0  0  0  0  0
   -0.1623    1.5350   -1.4584 H   0  0  0  0  0  0  0  0  0  0  0  0
   -0.6452    0.1311   -2.8853 O   0  0  0  0  0  0  0  0  0  0  0  0
   -1.3411    0.7991   -3.1209 H   0  0  0  0  0  0  0  0  0  0  0  0
    1.0751   -0.1422   -1.4118 O   0  0  0  0  0  0  0  0  0  0  0  0
    1.6232    0.2315   -0.1592 C   0  0  2  0  0  0  0  0  0  0  0  0
    1.6256    1.3427   -0.0543 H   0  0  0  0  0  0  0  0  0  0  0  0
    3.0897   -0.2158   -0.1088 C   0  0  0  0  0  0  0  0  0  0  0  0
    3.1347   -1.3237   -0.2169 H   0  0  0  0  0  0  0  0  0  0  0  0
    3.6168    0.2515   -0.9714 H   0  0  0  0  0  0  0  0  0  0  0  0
    3.6728    0.2058    1.1027 O   0  0  0  0  0  0  0  0  0  0  0  0
    5.2785   -0.3656    1.1564 P   0  0  0  0  0  0  0  0  0  0  0  0
    5.2883   -1.8761    1.2292 O   0  0  0  0  0  0  0  0  0  0  0  0
    6.0357    0.2570    2.5339 O   0  5  0  0  0  0  0  0  0  0  0  0
    6.1311    0.1402   -0.2151 O   0  5  0  0  0  0  0  0  0  0  0  0
    0.7943   -0.3824    0.9981 C   0  0  2  0  0  0  0  0  0  0  0  0
    1.1796    0.0232    1.9591 H   0  0  0  0  0  0  0  0  0  0  0  0
    0.9186   -1.7848    1.0501 O   0  0  0  0  0  0  0  0  0  0  0  0
    0.6612   -2.1513    0.1653 H   0  0  0  0  0  0  0  0  0  0  0  0
   -0.6843    0.0430    0.8718 C   0  0  2  0  0  0  0  0  0  0  0  0
   -0.7553    1.1339    1.0995 H   0  0  0  0  0  0  0  0  0  0  0  0
   -1.4730   -0.6755    1.7847 O   0  0  0  0  0  0  0  0  0  0  0  0
   -1.2818   -0.3019    2.6845 H   0  0  0  0  0  0  0  0  0  0  0  0
   -4.9106    0.7165   -0.5944 C   0  0  0  0  0  0  0  0  0  0  0  0
   -4.7473    1.5654   -1.2924 H   0  0  0  0  0  0  0  0  0  0  0  0
   -5.6992    0.0582   -1.0150 H   0  0  0  0  0  0  0  0  0  0  0  0
   -5.2501    1.1119    0.3854 H   0  0  0  0  0  0  0  0  0  0  0  0
  1  2  1  0  0  0  0
  2  3  1  0  0  0  0
  3  4  2  0  0  0  0
  3 30  1  0  0  0  0
  4  5  1  0  0  0  0
  5  6  1  6  0  0  0
  5  7  1  0  0  0  0
  7  8  1  1  0  0  0
  7  9  1  0  0  0  0
  7 11  1  0  0  0  0
  9 10  1  0  0  0  0
 11 12  1  0  0  0  0
 12 13  1  1  0  0  0
 12 14  1  0  0  0  0
 12 22  1  0  0  0  0
 14 15  1  0  0  0  0
 14 16  1  0  0  0  0
 14 17  1  0  0  0  0
 17 18  1  0  0  0  0
 18 19  2  0  0  0  0
 18 20  1  0  0  0  0
 18 21  1  0  0  0  0
 22 23  1  1  0  0  0
 22 24  1  0  0  0  0
 22 26  1  0  0  0  0
 24 25  1  0  0  0  0
 26 27  1  1  0  0  0
 26 28  1  0  0  0  0
 26  5  1  0  0  0  0
 28 29  1  0  0  0  0
 30 31  1  0  0  0  0
 30 32  1  0  0  0  0
 30 33  1  0  0  0  0
M  CHG  2  20  -1  21  -1
M  END
>  <UniqueID>
59

>  <SMILES>
C/C(O)=N/[C@H]1[C@H](O)O[C@H](COP(=O)([O-])[O-])[C@H](O)[C@@H]1O

>  <Energy>
27.786460812432253

>  <Genealogy>
CC(O)=N[C@H]1C(O)O[C@H](COP(=O)([O-])[O-])[C@H](O)[C@@H]1O (tautomer)
CC(O)=N[C@H]1[C@H](O)O[C@H](COP(=O)([O-])[O-])[C@H](O)[C@@H]1O (chirality)
C/C(O)=N/[C@H]1[C@H](O)O[C@H](COP(=O)([O-])[O-])[C@H](O)[C@@H]1O (cis-trans isomerization)
C/C(O)=N/[C@H]1[C@H](O)O[C@H](COP(=O)([O-])[O-])[C@H](O)[C@@H]1O (3D coordinates assigned)
C/C(O)=N/[C@H]1[C@H](O)O[C@H](COP(=O)([O-])[O-])[C@H](O)[C@@H]1O (nonaromatic ring conformer: 27.786460812432253 kcal/mol)

$$$$
44229083
 OpenBabel03032110343D

 33 33  0  0  0  0  0  0  0  0999 V2000
   -4.8747   -0.3544    0.6540 H   0  0  0  0  0  0  0  0  0  0  0  0
   -3.9474   -0.3992    0.2489 O   0  0  0  0  0  0  0  0  0  0  0  0
   -3.2235    0.7605   -0.0268 C   0  0  0  0  0  0  0  0  0  0  0  0
   -2.0265    0.6916   -0.5280 N   0  0  0  0  0  0  0  0  0  0  0  0
   -1.3272   -0.5581   -0.8446 C   0  0  1  0  0  0  0  0  0  0  0  0
   -2.0457   -1.2512   -1.3400 H   0  0  0  0  0  0  0  0  0  0  0  0
   -0.1487   -0.2592   -1.8215 C   0  0  2  0  0  0  0  0  0  0  0  0
   -0.2733    0.7614   -2.2574 H   0  0  0  0  0  0  0  0  0  0  0  0
   -0.1883   -1.1847   -2.8747 O   0  0  0  0  0  0  0  0  0  0  0  0
    0.4929   -0.8919   -3.5350 H   0  0  0  0  0  0  0  0  0  0  0  0
    1.1265   -0.3431   -1.1954 O   0  0  0  0  0  0  0  0  0  0  0  0
    1.1398    0.3902    0.0158 C   0  0  2  0  0  0  0  0  0  0  0  0
    0.6941    1.4017   -0.1479 H   0  0  0  0  0  0  0  0  0  0  0  0
    2.5936    0.6463    0.4403 C   0  0  0  0  0  0  0  0  0  0  0  0
    2.5892    1.1260    1.4462 H   0  0  0  0  0  0  0  0  0  0  0  0
    3.0424    1.3524   -0.2950 H   0  0  0  0  0  0  0  0  0  0  0  0
    3.3132   -0.5654    0.4501 O   0  0  0  0  0  0  0  0  0  0  0  0
    4.9006   -0.2405    0.9783 P   0  0  0  0  0  0  0  0  0  0  0  0
    5.6979   -1.5240    0.9587 O   0  0  0  0  0  0  0  0  0  0  0  0
    4.8739    0.3683    2.5568 O   0  5  0  0  0  0  0  0  0  0  0  0
    5.6394    0.8837   -0.0483 O   0  5  0  0  0  0  0  0  0  0  0  0
    0.2939   -0.3404    1.1012 C   0  0  2  0  0  0  0  0  0  0  0  0
   -0.2044    0.4483    1.7138 H   0  0  0  0  0  0  0  0  0  0  0  0
    1.1010   -1.1244    1.9450 O   0  0  0  0  0  0  0  0  0  0  0  0
    0.5582   -1.3308    2.7505 H   0  0  0  0  0  0  0  0  0  0  0  0
   -0.8039   -1.2193    0.4470 C   0  0  2  0  0  0  0  0  0  0  0  0
   -1.6499   -1.3325    1.1651 H   0  0  0  0  0  0  0  0  0  0  0  0
   -0.2908   -2.4895    0.1248 O   0  0  0  0  0  0  0  0  0  0  0  0
   -0.3743   -3.0542    0.9373 H   0  0  0  0  0  0  0  0  0  0  0  0
   -3.8164    2.0974    0.2812 C   0  0  0  0  0  0  0  0  0  0  0  0
   -4.8879    2.1090   -0.0081 H   0  0  0  0  0  0  0  0  0  0  0  0
   -3.2891    2.8998   -0.2780 H   0  0  0  0  0  0  0  0  0  0  0  0
   -3.7302    2.2961    1.3696 H   0  0  0  0  0  0  0  0  0  0  0  0
  1  2  1  0  0  0  0
  2  3  1  0  0  0  0
  3  4  2  0  0  0  0
  3 30  1  0  0  0  0
  4  5  1  0  0  0  0
  5  6  1  6  0  0  0
  5  7  1  0  0  0  0
  7  8  1  6  0  0  0
  7  9  1  0  0  0  0
  7 11  1  0  0  0  0
  9 10  1  0  0  0  0
 11 12  1  0  0  0  0
 12 13  1  6  0  0  0
 12 14  1  0  0  0  0
 12 22  1  0  0  0  0
 14 15  1  0  0  0  0
 14 16  1  0  0  0  0
 14 17  1  0  0  0  0
 17 18  1  0  0  0  0
 18 19  2  0  0  0  0
 18 20  1  0  0  0  0
 18 21  1  0  0  0  0
 22 23  1  1  0  0  0
 22 24  1  0  0  0  0
 22 26  1  0  0  0  0
 24 25  1  0  0  0  0
 26 27  1  1  0  0  0
 26 28  1  0  0  0  0
 26  5  1  0  0  0  0
 28 29  1  0  0  0  0
 30 31  1  0  0  0  0
 30 32  1  0  0  0  0
 30 33  1  0  0  0  0
M  CHG  2  20  -1  21  -1
M  END
>  <UniqueID>
60

>  <SMILES>
C/C(O)=N/[C@H]1[C@H](O)O[C@H](COP(=O)([O-])[O-])[C@H](O)[C@@H]1O

>  <Energy>
36.17263244537255

>  <Genealogy>
CC(O)=N[C@H]1C(O)O[C@H](COP(=O)([O-])[O-])[C@H](O)[C@@H]1O (tautomer)
CC(O)=N[C@H]1[C@H](O)O[C@H](COP(=O)([O-])[O-])[C@H](O)[C@@H]1O (chirality)
C/C(O)=N/[C@H]1[C@H](O)O[C@H](COP(=O)([O-])[O-])[C@H](O)[C@@H]1O (cis-trans isomerization)
C/C(O)=N/[C@H]1[C@H](O)O[C@H](COP(=O)([O-])[O-])[C@H](O)[C@@H]1O (3D coordinates assigned)
C/C(O)=N/[C@H]1[C@H](O)O[C@H](COP(=O)([O-])[O-])[C@H](O)[C@@H]1O (nonaromatic ring conformer: 36.17263244537255 kcal/mol)

$$$$
44119773
 OpenBabel03032110343D

 30 30  0  0  0  0  0  0  0  0999 V2000
   -4.4616    2.2190    0.9517 H   0  0  0  0  0  0  0  0  0  0  0  0
   -3.7053    1.6415    0.6046 O   0  0  0  0  0  0  0  0  0  0  0  0
   -3.9547    0.3986    0.0233 C   0  0  0  0  0  0  0  0  0  0  0  0
   -2.9758   -0.3429   -0.4014 N   0  0  0  0  0  0  0  0  0  0  0  0
   -1.5611    0.0289   -0.3195 C   0  0  2  0  0  0  0  0  0  0  0  0
   -1.4364    1.0885   -0.6411 H   0  0  0  0  0  0  0  0  0  0  0  0
   -0.7335   -0.8588   -1.2732 C   0  0  1  0  0  0  0  0  0  0  0  0
   -0.8714   -1.9386   -1.0151 H   0  0  0  0  0  0  0  0  0  0  0  0
   -1.1576   -0.6478   -2.5947 O   0  0  0  0  0  0  0  0  0  0  0  0
   -1.9665   -1.2063   -2.7357 H   0  0  0  0  0  0  0  0  0  0  0  0
    0.6378   -0.5137   -1.1938 O   0  0  0  0  0  0  0  0  0  0  0  0
    1.1608   -0.8103    0.0912 C   0  0  1  0  0  0  0  0  0  0  0  0
    0.9993   -1.8855    0.3416 H   0  0  0  0  0  0  0  0  0  0  0  0
    2.6785   -0.5755    0.0646 C   0  0  0  0  0  0  0  0  0  0  0  0
    3.1141   -0.8218    1.0559 H   0  0  0  0  0  0  0  0  0  0  0  0
    2.9032    0.4952   -0.1492 H   0  0  0  0  0  0  0  0  0  0  0  0
    3.2844   -1.4055   -0.8901 O   0  0  0  0  0  0  0  0  0  0  0  0
    3.1866   -0.9525   -1.7681 H   0  0  0  0  0  0  0  0  0  0  0  0
    0.4817    0.0815    1.1590 C   0  0  2  0  0  0  0  0  0  0  0  0
    0.6821    1.1538    0.9161 H   0  0  0  0  0  0  0  0  0  0  0  0
    0.9643   -0.2287    2.4430 O   0  0  0  0  0  0  0  0  0  0  0  0
    1.7004    0.4068    2.6424 H   0  0  0  0  0  0  0  0  0  0  0  0
   -1.0432   -0.1287    1.1240 C   0  0  2  0  0  0  0  0  0  0  0  0
   -1.5238    0.6518    1.7596 H   0  0  0  0  0  0  0  0  0  0  0  0
   -1.3724   -1.4091    1.6071 O   0  0  0  0  0  0  0  0  0  0  0  0
   -1.4178   -1.3441    2.5967 H   0  0  0  0  0  0  0  0  0  0  0  0
   -5.3591   -0.1002   -0.0903 C   0  0  0  0  0  0  0  0  0  0  0  0
   -5.4278   -0.9140   -0.8437 H   0  0  0  0  0  0  0  0  0  0  0  0
   -6.0281    0.7288   -0.4020 H   0  0  0  0  0  0  0  0  0  0  0  0
   -5.6929   -0.4874    0.8947 H   0  0  0  0  0  0  0  0  0  0  0  0
  1  2  1  0  0  0  0
  2  3  1  0  0  0  0
  3  4  2  0  0  0  0
  3 27  1  0  0  0  0
  4  5  1  0  0  0  0
  5  6  1  6  0  0  0
  5  7  1  0  0  0  0
  7  8  1  1  0  0  0
  7  9  1  0  0  0  0
  7 11  1  0  0  0  0
  9 10  1  0  0  0  0
 11 12  1  0  0  0  0
 12 13  1  1  0  0  0
 12 14  1  0  0  0  0
 12 19  1  0  0  0  0
 14 15  1  0  0  0  0
 14 16  1  0  0  0  0
 14 17  1  0  0  0  0
 17 18  1  0  0  0  0
 19 20  1  6  0  0  0
 19 21  1  0  0  0  0
 19 23  1  0  0  0  0
 21 22  1  0  0  0  0
 23 24  1  1  0  0  0
 23 25  1  0  0  0  0
 23  5  1  0  0  0  0
 25 26  1  0  0  0  0
 27 28  1  0  0  0  0
 27 29  1  0  0  0  0
 27 30  1  0  0  0  0
M  END
>  <UniqueID>
61

>  <SMILES>
C/C(O)=N/[C@@H]1[C@@H](O)O[C@@H](CO)[C@H](O)[C@@H]1O

>  <Energy>
24.70408582433976

>  <Genealogy>
CC(O)=N[C@@H]1[C@@H](O)OC(CO)[C@H](O)[C@@H]1O (tautomer)
CC(O)=N[C@@H]1[C@@H](O)O[C@@H](CO)[C@H](O)[C@@H]1O (chirality)
C/C(O)=N/[C@@H]1[C@@H](O)O[C@@H](CO)[C@H](O)[C@@H]1O (cis-trans isomerization)
C/C(O)=N/[C@@H]1[C@@H](O)O[C@@H](CO)[C@H](O)[C@@H]1O (3D coordinates assigned)
C/C(O)=N/[C@@H]1[C@@H](O)O[C@@H](CO)[C@H](O)[C@@H]1O (nonaromatic ring conformer: 24.70408582433976 kcal/mol)

$$$$
44119773
 OpenBabel03032110343D

 30 30  0  0  0  0  0  0  0  0999 V2000
    3.9123    0.3576   -1.1704 C   0  0  0  0  0  0  0  0  0  0  0  0
    2.8522   -0.6013   -0.7366 C   0  0  0  0  0  0  0  0  0  0  0  0
    3.1839   -1.7145   -0.2463 O   0  0  0  0  0  0  0  0  0  0  0  0
    1.4684   -0.2682   -0.9201 N   0  0  0  0  0  0  0  0  0  0  0  0
    0.3736   -1.1594   -0.5080 C   0  0  2  0  0  0  0  0  0  0  0  0
   -0.8849   -0.8989   -1.3870 C   0  0  1  0  0  0  0  0  0  0  0  0
   -1.7868   -1.9829   -1.4183 O   0  0  0  0  0  0  0  0  0  0  0  0
   -1.5469    0.3122   -1.0524 O   0  0  0  0  0  0  0  0  0  0  0  0
   -1.9981    0.3107    0.2919 C   0  0  2  0  0  0  0  0  0  0  0  0
   -2.8835    1.5422    0.5321 C   0  0  0  0  0  0  0  0  0  0  0  0
   -2.2238    2.7146    0.1395 O   0  0  0  0  0  0  0  0  0  0  0  0
   -0.8093    0.2478    1.2836 C   0  0  2  0  0  0  0  0  0  0  0  0
   -0.0311    1.4215    1.2767 O   0  0  0  0  0  0  0  0  0  0  0  0
    0.0528   -1.0000    1.0001 C   0  0  2  0  0  0  0  0  0  0  0  0
    1.2358   -0.9622    1.7568 O   0  0  0  0  0  0  0  0  0  0  0  0
    4.8959    0.0713   -0.7410 H   0  0  0  0  0  0  0  0  0  0  0  0
    3.9837    0.3530   -2.2779 H   0  0  0  0  0  0  0  0  0  0  0  0
    3.6565    1.3810   -0.8245 H   0  0  0  0  0  0  0  0  0  0  0  0
    1.2465    0.6059   -1.4493 H   0  0  0  0  0  0  0  0  0  0  0  0
    0.6908   -2.2105   -0.6920 H   0  0  0  0  0  0  0  0  0  0  0  0
   -0.5239   -0.7829   -2.4315 H   0  0  0  0  0  0  0  0  0  0  0  0
   -1.7922   -2.4265   -0.5327 H   0  0  0  0  0  0  0  0  0  0  0  0
   -2.6568   -0.5675    0.4794 H   0  0  0  0  0  0  0  0  0  0  0  0
   -3.8183    1.4320   -0.0622 H   0  0  0  0  0  0  0  0  0  0  0  0
   -3.1615    1.6033    1.6085 H   0  0  0  0  0  0  0  0  0  0  0  0
   -2.8492    3.4605    0.3327 H   0  0  0  0  0  0  0  0  0  0  0  0
   -1.2270    0.1380    2.3087 H   0  0  0  0  0  0  0  0  0  0  0  0
    0.1964    1.6388    0.3380 H   0  0  0  0  0  0  0  0  0  0  0  0
   -0.5343   -1.8958    1.3108 H   0  0  0  0  0  0  0  0  0  0  0  0
    0.9787   -1.1198    2.7029 H   0  0  0  0  0  0  0  0  0  0  0  0
  1  2  1  0  0  0  0
  1 16  1  0  0  0  0
  1 17  1  0  0  0  0
  1 18  1  0  0  0  0
  2  3  2  0  0  0  0
  2  4  1  0  0  0  0
  4  5  1  0  0  0  0
  4 19  1  0  0  0  0
  5  6  1  0  0  0  0
  5 20  1  6  0  0  0
  6  7  1  0  0  0  0
  6  8  1  0  0  0  0
  6 21  1  6  0  0  0
  7 22  1  0  0  0  0
  8  9  1  0  0  0  0
  9 10  1  0  0  0  0
  9 12  1  0  0  0  0
  9 23  1  1  0  0  0
 10 11  1  0  0  0  0
 10 24  1  0  0  0  0
 10 25  1  0  0  0  0
 11 26  1  0  0  0  0
 12 13  1  0  0  0  0
 12 14  1  0  0  0  0
 12 27  1  1  0  0  0
 13 28  1  0  0  0  0
 14 15  1  0  0  0  0
 14  5  1  0  0  0  0
 14 29  1  1  0  0  0
 15 30  1  0  0  0  0
M  END
>  <UniqueID>
62

>  <SMILES>
CC(=O)N[C@@H]1[C@@H](O)O[C@H](CO)[C@H](O)[C@@H]1O

>  <Energy>
32.129688456318135

>  <Genealogy>
CC(=O)N[C@@H]1[C@@H](O)O[C@H](CO)[C@H](O)[C@@H]1O (chirality)
CC(=O)N[C@@H]1[C@@H](O)O[C@H](CO)[C@H](O)[C@@H]1O (3D coordinates assigned)
CC(=O)N[C@@H]1[C@@H](O)O[C@H](CO)[C@H](O)[C@@H]1O (nonaromatic ring conformer: 32.129688456318135 kcal/mol)

$$$$
42612215
 OpenBabel03032110343D

 32 32  0  0  0  0  0  0  0  0999 V2000
    1.0334    0.3723    3.6687 H   0  0  0  0  0  0  0  0  0  0  0  0
    0.7596    0.1332    2.7224 O   0  0  0  0  0  0  0  0  0  0  0  0
    0.4178    1.1051    1.7798 C   0  0  0  0  0  0  0  0  0  0  0  0
    0.4510    2.3988    2.1265 C   0  0  0  0  0  0  0  0  0  0  0  0
    0.7423    2.6728    3.1344 H   0  0  0  0  0  0  0  0  0  0  0  0
    0.1133    3.4284    1.1963 N   0  0  0  0  0  0  0  0  0  0  0  0
    0.1494    4.6120    1.5317 N   0  3  0  0  0  0  0  0  0  0  0  0
    0.1853    5.7950    1.8663 N   0  5  0  0  0  0  0  0  0  0  0  0
    0.0346    0.7008    0.4526 N   0  0  0  0  0  0  0  0  0  0  0  0
   -0.2949    1.4204   -0.2303 H   0  0  0  0  0  0  0  0  0  0  0  0
   -0.0528   -0.7124    0.0600 C   0  0  2  0  0  0  0  0  0  0  0  0
    0.6070   -1.3287    0.7100 H   0  0  0  0  0  0  0  0  0  0  0  0
    0.4220   -0.8974   -1.3936 C   0  0  2  0  0  0  0  0  0  0  0  0
    0.4543   -1.9887   -1.6318 H   0  0  0  0  0  0  0  0  0  0  0  0
    1.7199   -0.3831   -1.5212 O   0  0  0  0  0  0  0  0  0  0  0  0
    2.0217   -0.6083   -2.4398 H   0  0  0  0  0  0  0  0  0  0  0  0
   -0.4396   -0.2128   -2.2875 O   0  0  0  0  0  0  0  0  0  0  0  0
   -1.7314   -0.7991   -2.2865 C   0  0  2  0  0  0  0  0  0  0  0  0
   -1.6621   -1.8839   -2.5394 H   0  0  0  0  0  0  0  0  0  0  0  0
   -2.5550   -0.1250   -3.3928 C   0  0  0  0  0  0  0  0  0  0  0  0
   -2.7575    0.9363   -3.1235 H   0  0  0  0  0  0  0  0  0  0  0  0
   -1.9679   -0.1395   -4.3386 H   0  0  0  0  0  0  0  0  0  0  0  0
   -3.7611   -0.8094   -3.5935 O   0  0  0  0  0  0  0  0  0  0  0  0
   -4.2438   -0.3140   -4.3051 H   0  0  0  0  0  0  0  0  0  0  0  0
   -2.4016   -0.6271   -0.8994 C   0  0  1  0  0  0  0  0  0  0  0  0
   -2.5403    0.4630   -0.7038 H   0  0  0  0  0  0  0  0  0  0  0  0
   -3.6464   -1.2786   -0.8881 O   0  0  0  0  0  0  0  0  0  0  0  0
   -4.1769   -0.8751   -0.1522 H   0  0  0  0  0  0  0  0  0  0  0  0
   -1.4998   -1.2288    0.1950 C   0  0  2  0  0  0  0  0  0  0  0  0
   -1.4928   -2.3376    0.0640 H   0  0  0  0  0  0  0  0  0  0  0  0
   -2.0201   -0.9146    1.4612 O   0  0  0  0  0  0  0  0  0  0  0  0
   -1.5815   -1.5251    2.1098 H   0  0  0  0  0  0  0  0  0  0  0  0
  1  2  1  0  0  0  0
  2  3  1  0  0  0  0
  3  4  2  0  0  0  0
  3  9  1  0  0  0  0
  4  5  1  0  0  0  0
  4  6  1  0  0  0  0
  6  7  2  0  0  0  0
  7  8  2  0  0  0  0
  9 10  1  0  0  0  0
  9 11  1  0  0  0  0
 11 12  1  1  0  0  0
 11 13  1  0  0  0  0
 13 14  1  6  0  0  0
 13 15  1  0  0  0  0
 13 17  1  0  0  0  0
 15 16  1  0  0  0  0
 17 18  1  0  0  0  0
 18 19  1  6  0  0  0
 18 20  1  0  0  0  0
 18 25  1  0  0  0  0
 20 21  1  0  0  0  0
 20 22  1  0  0  0  0
 20 23  1  0  0  0  0
 23 24  1  0  0  0  0
 25 26  1  1  0  0  0
 25 27  1  0  0  0  0
 25 29  1  0  0  0  0
 27 28  1  0  0  0  0
 29 30  1  6  0  0  0
 29 31  1  0  0  0  0
 29 11  1  0  0  0  0
 31 32  1  0  0  0  0
M  CHG  2   7   1   8  -1
M  END
>  <UniqueID>
63

>  <SMILES>
[N-]=[N+]=N/C=C(/O)N[C@@H]1[C@H](O)O[C@H](CO)[C@@H](O)[C@@H]1O

>  <Energy>
25.297540234277573

>  <Genealogy>
[N-]=[N+]=NC=C(O)N[C@@H]1C(O)O[C@H](CO)[C@@H](O)[C@@H]1O (tautomer)
[N-]=[N+]=NC=C(O)N[C@@H]1[C@H](O)O[C@H](CO)[C@@H](O)[C@@H]1O (chirality)
[N-]=[N+]=N/C=C(/O)N[C@@H]1[C@H](O)O[C@H](CO)[C@@H](O)[C@@H]1O (cis-trans isomerization)
[N-]=[N+]=N/C=C(/O)N[C@@H]1[C@H](O)O[C@H](CO)[C@@H](O)[C@@H]1O (3D coordinates assigned)
[N-]=[N+]=N/C=C(/O)N[C@@H]1[C@H](O)O[C@H](CO)[C@@H](O)[C@@H]1O (nonaromatic ring conformer: 25.297540234277573 kcal/mol)

$$$$
42612215
 OpenBabel03032110343D

 32 32  0  0  0  0  0  0  0  0999 V2000
   -0.1571   -1.6424   -4.0844 H   0  0  0  0  0  0  0  0  0  0  0  0
   -0.3010   -1.0883   -3.2489 O   0  0  0  0  0  0  0  0  0  0  0  0
   -0.7142   -1.6762   -2.0535 C   0  0  0  0  0  0  0  0  0  0  0  0
   -0.9227   -0.9519   -0.9949 N   0  0  0  0  0  0  0  0  0  0  0  0
   -0.7237    0.4992   -0.9199 C   0  0  2  0  0  0  0  0  0  0  0  0
   -0.9808    0.9724   -1.8945 H   0  0  0  0  0  0  0  0  0  0  0  0
    0.7397    0.8300   -0.5519 C   0  0  2  0  0  0  0  0  0  0  0  0
    0.8838    1.9390   -0.5458 H   0  0  0  0  0  0  0  0  0  0  0  0
    1.6156    0.2777   -1.4980 O   0  0  0  0  0  0  0  0  0  0  0  0
    1.5487    0.8389   -2.3145 H   0  0  0  0  0  0  0  0  0  0  0  0
    1.0554    0.2912    0.7193 O   0  0  0  0  0  0  0  0  0  0  0  0
    0.3105    0.9385    1.7394 C   0  0  2  0  0  0  0  0  0  0  0  0
    0.4944    2.0387    1.7094 H   0  0  0  0  0  0  0  0  0  0  0  0
    0.8233    0.4239    3.0951 C   0  0  0  0  0  0  0  0  0  0  0  0
    0.5323   -0.6397    3.2310 H   0  0  0  0  0  0  0  0  0  0  0  0
    1.9365    0.4667    3.1157 H   0  0  0  0  0  0  0  0  0  0  0  0
    0.3021    1.1778    4.1567 O   0  0  0  0  0  0  0  0  0  0  0  0
    0.7902    2.0423    4.1591 H   0  0  0  0  0  0  0  0  0  0  0  0
   -1.2043    0.6572    1.5611 C   0  0  1  0  0  0  0  0  0  0  0  0
   -1.3853   -0.4412    1.6623 H   0  0  0  0  0  0  0  0  0  0  0  0
   -1.9497    1.3749    2.5130 O   0  0  0  0  0  0  0  0  0  0  0  0
   -2.1869    0.7420    3.2403 H   0  0  0  0  0  0  0  0  0  0  0  0
   -1.6530    1.0920    0.1557 C   0  0  2  0  0  0  0  0  0  0  0  0
   -1.5980    2.2059    0.1005 H   0  0  0  0  0  0  0  0  0  0  0  0
   -2.9790    0.6817   -0.0606 O   0  0  0  0  0  0  0  0  0  0  0  0
   -3.3059    1.1781   -0.8559 H   0  0  0  0  0  0  0  0  0  0  0  0
   -0.9703   -3.1519   -1.9945 C   0  0  0  0  0  0  0  0  0  0  0  0
   -0.2534   -3.6754   -2.6609 H   0  0  0  0  0  0  0  0  0  0  0  0
   -0.8173   -3.5341   -0.9612 H   0  0  0  0  0  0  0  0  0  0  0  0
   -2.3270   -3.4473   -2.4344 N   0  0  0  0  0  0  0  0  0  0  0  0
   -3.3016   -3.0652   -1.7853 N   0  3  0  0  0  0  0  0  0  0  0  0
   -4.2744   -2.6827   -1.1370 N   0  5  0  0  0  0  0  0  0  0  0  0
  1  2  1  0  0  0  0
  2  3  1  0  0  0  0
  3  4  2  0  0  0  0
  3 27  1  0  0  0  0
  4  5  1  0  0  0  0
  5  6  1  6  0  0  0
  5  7  1  0  0  0  0
  7  8  1  1  0  0  0
  7  9  1  0  0  0  0
  7 11  1  0  0  0  0
  9 10  1  0  0  0  0
 11 12  1  0  0  0  0
 12 13  1  6  0  0  0
 12 14  1  0  0  0  0
 12 19  1  0  0  0  0
 14 15  1  0  0  0  0
 14 16  1  0  0  0  0
 14 17  1  0  0  0  0
 17 18  1  0  0  0  0
 19 20  1  1  0  0  0
 19 21  1  0  0  0  0
 19 23  1  0  0  0  0
 21 22  1  0  0  0  0
 23 24  1  6  0  0  0
 23 25  1  0  0  0  0
 23  5  1  0  0  0  0
 25 26  1  0  0  0  0
 27 28  1  0  0  0  0
 27 29  1  0  0  0  0
 27 30  1  0  0  0  0
 30 31  2  0  0  0  0
 31 32  2  0  0  0  0
M  CHG  2  31   1  32  -1
M  END
>  <UniqueID>
64

>  <SMILES>
[N-]=[N+]=NC/C(O)=N\[C@@H]1[C@H](O)O[C@H](CO)[C@@H](O)[C@@H]1O

>  <Energy>
25.742918076466395

>  <Genealogy>
[N-]=[N+]=NCC(O)=N[C@@H]1C(O)O[C@H](CO)[C@@H](O)[C@@H]1O (tautomer)
[N-]=[N+]=NCC(O)=N[C@@H]1[C@H](O)O[C@H](CO)[C@@H](O)[C@@H]1O (chirality)
[N-]=[N+]=NC/C(O)=N\[C@@H]1[C@H](O)O[C@H](CO)[C@@H](O)[C@@H]1O (cis-trans isomerization)
[N-]=[N+]=NC/C(O)=N\[C@@H]1[C@H](O)O[C@H](CO)[C@@H](O)[C@@H]1O (3D coordinates assigned)
[N-]=[N+]=NC/C(O)=N\[C@@H]1[C@H](O)O[C@H](CO)[C@@H](O)[C@@H]1O (nonaromatic ring conformer: 25.742918076466395 kcal/mol)

$$$$
25243963
 OpenBabel03032110343D

 33 33  0  0  0  0  0  0  0  0999 V2000
    2.6900   -4.0775   -0.8704 C   0  0  0  0  0  0  0  0  0  0  0  0
    2.4810   -2.6463   -0.4971 C   0  0  0  0  0  0  0  0  0  0  0  0
    3.1215   -1.7444   -1.1021 O   0  0  0  0  0  0  0  0  0  0  0  0
    1.5658   -2.3085    0.5541 N   0  0  0  0  0  0  0  0  0  0  0  0
    1.2900   -0.9191    0.9388 C   0  0  1  0  0  0  0  0  0  0  0  0
    0.3249   -0.2684   -0.0734 C   0  0  1  0  0  0  0  0  0  0  0  0
   -0.8438   -1.0370   -0.2180 O   0  0  0  0  0  0  0  0  0  0  0  0
    0.0203    1.0700    0.2919 O   0  0  0  0  0  0  0  0  0  0  0  0
   -0.6464    1.1379    1.5440 C   0  0  2  0  0  0  0  0  0  0  0  0
   -1.0294    2.6038    1.7935 C   0  0  0  0  0  0  0  0  0  0  0  0
   -1.8931    2.6932    2.9028 O   0  0  0  0  0  0  0  0  0  0  0  0
   -2.2502    4.3376    3.1731 P   0  0  0  0  0  0  0  0  0  0  0  0
   -3.2067    4.4482    4.3378 O   0  0  0  0  0  0  0  0  0  0  0  0
   -2.9731    5.0117    1.7998 O   0  5  0  0  0  0  0  0  0  0  0  0
   -0.8335    5.1868    3.5398 O   0  5  0  0  0  0  0  0  0  0  0  0
    0.2667    0.5922    2.6741 C   0  0  1  0  0  0  0  0  0  0  0  0
   -0.3694    0.6479    3.9275 O   0  0  0  0  0  0  0  0  0  0  0  0
    0.6980   -0.8506    2.3599 C   0  0  2  0  0  0  0  0  0  0  0  0
    1.6585   -1.2566    3.3018 O   0  0  0  0  0  0  0  0  0  0  0  0
    3.3871   -4.1601   -1.7312 H   0  0  0  0  0  0  0  0  0  0  0  0
    1.7181   -4.5339   -1.1509 H   0  0  0  0  0  0  0  0  0  0  0  0
    3.1176   -4.6269   -0.0062 H   0  0  0  0  0  0  0  0  0  0  0  0
    1.0762   -3.0880    1.0500 H   0  0  0  0  0  0  0  0  0  0  0  0
    2.2444   -0.3447    0.9387 H   0  0  0  0  0  0  0  0  0  0  0  0
    0.8459   -0.2342   -1.0563 H   0  0  0  0  0  0  0  0  0  0  0  0
   -1.3620   -0.6218   -0.9559 H   0  0  0  0  0  0  0  0  0  0  0  0
   -1.5944    0.5529    1.5072 H   0  0  0  0  0  0  0  0  0  0  0  0
   -1.5441    2.9816    0.8805 H   0  0  0  0  0  0  0  0  0  0  0  0
   -0.0985    3.1948    1.9552 H   0  0  0  0  0  0  0  0  0  0  0  0
    1.1801    1.2263    2.7256 H   0  0  0  0  0  0  0  0  0  0  0  0
   -1.1988    0.1050    3.8687 H   0  0  0  0  0  0  0  0  0  0  0  0
   -0.2008   -1.5108    2.4198 H   0  0  0  0  0  0  0  0  0  0  0  0
    1.6402   -2.2487    3.3272 H   0  0  0  0  0  0  0  0  0  0  0  0
  1  2  1  0  0  0  0
  1 20  1  0  0  0  0
  1 21  1  0  0  0  0
  1 22  1  0  0  0  0
  2  3  2  0  0  0  0
  2  4  1  0  0  0  0
  4  5  1  0  0  0  0
  4 23  1  0  0  0  0
  5  6  1  0  0  0  0
  5 24  1  6  0  0  0
  6  7  1  0  0  0  0
  6  8  1  0  0  0  0
  6 25  1  6  0  0  0
  7 26  1  0  0  0  0
  8  9  1  0  0  0  0
  9 10  1  0  0  0  0
  9 16  1  0  0  0  0
  9 27  1  6  0  0  0
 10 11  1  0  0  0  0
 10 28  1  0  0  0  0
 10 29  1  0  0  0  0
 11 12  1  0  0  0  0
 12 13  2  0  0  0  0
 12 14  1  0  0  0  0
 12 15  1  0  0  0  0
 16 17  1  0  0  0  0
 16 18  1  0  0  0  0
 16 30  1  1  0  0  0
 17 31  1  0  0  0  0
 18 19  1  0  0  0  0
 18  5  1  0  0  0  0
 18 32  1  1  0  0  0
 19 33  1  0  0  0  0
M  CHG  2  14  -1  15  -1
M  END
>  <UniqueID>
65

>  <SMILES>
CC(=O)N[C@H]1[C@@H](O)O[C@H](COP(=O)([O-])[O-])[C@@H](O)[C@@H]1O

>  <Energy>
27.321936968246785

>  <Genealogy>
CC(=O)N[C@H]1[C@@H](O)O[C@H](COP(=O)([O-])[O-])[C@@H](O)[C@@H]1O (chirality)
CC(=O)N[C@H]1[C@@H](O)O[C@H](COP(=O)([O-])[O-])[C@@H](O)[C@@H]1O (3D coordinates assigned)
CC(=O)N[C@H]1[C@@H](O)O[C@H](COP(=O)([O-])[O-])[C@@H](O)[C@@H]1O (nonaromatic ring conformer: 27.321936968246785 kcal/mol)

$$$$
25243963
 OpenBabel03032110343D

 33 33  0  0  0  0  0  0  0  0999 V2000
    1.5643   -4.1269   -0.9068 C   0  0  0  0  0  0  0  0  0  0  0  0
    1.9306   -2.7530   -0.4487 C   0  0  0  0  0  0  0  0  0  0  0  0
    3.1253   -2.3628   -0.5478 O   0  0  0  0  0  0  0  0  0  0  0  0
    0.9310   -1.9038    0.1318 N   0  0  0  0  0  0  0  0  0  0  0  0
    1.2411   -0.5862    0.6992 C   0  0  1  0  0  0  0  0  0  0  0  0
    0.1212    0.4369    0.3775 C   0  0  1  0  0  0  0  0  0  0  0  0
   -0.3962    0.2318   -0.9133 O   0  0  0  0  0  0  0  0  0  0  0  0
   -0.9158    0.3633    1.3423 O   0  0  0  0  0  0  0  0  0  0  0  0
   -0.4963    0.8431    2.6191 C   0  0  2  0  0  0  0  0  0  0  0  0
   -0.8352    2.3339    2.7659 C   0  0  0  0  0  0  0  0  0  0  0  0
   -2.2064    2.5241    2.5069 O   0  0  0  0  0  0  0  0  0  0  0  0
   -2.5521    4.1876    2.6455 P   0  0  0  0  0  0  0  0  0  0  0  0
   -4.0259    4.4064    2.3934 O   0  0  0  0  0  0  0  0  0  0  0  0
   -1.6613    5.0635    1.5041 O   0  5  0  0  0  0  0  0  0  0  0  0
   -2.1710    4.7354    4.2005 O   0  5  0  0  0  0  0  0  0  0  0  0
    0.9998    0.5514    2.9547 C   0  0  1  0  0  0  0  0  0  0  0  0
    1.1605    0.3805    4.3401 O   0  0  0  0  0  0  0  0  0  0  0  0
    1.4502   -0.7246    2.2263 C   0  0  2  0  0  0  0  0  0  0  0  0
    2.8074   -0.9797    2.4868 O   0  0  0  0  0  0  0  0  0  0  0  0
    2.3756   -4.5596   -1.5300 H   0  0  0  0  0  0  0  0  0  0  0  0
    1.3979   -4.7782   -0.0237 H   0  0  0  0  0  0  0  0  0  0  0  0
    0.6339   -4.0852   -1.5108 H   0  0  0  0  0  0  0  0  0  0  0  0
   -0.0180   -2.3082    0.3035 H   0  0  0  0  0  0  0  0  0  0  0  0
    2.1723   -0.1892    0.2353 H   0  0  0  0  0  0  0  0  0  0  0  0
    0.5637    1.4591    0.3750 H   0  0  0  0  0  0  0  0  0  0  0  0
   -1.0934   -0.4720   -0.8517 H   0  0  0  0  0  0  0  0  0  0  0  0
   -1.1111    0.2979    3.3695 H   0  0  0  0  0  0  0  0  0  0  0  0
   -0.5916    2.6494    3.8055 H   0  0  0  0  0  0  0  0  0  0  0  0
   -0.2133    2.9181    2.0510 H   0  0  0  0  0  0  0  0  0  0  0  0
    1.6470    1.3905    2.6018 H   0  0  0  0  0  0  0  0  0  0  0  0
    1.1999    1.2880    4.7398 H   0  0  0  0  0  0  0  0  0  0  0  0
    0.8275   -1.5730    2.6025 H   0  0  0  0  0  0  0  0  0  0  0  0
    2.8549   -1.4246    3.3731 H   0  0  0  0  0  0  0  0  0  0  0  0
  1  2  1  0  0  0  0
  1 20  1  0  0  0  0
  1 21  1  0  0  0  0
  1 22  1  0  0  0  0
  2  3  2  0  0  0  0
  2  4  1  0  0  0  0
  4  5  1  0  0  0  0
  4 23  1  0  0  0  0
  5  6  1  0  0  0  0
  5 24  1  6  0  0  0
  6  7  1  0  0  0  0
  6  8  1  0  0  0  0
  6 25  1  1  0  0  0
  7 26  1  0  0  0  0
  8  9  1  0  0  0  0
  9 10  1  0  0  0  0
  9 16  1  0  0  0  0
  9 27  1  1  0  0  0
 10 11  1  0  0  0  0
 10 28  1  0  0  0  0
 10 29  1  0  0  0  0
 11 12  1  0  0  0  0
 12 13  2  0  0  0  0
 12 14  1  0  0  0  0
 12 15  1  0  0  0  0
 16 17  1  0  0  0  0
 16 18  1  0  0  0  0
 16 30  1  6  0  0  0
 17 31  1  0  0  0  0
 18 19  1  0  0  0  0
 18  5  1  0  0  0  0
 18 32  1  1  0  0  0
 19 33  1  0  0  0  0
M  CHG  2  14  -1  15  -1
M  END
>  <UniqueID>
66

>  <SMILES>
CC(=O)N[C@H]1[C@@H](O)O[C@H](COP(=O)([O-])[O-])[C@@H](O)[C@@H]1O

>  <Energy>
35.2355897704292

>  <Genealogy>
CC(=O)N[C@H]1[C@@H](O)O[C@H](COP(=O)([O-])[O-])[C@@H](O)[C@@H]1O (chirality)
CC(=O)N[C@H]1[C@@H](O)O[C@H](COP(=O)([O-])[O-])[C@@H](O)[C@@H]1O (3D coordinates assigned)
CC(=O)N[C@H]1[C@@H](O)O[C@H](COP(=O)([O-])[O-])[C@@H](O)[C@@H]1O (nonaromatic ring conformer: 35.2355897704292 kcal/mol)

$$$$
25243937
 OpenBabel03032110343D

 33 33  0  0  0  0  0  0  0  0999 V2000
   -3.3025    3.3404   -0.2761 H   0  0  0  0  0  0  0  0  0  0  0  0
   -2.5083    2.7118   -0.2896 O   0  0  0  0  0  0  0  0  0  0  0  0
   -2.2719    1.8243    0.7598 C   0  0  0  0  0  0  0  0  0  0  0  0
   -1.2370    1.0382    0.7445 N   0  0  0  0  0  0  0  0  0  0  0  0
   -0.2615    0.9620   -0.3463 C   0  0  1  0  0  0  0  0  0  0  0  0
   -0.0932    1.9767   -0.7756 H   0  0  0  0  0  0  0  0  0  0  0  0
    1.0846    0.4652    0.2133 C   0  0  1  0  0  0  0  0  0  0  0  0
    1.4331    1.2654    0.9073 H   0  0  0  0  0  0  0  0  0  0  0  0
    0.9064   -0.7584    0.9059 O   0  0  0  0  0  0  0  0  0  0  0  0
    2.2459   -1.0344    1.9285 P   0  0  0  0  0  0  0  0  0  0  0  0
    2.2658   -0.0099    3.0406 O   0  0  0  0  0  0  0  0  0  0  0  0
    3.6930   -0.9491    1.0555 O   0  5  0  0  0  0  0  0  0  0  0  0
    2.1062   -2.5773    2.6054 O   0  5  0  0  0  0  0  0  0  0  0  0
    2.0433    0.3433   -0.8283 O   0  0  0  0  0  0  0  0  0  0  0  0
    1.6597   -0.6296   -1.7885 C   0  0  2  0  0  0  0  0  0  0  0  0
    1.5169   -1.6210   -1.2995 H   0  0  0  0  0  0  0  0  0  0  0  0
    2.8179   -0.7801   -2.7893 C   0  0  0  0  0  0  0  0  0  0  0  0
    3.7787   -0.8924   -2.2362 H   0  0  0  0  0  0  0  0  0  0  0  0
    2.9020    0.1360   -3.4122 H   0  0  0  0  0  0  0  0  0  0  0  0
    2.6253   -1.8864   -3.6298 O   0  0  0  0  0  0  0  0  0  0  0  0
    2.8248   -2.6941   -3.0881 H   0  0  0  0  0  0  0  0  0  0  0  0
    0.3497   -0.2045   -2.4959 C   0  0  1  0  0  0  0  0  0  0  0  0
    0.5212    0.7633   -3.0286 H   0  0  0  0  0  0  0  0  0  0  0  0
   -0.0647   -1.2041   -3.3938 O   0  0  0  0  0  0  0  0  0  0  0  0
    0.2006   -0.9110   -4.3044 H   0  0  0  0  0  0  0  0  0  0  0  0
   -0.7587    0.0136   -1.4526 C   0  0  2  0  0  0  0  0  0  0  0  0
   -1.0235   -0.9664   -0.9865 H   0  0  0  0  0  0  0  0  0  0  0  0
   -1.8902    0.5668   -2.0742 O   0  0  0  0  0  0  0  0  0  0  0  0
   -2.3778   -0.1818   -2.5073 H   0  0  0  0  0  0  0  0  0  0  0  0
   -3.1918    1.8049    1.9376 C   0  0  0  0  0  0  0  0  0  0  0  0
   -3.1002    0.8458    2.4911 H   0  0  0  0  0  0  0  0  0  0  0  0
   -4.2421    1.9178    1.5969 H   0  0  0  0  0  0  0  0  0  0  0  0
   -2.9369    2.6436    2.6180 H   0  0  0  0  0  0  0  0  0  0  0  0
  1  2  1  0  0  0  0
  2  3  1  0  0  0  0
  3  4  2  0  0  0  0
  3 30  1  0  0  0  0
  4  5  1  0  0  0  0
  5  6  1  6  0  0  0
  5  7  1  0  0  0  0
  7  8  1  1  0  0  0
  7  9  1  0  0  0  0
  7 14  1  0  0  0  0
  9 10  1  0  0  0  0
 10 11  2  0  0  0  0
 10 12  1  0  0  0  0
 10 13  1  0  0  0  0
 14 15  1  0  0  0  0
 15 16  1  1  0  0  0
 15 17  1  0  0  0  0
 15 22  1  0  0  0  0
 17 18  1  0  0  0  0
 17 19  1  0  0  0  0
 17 20  1  0  0  0  0
 20 21  1  0  0  0  0
 22 23  1  6  0  0  0
 22 24  1  0  0  0  0
 22 26  1  0  0  0  0
 24 25  1  0  0  0  0
 26 27  1  1  0  0  0
 26 28  1  0  0  0  0
 26  5  1  0  0  0  0
 28 29  1  0  0  0  0
 30 31  1  0  0  0  0
 30 32  1  0  0  0  0
 30 33  1  0  0  0  0
M  CHG  2  12  -1  13  -1
M  END
>  <UniqueID>
67

>  <SMILES>
C/C(O)=N/[C@H]1[C@@H](OP(=O)([O-])[O-])O[C@H](CO)[C@@H](O)[C@@H]1O

>  <Energy>
28.951353462288377

>  <Genealogy>
CC(O)=N[C@H]1[C@@H](OP(=O)([O-])[O-])O[C@H](CO)[C@@H](O)[C@@H]1O (tautomer)
C/C(O)=N/[C@H]1[C@@H](OP(=O)([O-])[O-])O[C@H](CO)[C@@H](O)[C@@H]1O (cis-trans isomerization)
C/C(O)=N/[C@H]1[C@@H](OP(=O)([O-])[O-])O[C@H](CO)[C@@H](O)[C@@H]1O (3D coordinates assigned)
C/C(O)=N/[C@H]1[C@@H](OP(=O)([O-])[O-])O[C@H](CO)[C@@H](O)[C@@H]1O (nonaromatic ring conformer: 28.951353462288377 kcal/mol)

$$$$
25243937
 OpenBabel03032110343D

 33 33  0  0  0  0  0  0  0  0999 V2000
    0.9384   -2.2741   -3.8256 H   0  0  0  0  0  0  0  0  0  0  0  0
    0.7008   -1.8793   -2.9236 O   0  0  0  0  0  0  0  0  0  0  0  0
    0.4761   -0.5117   -2.7703 C   0  0  0  0  0  0  0  0  0  0  0  0
    0.1952   -0.0118   -1.6042 N   0  0  0  0  0  0  0  0  0  0  0  0
    0.0428   -0.7973   -0.3753 C   0  0  1  0  0  0  0  0  0  0  0  0
    0.8026   -1.6124   -0.3587 H   0  0  0  0  0  0  0  0  0  0  0  0
    0.3207    0.0993    0.8550 C   0  0  1  0  0  0  0  0  0  0  0  0
    0.6109   -0.5760    1.6961 H   0  0  0  0  0  0  0  0  0  0  0  0
    1.3858    0.9805    0.5615 O   0  0  0  0  0  0  0  0  0  0  0  0
    1.9256    1.7254    2.0016 P   0  0  0  0  0  0  0  0  0  0  0  0
    0.8467    2.6242    2.5623 O   0  0  0  0  0  0  0  0  0  0  0  0
    3.2895    2.6608    1.6510 O   0  5  0  0  0  0  0  0  0  0  0  0
    2.3459    0.5593    3.1540 O   0  5  0  0  0  0  0  0  0  0  0  0
   -0.8463    0.8404    1.1707 O   0  0  0  0  0  0  0  0  0  0  0  0
   -1.8703    0.0158    1.7227 C   0  0  2  0  0  0  0  0  0  0  0  0
   -2.8351    0.5068    1.4660 H   0  0  0  0  0  0  0  0  0  0  0  0
   -1.7701   -0.0049    3.2579 C   0  0  0  0  0  0  0  0  0  0  0  0
   -0.8277   -0.5005    3.5716 H   0  0  0  0  0  0  0  0  0  0  0  0
   -2.6146   -0.5859    3.6928 H   0  0  0  0  0  0  0  0  0  0  0  0
   -1.7752    1.3010    3.7681 O   0  0  0  0  0  0  0  0  0  0  0  0
   -2.7114    1.6259    3.7087 H   0  0  0  0  0  0  0  0  0  0  0  0
   -1.9169   -1.4242    1.1259 C   0  0  1  0  0  0  0  0  0  0  0  0
   -1.2643   -2.1100    1.7186 H   0  0  0  0  0  0  0  0  0  0  0  0
   -3.2353   -1.9100    1.1282 O   0  0  0  0  0  0  0  0  0  0  0  0
   -3.4276   -2.2158    2.0525 H   0  0  0  0  0  0  0  0  0  0  0  0
   -1.3871   -1.4023   -0.3146 C   0  0  2  0  0  0  0  0  0  0  0  0
   -2.0867   -0.7645   -0.9097 H   0  0  0  0  0  0  0  0  0  0  0  0
   -1.3783   -2.7127   -0.8219 O   0  0  0  0  0  0  0  0  0  0  0  0
   -1.5648   -2.6499   -1.7946 H   0  0  0  0  0  0  0  0  0  0  0  0
    0.6042    0.3989   -3.9485 C   0  0  0  0  0  0  0  0  0  0  0  0
    1.6763    0.6236   -4.1255 H   0  0  0  0  0  0  0  0  0  0  0  0
    0.1801   -0.0900   -4.8503 H   0  0  0  0  0  0  0  0  0  0  0  0
    0.0569    1.3493   -3.7706 H   0  0  0  0  0  0  0  0  0  0  0  0
  1  2  1  0  0  0  0
  2  3  1  0  0  0  0
  3  4  2  0  0  0  0
  3 30  1  0  0  0  0
  4  5  1  0  0  0  0
  5  6  1  6  0  0  0
  5  7  1  0  0  0  0
  7  8  1  1  0  0  0
  7  9  1  0  0  0  0
  7 14  1  0  0  0  0
  9 10  1  0  0  0  0
 10 11  2  0  0  0  0
 10 12  1  0  0  0  0
 10 13  1  0  0  0  0
 14 15  1  0  0  0  0
 15 16  1  6  0  0  0
 15 17  1  0  0  0  0
 15 22  1  0  0  0  0
 17 18  1  0  0  0  0
 17 19  1  0  0  0  0
 17 20  1  0  0  0  0
 20 21  1  0  0  0  0
 22 23  1  1  0  0  0
 22 24  1  0  0  0  0
 22 26  1  0  0  0  0
 24 25  1  0  0  0  0
 26 27  1  6  0  0  0
 26 28  1  0  0  0  0
 26  5  1  0  0  0  0
 28 29  1  0  0  0  0
 30 31  1  0  0  0  0
 30 32  1  0  0  0  0
 30 33  1  0  0  0  0
M  CHG  2  12  -1  13  -1
M  END
>  <UniqueID>
68

>  <SMILES>
C/C(O)=N\[C@H]1[C@@H](OP(=O)([O-])[O-])O[C@H](CO)[C@@H](O)[C@@H]1O

>  <Energy>
35.51331594931614

>  <Genealogy>
CC(O)=N[C@H]1[C@@H](OP(=O)([O-])[O-])O[C@H](CO)[C@@H](O)[C@@H]1O (tautomer)
C/C(O)=N\[C@H]1[C@@H](OP(=O)([O-])[O-])O[C@H](CO)[C@@H](O)[C@@H]1O (cis-trans isomerization)
C/C(O)=N\[C@H]1[C@@H](OP(=O)([O-])[O-])O[C@H](CO)[C@@H](O)[C@@H]1O (3D coordinates assigned)
C/C(O)=N\[C@H]1[C@@H](OP(=O)([O-])[O-])O[C@H](CO)[C@@H](O)[C@@H]1O (nonaromatic ring conformer: 35.51331594931614 kcal/mol)

$$$$
24847493
 OpenBabel03032110343D

 36 36  0  0  0  0  0  0  0  0999 V2000
    2.8894   -2.3798    1.1645 H   0  0  0  0  0  0  0  0  0  0  0  0
    2.0535   -2.0038    0.7357 O   0  0  0  0  0  0  0  0  0  0  0  0
    2.1128   -1.0618   -0.2931 C   0  0  0  0  0  0  0  0  0  0  0  0
    1.0259   -0.4806   -0.7078 N   0  0  0  0  0  0  0  0  0  0  0  0
   -0.3131   -0.7174   -0.1634 C   0  0  1  0  0  0  0  0  0  0  0  0
   -0.4161   -1.7848    0.1391 H   0  0  0  0  0  0  0  0  0  0  0  0
   -0.5731    0.1885    1.0555 C   0  0  2  0  0  0  0  0  0  0  0  0
   -0.3888    1.2531    0.7691 H   0  0  0  0  0  0  0  0  0  0  0  0
    0.2640   -0.1803    2.1220 O   0  0  0  0  0  0  0  0  0  0  0  0
    1.0943    0.3579    2.0410 H   0  0  0  0  0  0  0  0  0  0  0  0
   -2.0388    0.0545    1.5003 C   0  0  1  0  0  0  0  0  0  0  0  0
   -2.2091   -0.9768    1.8940 H   0  0  0  0  0  0  0  0  0  0  0  0
   -2.3165    1.0049    2.4976 O   0  0  0  0  0  0  0  0  0  0  0  0
   -1.9770    0.6332    3.3532 H   0  0  0  0  0  0  0  0  0  0  0  0
   -2.9771    0.2801    0.2929 C   0  0  2  0  0  0  0  0  0  0  0  0
   -2.8783    1.3325   -0.0615 H   0  0  0  0  0  0  0  0  0  0  0  0
   -4.4414    0.0817    0.7024 C   0  0  0  0  0  0  0  0  0  0  0  0
   -4.5895   -0.9585    1.0715 H   0  0  0  0  0  0  0  0  0  0  0  0
   -4.7069    0.7926    1.5167 H   0  0  0  0  0  0  0  0  0  0  0  0
   -5.2745    0.3119   -0.4001 O   0  0  0  0  0  0  0  0  0  0  0  0
   -6.2020    0.1600   -0.0811 H   0  0  0  0  0  0  0  0  0  0  0  0
   -2.6800   -0.6317   -0.7550 O   0  0  0  0  0  0  0  0  0  0  0  0
   -1.3667   -0.4447   -1.2571 C   0  0  1  0  0  0  0  0  0  0  0  0
   -1.2200   -1.2010   -2.0631 H   0  0  0  0  0  0  0  0  0  0  0  0
   -1.2256    0.8449   -1.8067 O   0  0  0  0  0  0  0  0  0  0  0  0
   -0.4909    0.8007   -2.4729 H   0  0  0  0  0  0  0  0  0  0  0  0
    3.3779   -0.7079   -0.8859 N   0  0  0  0  0  0  0  0  0  0  0  0
    4.4155   -1.6485   -1.0158 N   0  0  0  0  0  0  0  0  0  0  0  0
    4.2108   -2.8731   -0.8853 O   0  0  0  0  0  0  0  0  0  0  0  0
    3.6351    0.6701   -1.3101 C   0  0  0  0  0  0  0  0  0  0  0  0
    2.7685    1.0625   -1.8853 H   0  0  0  0  0  0  0  0  0  0  0  0
    4.5203    0.6966   -1.9828 H   0  0  0  0  0  0  0  0  0  0  0  0
    3.8980    1.5577   -0.0967 C   0  0  0  0  0  0  0  0  0  0  0  0
    4.7707    1.1727    0.4723 H   0  0  0  0  0  0  0  0  0  0  0  0
    3.0085    1.5688    0.5682 H   0  0  0  0  0  0  0  0  0  0  0  0
    4.2401    3.2258   -0.6194 Cl  0  0  0  0  0  0  0  0  0  0  0  0
  1  2  1  0  0  0  0
  2  3  1  0  0  0  0
  3  4  2  0  0  0  0
  3 27  1  0  0  0  0
  4  5  1  0  0  0  0
  5  6  1  1  0  0  0
  5  7  1  0  0  0  0
  7  8  1  6  0  0  0
  7  9  1  0  0  0  0
  7 11  1  0  0  0  0
  9 10  1  0  0  0  0
 11 12  1  1  0  0  0
 11 13  1  0  0  0  0
 11 15  1  0  0  0  0
 13 14  1  0  0  0  0
 15 16  1  6  0  0  0
 15 17  1  0  0  0  0
 15 22  1  0  0  0  0
 17 18  1  0  0  0  0
 17 19  1  0  0  0  0
 17 20  1  0  0  0  0
 20 21  1  0  0  0  0
 22 23  1  0  0  0  0
 23 24  1  6  0  0  0
 23 25  1  0  0  0  0
 23  5  1  0  0  0  0
 25 26  1  0  0  0  0
 27 28  1  0  0  0  0
 27 30  1  0  0  0  0
 28 29  2  0  0  0  0
 30 31  1  0  0  0  0
 30 32  1  0  0  0  0
 30 33  1  0  0  0  0
 33 34  1  0  0  0  0
 33 35  1  0  0  0  0
 33 36  1  0  0  0  0
M  END
>  <UniqueID>
69

>  <SMILES>
O=NN(CCCl)/C(O)=N\[C@H]1[C@H](O)[C@@H](O)[C@H](CO)O[C@H]1O

>  <Energy>
32.865848877792

>  <Genealogy>
O=NN(CCCl)C(O)=N[C@@H]1C(O)O[C@@H](CO)[C@H](O)[C@H]1O (tautomer)
O=NN(CCCl)C(O)=N[C@H]1[C@H](O)[C@@H](O)[C@H](CO)O[C@H]1O (chirality)
O=NN(CCCl)/C(O)=N\[C@H]1[C@H](O)[C@@H](O)[C@H](CO)O[C@H]1O (cis-trans isomerization)
O=NN(CCCl)/C(O)=N\[C@H]1[C@H](O)[C@@H](O)[C@H](CO)O[C@H]1O (3D coordinates assigned)
O=NN(CCCl)/C(O)=N\[C@H]1[C@H](O)[C@@H](O)[C@H](CO)O[C@H]1O (nonaromatic ring conformer: 32.865848877792 kcal/mol)

$$$$
24847493
 OpenBabel03032110343D

 36 36  0  0  0  0  0  0  0  0999 V2000
    3.1499   -2.5798    0.1441 H   0  0  0  0  0  0  0  0  0  0  0  0
    2.3126   -2.0553    0.3566 O   0  0  0  0  0  0  0  0  0  0  0  0
    2.0227   -0.8210   -0.2312 C   0  0  0  0  0  0  0  0  0  0  0  0
    0.9022   -0.2229    0.0473 N   0  0  0  0  0  0  0  0  0  0  0  0
   -0.1430   -0.7550    0.9275 C   0  0  1  0  0  0  0  0  0  0  0  0
    0.3219   -1.3380    1.7548 H   0  0  0  0  0  0  0  0  0  0  0  0
   -0.9228    0.4103    1.5547 C   0  0  2  0  0  0  0  0  0  0  0  0
   -0.1847    1.1377    1.9692 H   0  0  0  0  0  0  0  0  0  0  0  0
   -1.7135   -0.0719    2.6113 O   0  0  0  0  0  0  0  0  0  0  0  0
   -1.9836    0.7156    3.1524 H   0  0  0  0  0  0  0  0  0  0  0  0
   -1.8024    1.1216    0.4992 C   0  0  1  0  0  0  0  0  0  0  0  0
   -2.5341    1.7835    1.0197 H   0  0  0  0  0  0  0  0  0  0  0  0
   -0.9940    1.9173   -0.3312 O   0  0  0  0  0  0  0  0  0  0  0  0
   -0.7429    2.7225    0.1929 H   0  0  0  0  0  0  0  0  0  0  0  0
   -2.5836    0.1155   -0.3871 C   0  0  2  0  0  0  0  0  0  0  0  0
   -2.9247    0.6876   -1.2788 H   0  0  0  0  0  0  0  0  0  0  0  0
   -3.8773   -0.4208    0.2608 C   0  0  0  0  0  0  0  0  0  0  0  0
   -3.6809   -0.8524    1.2639 H   0  0  0  0  0  0  0  0  0  0  0  0
   -4.2969   -1.2223   -0.3876 H   0  0  0  0  0  0  0  0  0  0  0  0
   -4.8154    0.6136    0.3796 O   0  0  0  0  0  0  0  0  0  0  0  0
   -5.6261    0.2069    0.7825 H   0  0  0  0  0  0  0  0  0  0  0  0
   -1.7582   -0.9272   -0.8924 O   0  0  0  0  0  0  0  0  0  0  0  0
   -1.1122   -1.6590    0.1356 C   0  0  1  0  0  0  0  0  0  0  0  0
   -1.8656   -2.0989    0.8290 H   0  0  0  0  0  0  0  0  0  0  0  0
   -0.4065   -2.7167   -0.4572 O   0  0  0  0  0  0  0  0  0  0  0  0
   -0.1789   -3.3561    0.2680 H   0  0  0  0  0  0  0  0  0  0  0  0
    2.9660   -0.1877   -1.1252 N   0  0  0  0  0  0  0  0  0  0  0  0
    2.5415    0.7373   -2.0989 N   0  0  0  0  0  0  0  0  0  0  0  0
    1.3337    0.9179   -2.3587 O   0  0  0  0  0  0  0  0  0  0  0  0
    4.4075   -0.4307   -1.0063 C   0  0  0  0  0  0  0  0  0  0  0  0
    4.6269   -1.5115   -1.1255 H   0  0  0  0  0  0  0  0  0  0  0  0
    4.9485    0.0903   -1.8267 H   0  0  0  0  0  0  0  0  0  0  0  0
    4.9493    0.0716    0.3332 C   0  0  0  0  0  0  0  0  0  0  0  0
    4.4412   -0.4408    1.1766 H   0  0  0  0  0  0  0  0  0  0  0  0
    6.0355   -0.1499    0.3955 H   0  0  0  0  0  0  0  0  0  0  0  0
    4.7203    1.8333    0.4925 Cl  0  0  0  0  0  0  0  0  0  0  0  0
  1  2  1  0  0  0  0
  2  3  1  0  0  0  0
  3  4  2  0  0  0  0
  3 27  1  0  0  0  0
  4  5  1  0  0  0  0
  5  6  1  1  0  0  0
  5  7  1  0  0  0  0
  7  8  1  1  0  0  0
  7  9  1  0  0  0  0
  7 11  1  0  0  0  0
  9 10  1  0  0  0  0
 11 12  1  1  0  0  0
 11 13  1  0  0  0  0
 11 15  1  0  0  0  0
 13 14  1  0  0  0  0
 15 16  1  6  0  0  0
 15 17  1  0  0  0  0
 15 22  1  0  0  0  0
 17 18  1  0  0  0  0
 17 19  1  0  0  0  0
 17 20  1  0  0  0  0
 20 21  1  0  0  0  0
 22 23  1  0  0  0  0
 23 24  1  1  0  0  0
 23 25  1  0  0  0  0
 23  5  1  0  0  0  0
 25 26  1  0  0  0  0
 27 28  1  0  0  0  0
 27 30  1  0  0  0  0
 28 29  2  0  0  0  0
 30 31  1  0  0  0  0
 30 32  1  0  0  0  0
 30 33  1  0  0  0  0
 33 34  1  0  0  0  0
 33 35  1  0  0  0  0
 33 36  1  0  0  0  0
M  END
>  <UniqueID>
70

>  <SMILES>
O=NN(CCCl)/C(O)=N\[C@H]1[C@H](O)[C@@H](O)[C@H](CO)O[C@H]1O

>  <Energy>
37.60914648261388

>  <Genealogy>
O=NN(CCCl)C(O)=N[C@@H]1C(O)O[C@@H](CO)[C@H](O)[C@H]1O (tautomer)
O=NN(CCCl)C(O)=N[C@H]1[C@H](O)[C@@H](O)[C@H](CO)O[C@H]1O (chirality)
O=NN(CCCl)/C(O)=N\[C@H]1[C@H](O)[C@@H](O)[C@H](CO)O[C@H]1O (cis-trans isomerization)
O=NN(CCCl)/C(O)=N\[C@H]1[C@H](O)[C@@H](O)[C@H](CO)O[C@H]1O (3D coordinates assigned)
O=NN(CCCl)/C(O)=N\[C@H]1[C@H](O)[C@@H](O)[C@H](CO)O[C@H]1O (nonaromatic ring conformer: 37.60914648261388 kcal/mol)

$$$$
24779679
 OpenBabel03032110343D

 43 43  0  0  0  0  0  0  0  0999 V2000
    2.6272    0.0775   -4.4407 H   0  0  0  0  0  0  0  0  0  0  0  0
    2.2825   -0.1976   -3.5288 O   0  0  0  0  0  0  0  0  0  0  0  0
    1.9369    0.7545   -2.5703 C   0  0  0  0  0  0  0  0  0  0  0  0
    1.4764    0.3927   -1.4107 N   0  0  0  0  0  0  0  0  0  0  0  0
    1.2632   -0.9933   -0.9872 C   0  0  1  0  0  0  0  0  0  0  0  0
    2.0706   -1.6441   -1.3949 H   0  0  0  0  0  0  0  0  0  0  0  0
    1.3383   -1.0627    0.5488 C   0  0  1  0  0  0  0  0  0  0  0  0
    2.3755   -0.7857    0.8405 H   0  0  0  0  0  0  0  0  0  0  0  0
    0.4385   -0.1217    1.1394 O   0  0  0  0  0  0  0  0  0  0  0  0
    0.4380    0.1898    2.5025 C   0  0  0  0  0  0  0  0  0  0  0  0
    1.2540   -0.3670    3.2860 O   0  0  0  0  0  0  0  0  0  0  0  0
   -0.4855    1.1554    3.0149 N   0  0  0  0  0  0  0  0  0  0  0  0
   -0.4197    1.4332    4.0203 H   0  0  0  0  0  0  0  0  0  0  0  0
   -1.4796    1.8165    2.1708 C   0  0  0  0  0  0  0  0  0  0  0  0
   -2.4040    1.9688    2.7684 H   0  0  0  0  0  0  0  0  0  0  0  0
   -1.7554    1.1763    1.3044 H   0  0  0  0  0  0  0  0  0  0  0  0
   -0.9773    3.1844    1.6947 C   0  0  0  0  0  0  0  0  0  0  0  0
   -0.6227    3.7789    2.5645 H   0  0  0  0  0  0  0  0  0  0  0  0
   -1.8258    3.7322    1.2305 H   0  0  0  0  0  0  0  0  0  0  0  0
    0.1443    3.0685    0.6641 C   0  0  0  0  0  0  0  0  0  0  0  0
    1.0480    2.6127    1.1194 H   0  0  0  0  0  0  0  0  0  0  0  0
    0.4139    4.0802    0.2949 H   0  0  0  0  0  0  0  0  0  0  0  0
   -0.1862    2.4544   -0.2004 H   0  0  0  0  0  0  0  0  0  0  0  0
    1.0920   -2.3787    1.0203 O   0  0  0  0  0  0  0  0  0  0  0  0
   -0.2195   -2.8129    0.6932 C   0  0  2  0  0  0  0  0  0  0  0  0
   -0.9801   -2.1264    1.1319 H   0  0  0  0  0  0  0  0  0  0  0  0
   -0.4428   -4.1949    1.3240 C   0  0  0  0  0  0  0  0  0  0  0  0
   -1.4668   -4.5695    1.0960 H   0  0  0  0  0  0  0  0  0  0  0  0
    0.2859   -4.9196    0.9017 H   0  0  0  0  0  0  0  0  0  0  0  0
   -0.2553   -4.1353    2.7124 O   0  0  0  0  0  0  0  0  0  0  0  0
   -1.0586   -3.6895    3.0890 H   0  0  0  0  0  0  0  0  0  0  0  0
   -0.4049   -2.8766   -0.8430 C   0  0  1  0  0  0  0  0  0  0  0  0
    0.3194   -3.6140   -1.2559 H   0  0  0  0  0  0  0  0  0  0  0  0
   -1.7014   -3.3048   -1.1825 O   0  0  0  0  0  0  0  0  0  0  0  0
   -2.3443   -2.6536   -0.7965 H   0  0  0  0  0  0  0  0  0  0  0  0
   -0.1068   -1.5017   -1.4728 C   0  0  2  0  0  0  0  0  0  0  0  0
   -0.8867   -0.7686   -1.1536 H   0  0  0  0  0  0  0  0  0  0  0  0
   -0.1009   -1.6133   -2.8725 O   0  0  0  0  0  0  0  0  0  0  0  0
   -1.0489   -1.6009   -3.1670 H   0  0  0  0  0  0  0  0  0  0  0  0
    2.0714    2.2096   -2.8840 C   0  0  0  0  0  0  0  0  0  0  0  0
    2.9952    2.3846   -3.4740 H   0  0  0  0  0  0  0  0  0  0  0  0
    2.1289    2.8084   -1.9496 H   0  0  0  0  0  0  0  0  0  0  0  0
    1.1926    2.5415   -3.4746 H   0  0  0  0  0  0  0  0  0  0  0  0
  1  2  1  0  0  0  0
  2  3  1  0  0  0  0
  3  4  2  0  0  0  0
  3 40  1  0  0  0  0
  4  5  1  0  0  0  0
  5  6  1  6  0  0  0
  5  7  1  0  0  0  0
  7  8  1  1  0  0  0
  7  9  1  0  0  0  0
  7 24  1  0  0  0  0
  9 10  1  0  0  0  0
 10 11  2  0  0  0  0
 10 12  1  0  0  0  0
 12 13  1  0  0  0  0
 12 14  1  0  0  0  0
 14 15  1  0  0  0  0
 14 16  1  0  0  0  0
 14 17  1  0  0  0  0
 17 18  1  0  0  0  0
 17 19  1  0  0  0  0
 17 20  1  0  0  0  0
 20 21  1  0  0  0  0
 20 22  1  0  0  0  0
 20 23  1  0  0  0  0
 24 25  1  0  0  0  0
 25 26  1  1  0  0  0
 25 27  1  0  0  0  0
 25 32  1  0  0  0  0
 27 28  1  0  0  0  0
 27 29  1  0  0  0  0
 27 30  1  0  0  0  0
 30 31  1  0  0  0  0
 32 33  1  6  0  0  0
 32 34  1  0  0  0  0
 32 36  1  0  0  0  0
 34 35  1  0  0  0  0
 36 37  1  1  0  0  0
 36 38  1  0  0  0  0
 36  5  1  0  0  0  0
 38 39  1  0  0  0  0
 40 41  1  0  0  0  0
 40 42  1  0  0  0  0
 40 43  1  0  0  0  0
M  END
>  <UniqueID>
71

>  <SMILES>
CCCNC(=O)O[C@H]1O[C@H](CO)[C@@H](O)[C@H](O)[C@H]1/N=C(/C)O

>  <Energy>
27.800499714614183

>  <Genealogy>
CCCNC(=O)O[C@H]1O[C@H](CO)[C@@H](O)[C@H](O)[C@H]1N=C(C)O (tautomer)
CCCNC(=O)O[C@H]1O[C@H](CO)[C@@H](O)[C@H](O)[C@H]1/N=C(/C)O (cis-trans isomerization)
CCCNC(=O)O[C@H]1O[C@H](CO)[C@@H](O)[C@H](O)[C@H]1/N=C(/C)O (3D coordinates assigned)
CCCNC(=O)O[C@H]1O[C@H](CO)[C@@H](O)[C@H](O)[C@H]1/N=C(/C)O (nonaromatic ring conformer: 27.800499714614183 kcal/mol)

$$$$
24779679
 OpenBabel03032110343D

 43 43  0  0  0  0  0  0  0  0999 V2000
    1.0944   -5.0670   -1.4440 H   0  0  0  0  0  0  0  0  0  0  0  0
    1.0623   -4.2573   -0.8362 O   0  0  0  0  0  0  0  0  0  0  0  0
   -0.1340   -3.5820   -0.5958 C   0  0  0  0  0  0  0  0  0  0  0  0
   -0.1677   -2.5577    0.2032 N   0  0  0  0  0  0  0  0  0  0  0  0
    1.0033   -1.9987    0.8827 C   0  0  1  0  0  0  0  0  0  0  0  0
    1.6172   -2.8257    1.3084 H   0  0  0  0  0  0  0  0  0  0  0  0
    1.8697   -1.1908   -0.1059 C   0  0  1  0  0  0  0  0  0  0  0  0
    2.2708   -1.9006   -0.8611 H   0  0  0  0  0  0  0  0  0  0  0  0
    1.0825   -0.2105   -0.7886 O   0  0  0  0  0  0  0  0  0  0  0  0
    1.5760    0.5646   -1.8422 C   0  0  0  0  0  0  0  0  0  0  0  0
    2.7585    0.4071   -2.2539 O   0  0  0  0  0  0  0  0  0  0  0  0
    0.7258    1.5424   -2.4476 N   0  0  0  0  0  0  0  0  0  0  0  0
   -0.2509    1.6329   -2.0869 H   0  0  0  0  0  0  0  0  0  0  0  0
    1.1914    2.3860   -3.5492 C   0  0  0  0  0  0  0  0  0  0  0  0
    1.4413    1.7382   -4.4171 H   0  0  0  0  0  0  0  0  0  0  0  0
    2.1143    2.9263   -3.2443 H   0  0  0  0  0  0  0  0  0  0  0  0
    0.1195    3.3952   -3.9804 C   0  0  0  0  0  0  0  0  0  0  0  0
   -0.8385    2.8677   -4.1798 H   0  0  0  0  0  0  0  0  0  0  0  0
    0.4447    3.8792   -4.9267 H   0  0  0  0  0  0  0  0  0  0  0  0
   -0.1007    4.4830   -2.9301 C   0  0  0  0  0  0  0  0  0  0  0  0
   -0.4622    4.0432   -1.9771 H   0  0  0  0  0  0  0  0  0  0  0  0
   -0.8631    5.2021   -3.2967 H   0  0  0  0  0  0  0  0  0  0  0  0
    0.8447    5.0352   -2.7425 H   0  0  0  0  0  0  0  0  0  0  0  0
    2.9794   -0.5976    0.5519 O   0  0  0  0  0  0  0  0  0  0  0  0
    2.5701    0.3370    1.5392 C   0  0  2  0  0  0  0  0  0  0  0  0
    1.9573    1.1433    1.0742 H   0  0  0  0  0  0  0  0  0  0  0  0
    3.8355    0.9989    2.1102 C   0  0  0  0  0  0  0  0  0  0  0  0
    4.4247    0.2535    2.6860 H   0  0  0  0  0  0  0  0  0  0  0  0
    4.4805    1.3563    1.2749 H   0  0  0  0  0  0  0  0  0  0  0  0
    3.5142    2.0732    2.9526 O   0  0  0  0  0  0  0  0  0  0  0  0
    3.2311    2.8213    2.3645 H   0  0  0  0  0  0  0  0  0  0  0  0
    1.7516   -0.3709    2.6509 C   0  0  1  0  0  0  0  0  0  0  0  0
    2.4027   -1.1288    3.1411 H   0  0  0  0  0  0  0  0  0  0  0  0
    1.3274    0.5389    3.6363 O   0  0  0  0  0  0  0  0  0  0  0  0
    0.7609    1.2223    3.1909 H   0  0  0  0  0  0  0  0  0  0  0  0
    0.5403   -1.0989    2.0360 C   0  0  2  0  0  0  0  0  0  0  0  0
   -0.1791   -0.3468    1.6304 H   0  0  0  0  0  0  0  0  0  0  0  0
   -0.0927   -1.8867    3.0117 O   0  0  0  0  0  0  0  0  0  0  0  0
   -0.6554   -1.2753    3.5550 H   0  0  0  0  0  0  0  0  0  0  0  0
   -1.3994   -4.0624   -1.2295 C   0  0  0  0  0  0  0  0  0  0  0  0
   -1.7971   -4.9227   -0.6522 H   0  0  0  0  0  0  0  0  0  0  0  0
   -2.1603   -3.2530   -1.2484 H   0  0  0  0  0  0  0  0  0  0  0  0
   -1.1994   -4.3843   -2.2727 H   0  0  0  0  0  0  0  0  0  0  0  0
  1  2  1  0  0  0  0
  2  3  1  0  0  0  0
  3  4  2  0  0  0  0
  3 40  1  0  0  0  0
  4  5  1  0  0  0  0
  5  6  1  1  0  0  0
  5  7  1  0  0  0  0
  7  8  1  6  0  0  0
  7  9  1  0  0  0  0
  7 24  1  0  0  0  0
  9 10  1  0  0  0  0
 10 11  2  0  0  0  0
 10 12  1  0  0  0  0
 12 13  1  0  0  0  0
 12 14  1  0  0  0  0
 14 15  1  0  0  0  0
 14 16  1  0  0  0  0
 14 17  1  0  0  0  0
 17 18  1  0  0  0  0
 17 19  1  0  0  0  0
 17 20  1  0  0  0  0
 20 21  1  0  0  0  0
 20 22  1  0  0  0  0
 20 23  1  0  0  0  0
 24 25  1  0  0  0  0
 25 26  1  6  0  0  0
 25 27  1  0  0  0  0
 25 32  1  0  0  0  0
 27 28  1  0  0  0  0
 27 29  1  0  0  0  0
 27 30  1  0  0  0  0
 30 31  1  0  0  0  0
 32 33  1  1  0  0  0
 32 34  1  0  0  0  0
 32 36  1  0  0  0  0
 34 35  1  0  0  0  0
 36 37  1  6  0  0  0
 36 38  1  0  0  0  0
 36  5  1  0  0  0  0
 38 39  1  0  0  0  0
 40 41  1  0  0  0  0
 40 42  1  0  0  0  0
 40 43  1  0  0  0  0
M  END
>  <UniqueID>
72

>  <SMILES>
CCCNC(=O)O[C@H]1O[C@H](CO)[C@@H](O)[C@H](O)[C@H]1/N=C(\C)O

>  <Energy>
29.194772262382738

>  <Genealogy>
CCCNC(=O)O[C@H]1O[C@H](CO)[C@@H](O)[C@H](O)[C@H]1N=C(C)O (tautomer)
CCCNC(=O)O[C@H]1O[C@H](CO)[C@@H](O)[C@H](O)[C@H]1/N=C(\C)O (cis-trans isomerization)
CCCNC(=O)O[C@H]1O[C@H](CO)[C@@H](O)[C@H](O)[C@H]1/N=C(\C)O (3D coordinates assigned)
CCCNC(=O)O[C@H]1O[C@H](CO)[C@@H](O)[C@H](O)[C@H]1/N=C(\C)O (nonaromatic ring conformer: 29.194772262382738 kcal/mol)

$$$$
22833605
 OpenBabel03032110343D

 33 33  0  0  0  0  0  0  0  0999 V2000
   -3.1453    0.0220    1.4249 C   0  0  0  0  0  0  0  0  0  0  0  0
   -2.4035    0.5023    0.1750 C   0  0  1  0  0  0  0  0  0  0  0  0
   -1.1980   -0.2262    0.0138 O   0  0  0  0  0  0  0  0  0  0  0  0
   -0.1053    0.3772    0.6970 C   0  0  2  0  0  0  0  0  0  0  0  0
    0.7959    1.1203   -0.3091 C   0  0  2  0  0  0  0  0  0  0  0  0
    0.0158    2.0098   -1.0685 O   0  0  0  0  0  0  0  0  0  0  0  0
    1.5064    0.0986   -1.2334 C   0  0  1  0  0  0  0  0  0  0  0  0
    2.4386    0.7877   -2.2415 C   0  0  0  0  0  0  0  0  0  0  0  0
    3.4872    1.4513   -1.5857 O   0  0  0  0  0  0  0  0  0  0  0  0
    2.2735   -0.8135   -0.4645 O   0  0  0  0  0  0  0  0  0  0  0  0
    1.4352   -1.6057    0.3603 C   0  0  1  0  0  0  0  0  0  0  0  0
    2.2263   -2.5503    1.0290 O   0  0  0  0  0  0  0  0  0  0  0  0
    0.7193   -0.7162    1.4040 C   0  0  2  0  0  0  0  0  0  0  0  0
   -0.1405   -1.5053    2.2919 N   0  0  0  0  0  0  0  0  0  0  0  0
   -3.2619    0.2700   -1.0318 C   0  0  0  0  0  0  0  0  0  0  0  0
   -3.9150    1.2204   -1.5379 O   0  0  0  0  0  0  0  0  0  0  0  0
   -3.3754   -1.0048   -1.5736 O   0  5  0  0  0  0  0  0  0  0  0  0
   -3.3317   -1.0722    1.3698 H   0  0  0  0  0  0  0  0  0  0  0  0
   -2.5435    0.2334    2.3332 H   0  0  0  0  0  0  0  0  0  0  0  0
   -4.1172    0.5517    1.5232 H   0  0  0  0  0  0  0  0  0  0  0  0
   -2.2285    1.6017    0.2558 H   0  0  0  0  0  0  0  0  0  0  0  0
   -0.4260    1.1000    1.4861 H   0  0  0  0  0  0  0  0  0  0  0  0
    1.5633    1.6806    0.2781 H   0  0  0  0  0  0  0  0  0  0  0  0
    0.5734    2.8110   -1.2482 H   0  0  0  0  0  0  0  0  0  0  0  0
    0.7423   -0.4493   -1.8339 H   0  0  0  0  0  0  0  0  0  0  0  0
    2.8788    0.0126   -2.9045 H   0  0  0  0  0  0  0  0  0  0  0  0
    1.8669    1.4840   -2.8975 H   0  0  0  0  0  0  0  0  0  0  0  0
    3.1903    2.3870   -1.4393 H   0  0  0  0  0  0  0  0  0  0  0  0
    0.6791   -2.1503   -0.2562 H   0  0  0  0  0  0  0  0  0  0  0  0
    2.5802   -3.1633    0.3330 H   0  0  0  0  0  0  0  0  0  0  0  0
    1.4960   -0.2136    2.0252 H   0  0  0  0  0  0  0  0  0  0  0  0
    0.4632   -2.1035    2.9012 H   0  0  0  0  0  0  0  0  0  0  0  0
   -0.7402   -2.1475    1.7240 H   0  0  0  0  0  0  0  0  0  0  0  0
  1  2  1  0  0  0  0
  1 18  1  0  0  0  0
  1 19  1  0  0  0  0
  1 20  1  0  0  0  0
  2  3  1  0  0  0  0
  2 15  1  0  0  0  0
  2 21  1  1  0  0  0
  3  4  1  0  0  0  0
  4  5  1  0  0  0  0
  4 22  1  1  0  0  0
  5  6  1  0  0  0  0
  5  7  1  0  0  0  0
  5 23  1  1  0  0  0
  6 24  1  0  0  0  0
  7  8  1  0  0  0  0
  7 10  1  0  0  0  0
  7 25  1  6  0  0  0
  8  9  1  0  0  0  0
  8 26  1  0  0  0  0
  8 27  1  0  0  0  0
  9 28  1  0  0  0  0
 10 11  1  0  0  0  0
 11 12  1  0  0  0  0
 11 13  1  0  0  0  0
 11 29  1  6  0  0  0
 12 30  1  0  0  0  0
 13 14  1  0  0  0  0
 13  4  1  0  0  0  0
 13 31  1  1  0  0  0
 14 32  1  0  0  0  0
 14 33  1  0  0  0  0
 15 16  2  0  0  0  0
 15 17  1  0  0  0  0
M  CHG  1  17  -1
M  END
>  <UniqueID>
73

>  <SMILES>
C[C@@H](O[C@@H]1[C@H](O)[C@@H](CO)O[C@@H](O)[C@@H]1N)C(=O)[O-]

>  <Energy>
30.981867357776895

>  <Genealogy>
C[C@@H](O[C@@H]1[C@H](O)[C@@H](CO)O[C@@H](O)[C@@H]1N)C(=O)[O-] (protonated)
C[C@@H](O[C@@H]1[C@H](O)[C@@H](CO)O[C@@H](O)[C@@H]1N)C(=O)[O-] (3D coordinates assigned)
C[C@@H](O[C@@H]1[C@H](O)[C@@H](CO)O[C@@H](O)[C@@H]1N)C(=O)[O-] (nonaromatic ring conformer: 30.981867357776895 kcal/mol)

$$$$
22833605
 OpenBabel03032110343D

 34 34  0  0  0  0  0  0  0  0999 V2000
    1.8733   -2.6660   -1.7337 C   0  0  0  0  0  0  0  0  0  0  0  0
    0.4552   -2.2479   -2.1292 C   0  0  1  0  0  0  0  0  0  0  0  0
    0.1222   -1.0109   -1.5200 O   0  0  0  0  0  0  0  0  0  0  0  0
   -0.4986   -1.1801   -0.2511 C   0  0  2  0  0  0  0  0  0  0  0  0
   -2.0273   -1.0243   -0.3870 C   0  0  2  0  0  0  0  0  0  0  0  0
   -2.5047   -1.9021   -1.3758 O   0  0  0  0  0  0  0  0  0  0  0  0
   -2.3774    0.4417   -0.7502 C   0  0  1  0  0  0  0  0  0  0  0  0
   -3.8951    0.6498   -0.8804 C   0  0  0  0  0  0  0  0  0  0  0  0
   -4.5600    0.3059    0.3064 O   0  0  0  0  0  0  0  0  0  0  0  0
   -1.8850    1.3293    0.2400 O   0  0  0  0  0  0  0  0  0  0  0  0
   -0.4676    1.2960    0.2881 C   0  0  1  0  0  0  0  0  0  0  0  0
   -0.0167    2.2754    1.1868 O   0  0  0  0  0  0  0  0  0  0  0  0
    0.0320   -0.1052    0.7248 C   0  0  2  0  0  0  0  0  0  0  0  0
    1.4985   -0.1439    0.8097 N   0  3  0  0  0  0  0  0  0  0  0  0
    0.3786   -2.0837   -3.6174 C   0  0  0  0  0  0  0  0  0  0  0  0
    0.8662   -1.0630   -4.1719 O   0  0  0  0  0  0  0  0  0  0  0  0
   -0.1977   -3.0782   -4.3978 O   0  5  0  0  0  0  0  0  0  0  0  0
    2.1685   -3.5898   -2.2763 H   0  0  0  0  0  0  0  0  0  0  0  0
    2.5977   -1.8575   -1.9714 H   0  0  0  0  0  0  0  0  0  0  0  0
    1.9197   -2.8779   -0.6457 H   0  0  0  0  0  0  0  0  0  0  0  0
   -0.2502   -3.0664   -1.8525 H   0  0  0  0  0  0  0  0  0  0  0  0
   -0.2821   -2.1740    0.2104 H   0  0  0  0  0  0  0  0  0  0  0  0
   -2.4806   -1.2745    0.6030 H   0  0  0  0  0  0  0  0  0  0  0  0
   -3.4053   -2.2060   -1.0896 H   0  0  0  0  0  0  0  0  0  0  0  0
   -1.9379    0.6926   -1.7444 H   0  0  0  0  0  0  0  0  0  0  0  0
   -4.1060    1.7108   -1.1475 H   0  0  0  0  0  0  0  0  0  0  0  0
   -4.2926    0.0246   -1.7076 H   0  0  0  0  0  0  0  0  0  0  0  0
   -4.4375    1.0655    0.9335 H   0  0  0  0  0  0  0  0  0  0  0  0
   -0.0443    1.5518   -0.7104 H   0  0  0  0  0  0  0  0  0  0  0  0
   -0.4819    2.1173    2.0498 H   0  0  0  0  0  0  0  0  0  0  0  0
   -0.3839   -0.3235    1.7358 H   0  0  0  0  0  0  0  0  0  0  0  0
    1.8292    0.5152    1.5510 H   0  0  0  0  0  0  0  0  0  0  0  0
    1.8132   -1.1055    1.0733 H   0  0  0  0  0  0  0  0  0  0  0  0
    1.9331    0.1256   -0.1027 H   0  0  0  0  0  0  0  0  0  0  0  0
  1  2  1  0  0  0  0
  1 18  1  0  0  0  0
  1 19  1  0  0  0  0
  1 20  1  0  0  0  0
  2  3  1  0  0  0  0
  2 15  1  0  0  0  0
  2 21  1  1  0  0  0
  3  4  1  0  0  0  0
  4  5  1  0  0  0  0
  4 22  1  1  0  0  0
  5  6  1  0  0  0  0
  5  7  1  0  0  0  0
  5 23  1  1  0  0  0
  6 24  1  0  0  0  0
  7  8  1  0  0  0  0
  7 10  1  0  0  0  0
  7 25  1  6  0  0  0
  8  9  1  0  0  0  0
  8 26  1  0  0  0  0
  8 27  1  0  0  0  0
  9 28  1  0  0  0  0
 10 11  1  0  0  0  0
 11 12  1  0  0  0  0
 11 13  1  0  0  0  0
 11 29  1  6  0  0  0
 12 30  1  0  0  0  0
 13 14  1  0  0  0  0
 13  4  1  0  0  0  0
 13 31  1  1  0  0  0
 14 32  1  0  0  0  0
 14 33  1  0  0  0  0
 14 34  1  0  0  0  0
 15 16  2  0  0  0  0
 15 17  1  0  0  0  0
M  CHG  2  14   1  17  -1
M  END
>  <UniqueID>
74

>  <SMILES>
C[C@@H](O[C@@H]1[C@H](O)[C@@H](CO)O[C@@H](O)[C@@H]1[NH3+])C(=O)[O-]

>  <Energy>
32.414199419992485

>  <Genealogy>
C[C@@H](O[C@@H]1[C@H](O)[C@@H](CO)O[C@@H](O)[C@@H]1[NH3+])C(=O)[O-] (protonated)
C[C@@H](O[C@@H]1[C@H](O)[C@@H](CO)O[C@@H](O)[C@@H]1[NH3+])C(=O)[O-] (3D coordinates assigned)
C[C@@H](O[C@@H]1[C@H](O)[C@@H](CO)O[C@@H](O)[C@@H]1[NH3+])C(=O)[O-] (nonaromatic ring conformer: 32.414199419992485 kcal/mol)

$$$$
16738680
 OpenBabel03032110343D

 38 38  0  0  0  0  0  0  0  0999 V2000
   -2.0233   -0.7829    4.4625 H   0  0  0  0  0  0  0  0  0  0  0  0
   -1.2453   -1.2868    4.8649 O   0  0  0  0  0  0  0  0  0  0  0  0
   -0.0577   -1.5612    4.1808 C   0  0  0  0  0  0  0  0  0  0  0  0
    0.1448   -1.1890    2.9487 N   0  0  0  0  0  0  0  0  0  0  0  0
   -0.7612   -0.4163    2.0946 C   0  0  1  0  0  0  0  0  0  0  0  0
   -1.8188   -0.7041    2.2823 H   0  0  0  0  0  0  0  0  0  0  0  0
   -0.5729    1.0969    2.3386 C   0  0  2  0  0  0  0  0  0  0  0  0
    0.4975    1.3697    2.1664 H   0  0  0  0  0  0  0  0  0  0  0  0
   -0.8957    1.4023    3.6672 O   0  0  0  0  0  0  0  0  0  0  0  0
   -0.6558    2.3559    3.8029 H   0  0  0  0  0  0  0  0  0  0  0  0
   -1.4249    1.8385    1.4829 O   0  0  0  0  0  0  0  0  0  0  0  0
   -1.0460    1.6641    0.1281 C   0  0  2  0  0  0  0  0  0  0  0  0
    0.0234    1.9470   -0.0195 H   0  0  0  0  0  0  0  0  0  0  0  0
   -1.8929    2.6083   -0.7382 C   0  0  0  0  0  0  0  0  0  0  0  0
   -1.6233    2.5024   -1.8138 H   0  0  0  0  0  0  0  0  0  0  0  0
   -2.9681    2.3489   -0.6309 H   0  0  0  0  0  0  0  0  0  0  0  0
   -1.7150    3.9382   -0.3307 O   0  0  0  0  0  0  0  0  0  0  0  0
   -0.8269    4.2233   -0.6709 H   0  0  0  0  0  0  0  0  0  0  0  0
   -1.2543    0.1941   -0.3011 C   0  0  1  0  0  0  0  0  0  0  0  0
   -2.3402   -0.0510   -0.2071 H   0  0  0  0  0  0  0  0  0  0  0  0
   -0.8317    0.0284   -1.6309 O   0  0  0  0  0  0  0  0  0  0  0  0
   -1.3354   -0.7432   -2.0001 H   0  0  0  0  0  0  0  0  0  0  0  0
   -0.4462   -0.7386    0.6233 C   0  0  2  0  0  0  0  0  0  0  0  0
    0.6434   -0.5363    0.4662 H   0  0  0  0  0  0  0  0  0  0  0  0
   -0.8103   -2.0886    0.3673 O   0  0  0  0  0  0  0  0  0  0  0  0
    0.1942   -2.7836   -0.3521 C   0  0  1  0  0  0  0  0  0  0  0  0
    0.6748   -2.1401   -1.1262 H   0  0  0  0  0  0  0  0  0  0  0  0
    1.2436   -3.3024    0.5907 C   0  0  0  0  0  0  0  0  0  0  0  0
    0.9151   -3.9855    1.5968 O   0  0  0  0  0  0  0  0  0  0  0  0
    2.5858   -3.0393    0.3485 O   0  5  0  0  0  0  0  0  0  0  0  0
   -0.4538   -3.9486   -1.0963 C   0  0  0  0  0  0  0  0  0  0  0  0
   -1.2085   -3.5607   -1.8131 H   0  0  0  0  0  0  0  0  0  0  0  0
    0.3126   -4.5173   -1.6660 H   0  0  0  0  0  0  0  0  0  0  0  0
   -0.9616   -4.6344   -0.3843 H   0  0  0  0  0  0  0  0  0  0  0  0
    1.0011   -2.3479    4.8774 C   0  0  0  0  0  0  0  0  0  0  0  0
    2.0061   -1.9503    4.6208 H   0  0  0  0  0  0  0  0  0  0  0  0
    0.8626   -2.2828    5.9770 H   0  0  0  0  0  0  0  0  0  0  0  0
    0.9374   -3.4112    4.5659 H   0  0  0  0  0  0  0  0  0  0  0  0
  1  2  1  0  0  0  0
  2  3  1  0  0  0  0
  3  4  2  0  0  0  0
  3 35  1  0  0  0  0
  4  5  1  0  0  0  0
  5  6  1  1  0  0  0
  5  7  1  0  0  0  0
  7  8  1  6  0  0  0
  7  9  1  0  0  0  0
  7 11  1  0  0  0  0
  9 10  1  0  0  0  0
 11 12  1  0  0  0  0
 12 13  1  6  0  0  0
 12 14  1  0  0  0  0
 12 19  1  0  0  0  0
 14 15  1  0  0  0  0
 14 16  1  0  0  0  0
 14 17  1  0  0  0  0
 17 18  1  0  0  0  0
 19 20  1  1  0  0  0
 19 21  1  0  0  0  0
 19 23  1  0  0  0  0
 21 22  1  0  0  0  0
 23 24  1  6  0  0  0
 23 25  1  0  0  0  0
 23  5  1  0  0  0  0
 25 26  1  0  0  0  0
 26 27  1  6  0  0  0
 26 28  1  0  0  0  0
 26 31  1  0  0  0  0
 28 29  2  0  0  0  0
 28 30  1  0  0  0  0
 31 32  1  0  0  0  0
 31 33  1  0  0  0  0
 31 34  1  0  0  0  0
 35 36  1  0  0  0  0
 35 37  1  0  0  0  0
 35 38  1  0  0  0  0
M  CHG  1  30  -1
M  END
>  <UniqueID>
75

>  <SMILES>
C/C(O)=N/[C@H]1[C@H](O)O[C@H](CO)[C@@H](O)[C@@H]1O[C@H](C)C(=O)[O-]

>  <Energy>
33.33869520494756

>  <Genealogy>
CC(O)=N[C@H]1C(O)O[C@H](CO)[C@@H](O)[C@@H]1O[C@H](C)C(=O)[O-] (tautomer)
CC(O)=N[C@H]1[C@H](O)O[C@H](CO)[C@@H](O)[C@@H]1O[C@H](C)C(=O)[O-] (chirality)
C/C(O)=N/[C@H]1[C@H](O)O[C@H](CO)[C@@H](O)[C@@H]1O[C@H](C)C(=O)[O-] (cis-trans isomerization)
C/C(O)=N/[C@H]1[C@H](O)O[C@H](CO)[C@@H](O)[C@@H]1O[C@H](C)C(=O)[O-] (3D coordinates assigned)
C/C(O)=N/[C@H]1[C@H](O)O[C@H](CO)[C@@H](O)[C@@H]1O[C@H](C)C(=O)[O-] (nonaromatic ring conformer: 33.33869520494756 kcal/mol)

$$$$
16738680
 OpenBabel03032110343D

 38 38  0  0  0  0  0  0  0  0999 V2000
    2.6406    3.4887   -0.8677 H   0  0  0  0  0  0  0  0  0  0  0  0
    2.1071    3.7582   -0.0495 O   0  0  0  0  0  0  0  0  0  0  0  0
    1.0555    2.9729    0.4140 C   0  0  0  0  0  0  0  0  0  0  0  0
    0.7639    1.8702   -0.2168 N   0  0  0  0  0  0  0  0  0  0  0  0
   -0.3035    0.9195    0.1128 C   0  0  1  0  0  0  0  0  0  0  0  0
   -0.6383    1.0394    1.1668 H   0  0  0  0  0  0  0  0  0  0  0  0
   -1.5055    1.1379   -0.8265 C   0  0  2  0  0  0  0  0  0  0  0  0
   -1.1696    1.0447   -1.8886 H   0  0  0  0  0  0  0  0  0  0  0  0
   -2.0117    2.4304   -0.6350 O   0  0  0  0  0  0  0  0  0  0  0  0
   -2.7085    2.5649   -1.3291 H   0  0  0  0  0  0  0  0  0  0  0  0
   -2.5286    0.2004   -0.5386 O   0  0  0  0  0  0  0  0  0  0  0  0
   -2.0969   -1.1169   -0.8372 C   0  0  2  0  0  0  0  0  0  0  0  0
   -1.7673   -1.1895   -1.9009 H   0  0  0  0  0  0  0  0  0  0  0  0
   -3.2884   -2.0663   -0.6662 C   0  0  0  0  0  0  0  0  0  0  0  0
   -3.6324   -2.0491    0.3928 H   0  0  0  0  0  0  0  0  0  0  0  0
   -2.9859   -3.1042   -0.9301 H   0  0  0  0  0  0  0  0  0  0  0  0
   -4.3348   -1.6654   -1.5069 O   0  0  0  0  0  0  0  0  0  0  0  0
   -5.0774   -2.3041   -1.3464 H   0  0  0  0  0  0  0  0  0  0  0  0
   -0.9297   -1.5194    0.0960 C   0  0  1  0  0  0  0  0  0  0  0  0
   -1.2836   -1.4900    1.1560 H   0  0  0  0  0  0  0  0  0  0  0  0
   -0.4620   -2.8032   -0.2355 O   0  0  0  0  0  0  0  0  0  0  0  0
   -0.9119   -3.4461    0.3725 H   0  0  0  0  0  0  0  0  0  0  0  0
    0.2267   -0.5173   -0.0532 C   0  0  2  0  0  0  0  0  0  0  0  0
    0.6308   -0.6370   -1.0894 H   0  0  0  0  0  0  0  0  0  0  0  0
    1.1868   -0.7865    0.9587 O   0  0  0  0  0  0  0  0  0  0  0  0
    2.5167   -0.7279    0.4706 C   0  0  1  0  0  0  0  0  0  0  0  0
    2.6378    0.0075   -0.3599 H   0  0  0  0  0  0  0  0  0  0  0  0
    3.4128   -0.2926    1.5906 C   0  0  0  0  0  0  0  0  0  0  0  0
    4.3068    0.5712    1.3889 O   0  0  0  0  0  0  0  0  0  0  0  0
    3.2835   -0.8639    2.8510 O   0  5  0  0  0  0  0  0  0  0  0  0
    2.9529   -2.1084   -0.0254 C   0  0  0  0  0  0  0  0  0  0  0  0
    2.3299   -2.4178   -0.8904 H   0  0  0  0  0  0  0  0  0  0  0  0
    4.0140   -2.0819   -0.3544 H   0  0  0  0  0  0  0  0  0  0  0  0
    2.8407   -2.8648    0.7809 H   0  0  0  0  0  0  0  0  0  0  0  0
    0.3184    3.4215    1.6413 C   0  0  0  0  0  0  0  0  0  0  0  0
    0.4976    2.7060    2.4709 H   0  0  0  0  0  0  0  0  0  0  0  0
    0.6824    4.4216    1.9572 H   0  0  0  0  0  0  0  0  0  0  0  0
   -0.7690    3.4972    1.4367 H   0  0  0  0  0  0  0  0  0  0  0  0
  1  2  1  0  0  0  0
  2  3  1  0  0  0  0
  3  4  2  0  0  0  0
  3 35  1  0  0  0  0
  4  5  1  0  0  0  0
  5  6  1  1  0  0  0
  5  7  1  0  0  0  0
  7  8  1  6  0  0  0
  7  9  1  0  0  0  0
  7 11  1  0  0  0  0
  9 10  1  0  0  0  0
 11 12  1  0  0  0  0
 12 13  1  6  0  0  0
 12 14  1  0  0  0  0
 12 19  1  0  0  0  0
 14 15  1  0  0  0  0
 14 16  1  0  0  0  0
 14 17  1  0  0  0  0
 17 18  1  0  0  0  0
 19 20  1  1  0  0  0
 19 21  1  0  0  0  0
 19 23  1  0  0  0  0
 21 22  1  0  0  0  0
 23 24  1  6  0  0  0
 23 25  1  0  0  0  0
 23  5  1  0  0  0  0
 25 26  1  0  0  0  0
 26 27  1  6  0  0  0
 26 28  1  0  0  0  0
 26 31  1  0  0  0  0
 28 29  2  0  0  0  0
 28 30  1  0  0  0  0
 31 32  1  0  0  0  0
 31 33  1  0  0  0  0
 31 34  1  0  0  0  0
 35 36  1  0  0  0  0
 35 37  1  0  0  0  0
 35 38  1  0  0  0  0
M  CHG  1  30  -1
M  END
>  <UniqueID>
76

>  <SMILES>
C/C(O)=N\[C@H]1[C@H](O)O[C@H](CO)[C@@H](O)[C@@H]1O[C@H](C)C(=O)[O-]

>  <Energy>
33.798908469328566

>  <Genealogy>
CC(O)=N[C@H]1C(O)O[C@H](CO)[C@@H](O)[C@@H]1O[C@H](C)C(=O)[O-] (tautomer)
CC(O)=N[C@H]1[C@H](O)O[C@H](CO)[C@@H](O)[C@@H]1O[C@H](C)C(=O)[O-] (chirality)
C/C(O)=N\[C@H]1[C@H](O)O[C@H](CO)[C@@H](O)[C@@H]1O[C@H](C)C(=O)[O-] (cis-trans isomerization)
C/C(O)=N\[C@H]1[C@H](O)O[C@H](CO)[C@@H](O)[C@@H]1O[C@H](C)C(=O)[O-] (3D coordinates assigned)
C/C(O)=N\[C@H]1[C@H](O)O[C@H](CO)[C@@H](O)[C@@H]1O[C@H](C)C(=O)[O-] (nonaromatic ring conformer: 33.798908469328566 kcal/mol)

$$$$
12917651
 OpenBabel03032110343D

 38 38  0  0  0  0  0  0  0  0999 V2000
    2.4185   -1.6629    2.0100 C   0  0  0  0  0  0  0  0  0  0  0  0
    1.7284   -0.3599    1.7719 C   0  0  0  0  0  0  0  0  0  0  0  0
    1.3768    0.3472    2.7547 O   0  0  0  0  0  0  0  0  0  0  0  0
    1.4596    0.0690    0.4297 N   0  0  0  0  0  0  0  0  0  0  0  0
    0.6800    1.2714    0.1194 C   0  0  1  0  0  0  0  0  0  0  0  0
    1.3362    2.0345   -1.0466 C   0  0  2  0  0  0  0  0  0  0  0  0
    2.6289    2.4205   -0.6656 O   0  0  0  0  0  0  0  0  0  0  0  0
    0.5847    3.1955   -1.3557 O   0  0  0  0  0  0  0  0  0  0  0  0
   -0.6955    2.8419   -1.8522 C   0  0  2  0  0  0  0  0  0  0  0  0
   -1.4039    4.1212   -2.3223 C   0  0  0  0  0  0  0  0  0  0  0  0
   -0.6421    4.7699   -3.3046 O   0  0  0  0  0  0  0  0  0  0  0  0
   -1.5196    2.1329   -0.7528 C   0  0  1  0  0  0  0  0  0  0  0  0
   -2.7694    1.7534   -1.2708 O   0  0  0  0  0  0  0  0  0  0  0  0
   -0.7653    0.8858   -0.2536 C   0  0  2  0  0  0  0  0  0  0  0  0
   -1.4330    0.3826    0.8953 O   0  0  0  0  0  0  0  0  0  0  0  0
   -1.5844   -1.0271    0.8580 C   0  0  2  0  0  0  0  0  0  0  0  0
   -2.8783   -1.4005    0.1299 C   0  0  0  0  0  0  0  0  0  0  0  0
   -1.6443   -1.5354    2.2671 C   0  0  0  0  0  0  0  0  0  0  0  0
   -1.0640   -2.6086    2.5793 O   0  0  0  0  0  0  0  0  0  0  0  0
   -2.3774   -0.8483    3.2273 O   0  5  0  0  0  0  0  0  0  0  0  0
    1.8028   -2.4885    1.5961 H   0  0  0  0  0  0  0  0  0  0  0  0
    2.5676   -1.8346    3.0973 H   0  0  0  0  0  0  0  0  0  0  0  0
    3.4077   -1.6567    1.5068 H   0  0  0  0  0  0  0  0  0  0  0  0
    1.7175   -0.5727   -0.3547 H   0  0  0  0  0  0  0  0  0  0  0  0
    0.6549    1.9526    0.9999 H   0  0  0  0  0  0  0  0  0  0  0  0
    1.4145    1.3649   -1.9382 H   0  0  0  0  0  0  0  0  0  0  0  0
    3.0538    2.8123   -1.4727 H   0  0  0  0  0  0  0  0  0  0  0  0
   -0.6007    2.1697   -2.7380 H   0  0  0  0  0  0  0  0  0  0  0  0
   -2.4163    3.8851   -2.7225 H   0  0  0  0  0  0  0  0  0  0  0  0
   -1.5320    4.8137   -1.4628 H   0  0  0  0  0  0  0  0  0  0  0  0
   -0.7580    4.2508   -4.1430 H   0  0  0  0  0  0  0  0  0  0  0  0
   -1.6567    2.8426    0.0986 H   0  0  0  0  0  0  0  0  0  0  0  0
   -3.3810    1.6434   -0.4966 H   0  0  0  0  0  0  0  0  0  0  0  0
   -0.7351    0.1599   -1.1037 H   0  0  0  0  0  0  0  0  0  0  0  0
   -0.7260   -1.5334    0.3561 H   0  0  0  0  0  0  0  0  0  0  0  0
   -2.8259   -1.0847   -0.9327 H   0  0  0  0  0  0  0  0  0  0  0  0
   -3.7499   -0.9023    0.6064 H   0  0  0  0  0  0  0  0  0  0  0  0
   -3.0304   -2.5010    0.1551 H   0  0  0  0  0  0  0  0  0  0  0  0
  1  2  1  0  0  0  0
  1 21  1  0  0  0  0
  1 22  1  0  0  0  0
  1 23  1  0  0  0  0
  2  3  2  0  0  0  0
  2  4  1  0  0  0  0
  4  5  1  0  0  0  0
  4 24  1  0  0  0  0
  5  6  1  0  0  0  0
  5 25  1  1  0  0  0
  6  7  1  0  0  0  0
  6  8  1  0  0  0  0
  6 26  1  6  0  0  0
  7 27  1  0  0  0  0
  8  9  1  0  0  0  0
  9 10  1  0  0  0  0
  9 12  1  0  0  0  0
  9 28  1  6  0  0  0
 10 11  1  0  0  0  0
 10 29  1  0  0  0  0
 10 30  1  0  0  0  0
 11 31  1  0  0  0  0
 12 13  1  0  0  0  0
 12 14  1  0  0  0  0
 12 32  1  1  0  0  0
 13 33  1  0  0  0  0
 14 15  1  0  0  0  0
 14  5  1  0  0  0  0
 14 34  1  6  0  0  0
 15 16  1  0  0  0  0
 16 17  1  0  0  0  0
 16 18  1  0  0  0  0
 16 35  1  6  0  0  0
 17 36  1  0  0  0  0
 17 37  1  0  0  0  0
 17 38  1  0  0  0  0
 18 19  2  0  0  0  0
 18 20  1  0  0  0  0
M  CHG  1  20  -1
M  END
>  <UniqueID>
77

>  <SMILES>
CC(=O)N[C@H]1[C@H](O)O[C@H](CO)[C@@H](O)[C@@H]1O[C@H](C)C(=O)[O-]

>  <Energy>
29.985654609023953

>  <Genealogy>
CC(=O)N[C@H]1[C@H](O)O[C@H](CO)[C@@H](O)[C@@H]1O[C@H](C)C(=O)[O-] (protonated)
CC(=O)N[C@H]1[C@H](O)O[C@H](CO)[C@@H](O)[C@@H]1O[C@H](C)C(=O)[O-] (3D coordinates assigned)
CC(=O)N[C@H]1[C@H](O)O[C@H](CO)[C@@H](O)[C@@H]1O[C@H](C)C(=O)[O-] (nonaromatic ring conformer: 29.985654609023953 kcal/mol)

$$$$
12917651
 OpenBabel03032110343D

 38 38  0  0  0  0  0  0  0  0999 V2000
    2.6253   -3.1946    0.0903 C   0  0  0  0  0  0  0  0  0  0  0  0
    2.0266   -1.8401   -0.1104 C   0  0  0  0  0  0  0  0  0  0  0  0
    2.0152   -1.2746   -1.3841 O   0  0  0  0  0  0  0  0  0  0  0  0
    1.4866   -1.2279    0.9035 N   0  0  0  0  0  0  0  0  0  0  0  0
    0.8339    0.0881    0.9027 C   0  0  1  0  0  0  0  0  0  0  0  0
    1.8019    1.2155    0.4731 C   0  0  2  0  0  0  0  0  0  0  0  0
    2.9389    1.2129    1.2961 O   0  0  0  0  0  0  0  0  0  0  0  0
    1.1596    2.4762    0.5648 O   0  0  0  0  0  0  0  0  0  0  0  0
    0.0802    2.5532   -0.3530 C   0  0  2  0  0  0  0  0  0  0  0  0
   -0.4693    3.9844   -0.3327 C   0  0  0  0  0  0  0  0  0  0  0  0
    0.5445    4.8834   -0.6882 O   0  0  0  0  0  0  0  0  0  0  0  0
   -1.0240    1.5363    0.0252 C   0  0  1  0  0  0  0  0  0  0  0  0
   -2.0739    1.6113   -0.9056 O   0  0  0  0  0  0  0  0  0  0  0  0
   -0.4461    0.1070    0.0395 C   0  0  2  0  0  0  0  0  0  0  0  0
   -1.4119   -0.7648    0.6108 O   0  0  0  0  0  0  0  0  0  0  0  0
   -1.5783   -1.9568   -0.1390 C   0  0  2  0  0  0  0  0  0  0  0  0
   -2.6475   -1.7585   -1.2160 C   0  0  0  0  0  0  0  0  0  0  0  0
   -2.0080   -3.0473    0.7953 C   0  0  0  0  0  0  0  0  0  0  0  0
   -1.4936   -4.1938    0.7117 O   0  0  0  0  0  0  0  0  0  0  0  0
   -3.0019   -2.8090    1.7370 O   0  5  0  0  0  0  0  0  0  0  0  0
    2.9134   -3.3419    1.1529 H   0  0  0  0  0  0  0  0  0  0  0  0
    3.5321   -3.3042   -0.5402 H   0  0  0  0  0  0  0  0  0  0  0  0
    1.8847   -3.9695   -0.1968 H   0  0  0  0  0  0  0  0  0  0  0  0
    2.4131   -1.7608   -2.1785 H   0  0  0  0  0  0  0  0  0  0  0  0
    0.5274    0.2976    1.9520 H   0  0  0  0  0  0  0  0  0  0  0  0
    2.1552    1.0521   -0.5683 H   0  0  0  0  0  0  0  0  0  0  0  0
    2.6468    1.4976    2.2016 H   0  0  0  0  0  0  0  0  0  0  0  0
    0.4335    2.3501   -1.3920 H   0  0  0  0  0  0  0  0  0  0  0  0
   -1.3108    4.0773   -1.0553 H   0  0  0  0  0  0  0  0  0  0  0  0
   -0.8433    4.2275    0.6876 H   0  0  0  0  0  0  0  0  0  0  0  0
    0.1376    5.7877   -0.6479 H   0  0  0  0  0  0  0  0  0  0  0  0
   -1.3989    1.7897    1.0465 H   0  0  0  0  0  0  0  0  0  0  0  0
   -2.8838    1.2541   -0.4561 H   0  0  0  0  0  0  0  0  0  0  0  0
   -0.1909   -0.1431   -1.0174 H   0  0  0  0  0  0  0  0  0  0  0  0
   -0.6344   -2.2899   -0.6282 H   0  0  0  0  0  0  0  0  0  0  0  0
   -2.3109   -1.0008   -1.9539 H   0  0  0  0  0  0  0  0  0  0  0  0
   -2.8288   -2.7111   -1.7588 H   0  0  0  0  0  0  0  0  0  0  0  0
   -3.6001   -1.4132   -0.7598 H   0  0  0  0  0  0  0  0  0  0  0  0
  1  2  1  0  0  0  0
  1 21  1  0  0  0  0
  1 22  1  0  0  0  0
  1 23  1  0  0  0  0
  2  3  1  0  0  0  0
  2  4  2  3  0  0  0
  3 24  1  0  0  0  0
  4  5  1  0  0  0  0
  5  6  1  0  0  0  0
  5 25  1  1  0  0  0
  6  7  1  0  0  0  0
  6  8  1  0  0  0  0
  6 26  1  6  0  0  0
  7 27  1  0  0  0  0
  8  9  1  0  0  0  0
  9 10  1  0  0  0  0
  9 12  1  0  0  0  0
  9 28  1  6  0  0  0
 10 11  1  0  0  0  0
 10 29  1  0  0  0  0
 10 30  1  0  0  0  0
 11 31  1  0  0  0  0
 12 13  1  0  0  0  0
 12 14  1  0  0  0  0
 12 32  1  1  0  0  0
 13 33  1  0  0  0  0
 14 15  1  0  0  0  0
 14  5  1  0  0  0  0
 14 34  1  6  0  0  0
 15 16  1  0  0  0  0
 16 17  1  0  0  0  0
 16 18  1  0  0  0  0
 16 35  1  6  0  0  0
 17 36  1  0  0  0  0
 17 37  1  0  0  0  0
 17 38  1  0  0  0  0
 18 19  2  0  0  0  0
 18 20  1  0  0  0  0
M  CHG  1  20  -1
M  END
>  <UniqueID>
78

>  <SMILES>
CC(O)=N[C@H]1[C@H](O)O[C@H](CO)[C@@H](O)[C@@H]1O[C@H](C)C(=O)[O-]

>  <Energy>
33.394224934245315

>  <Genealogy>
CC(=O)N[C@H]1[C@H](O)O[C@H](CO)[C@@H](O)[C@@H]1O[C@H](C)C(=O)[O-] (protonated)
CC(O)=N[C@H]1[C@H](O)O[C@H](CO)[C@@H](O)[C@@H]1O[C@H](C)C(=O)[O-] (tautomer)
CC(O)=N[C@H]1[C@H](O)O[C@H](CO)[C@@H](O)[C@@H]1O[C@H](C)C(=O)[O-] (3D coordinates assigned)
CC(O)=N[C@H]1[C@H](O)O[C@H](CO)[C@@H](O)[C@@H]1O[C@H](C)C(=O)[O-] (nonaromatic ring conformer: 33.394224934245315 kcal/mol)

$$$$
12600646
 OpenBabel03032110343D

 37 37  0  0  0  0  0  0  0  0999 V2000
    3.7757   -1.0065   -5.4795 H   0  0  0  0  0  0  0  0  0  0  0  0
    3.6218   -1.0559   -4.4805 O   0  0  0  0  0  0  0  0  0  0  0  0
    2.7840   -0.1506   -3.8671 N   0  0  0  0  0  0  0  0  0  0  0  0
    2.5580   -0.1742   -2.6096 N   0  3  0  0  0  0  0  0  0  0  0  0
    1.6547    0.8098   -2.0647 C   0  0  0  0  0  0  0  0  0  0  0  0
    1.3510    1.8191   -2.7596 O   0  0  0  0  0  0  0  0  0  0  0  0
    1.0823    0.6568   -0.7534 N   0  0  0  0  0  0  0  0  0  0  0  0
    1.1449   -0.2666   -0.2713 H   0  0  0  0  0  0  0  0  0  0  0  0
    0.2246    1.6835   -0.1523 C   0  0  1  0  0  0  0  0  0  0  0  0
    0.5498    2.6905   -0.4996 H   0  0  0  0  0  0  0  0  0  0  0  0
   -1.2411    1.4769   -0.5825 C   0  0  1  0  0  0  0  0  0  0  0  0
   -1.2876    1.6359   -1.6835 H   0  0  0  0  0  0  0  0  0  0  0  0
   -1.6679    0.1659   -0.3049 O   0  0  0  0  0  0  0  0  0  0  0  0
   -2.5697    0.0744   -0.7092 H   0  0  0  0  0  0  0  0  0  0  0  0
   -2.0952    2.4360    0.0254 O   0  0  0  0  0  0  0  0  0  0  0  0
   -2.0872    2.3281    1.4423 C   0  0  2  0  0  0  0  0  0  0  0  0
   -2.4035    1.3060    1.7551 H   0  0  0  0  0  0  0  0  0  0  0  0
   -3.1355    3.2969    2.0052 C   0  0  0  0  0  0  0  0  0  0  0  0
   -3.1891    3.2023    3.1127 H   0  0  0  0  0  0  0  0  0  0  0  0
   -4.1328    3.0274    1.5905 H   0  0  0  0  0  0  0  0  0  0  0  0
   -2.8237    4.6164    1.6502 O   0  0  0  0  0  0  0  0  0  0  0  0
   -3.5344    5.1835    2.0477 H   0  0  0  0  0  0  0  0  0  0  0  0
   -0.6766    2.6202    2.0120 C   0  0  1  0  0  0  0  0  0  0  0  0
   -0.3787    3.6626    1.7425 H   0  0  0  0  0  0  0  0  0  0  0  0
   -0.6678    2.4462    3.4069 O   0  0  0  0  0  0  0  0  0  0  0  0
   -0.8312    3.3367    3.8141 H   0  0  0  0  0  0  0  0  0  0  0  0
    0.3359    1.6478    1.3843 C   0  0  2  0  0  0  0  0  0  0  0  0
    0.0959    0.6195    1.7372 H   0  0  0  0  0  0  0  0  0  0  0  0
    1.6456    1.9474    1.8014 O   0  0  0  0  0  0  0  0  0  0  0  0
    1.8619    2.8640    1.4866 H   0  0  0  0  0  0  0  0  0  0  0  0
    3.1976   -1.1866   -1.7531 C   0  0  0  0  0  0  0  0  0  0  0  0
    4.2372   -1.3787   -2.0973 H   0  0  0  0  0  0  0  0  0  0  0  0
    3.2912   -0.8152   -0.7103 H   0  0  0  0  0  0  0  0  0  0  0  0
    2.4036   -2.4918   -1.7814 C   0  0  0  0  0  0  0  0  0  0  0  0
    1.3567   -2.3162   -1.4580 H   0  0  0  0  0  0  0  0  0  0  0  0
    2.3924   -2.9079   -2.8106 H   0  0  0  0  0  0  0  0  0  0  0  0
    3.1485   -3.6861   -0.6899 Cl  0  0  0  0  0  0  0  0  0  0  0  0
  1  2  1  0  0  0  0
  2  3  1  0  0  0  0
  3  4  2  0  0  0  0
  4  5  1  0  0  0  0
  4 31  1  0  0  0  0
  5  6  2  0  0  0  0
  5  7  1  0  0  0  0
  7  8  1  0  0  0  0
  7  9  1  0  0  0  0
  9 10  1  6  0  0  0
  9 11  1  0  0  0  0
 11 12  1  6  0  0  0
 11 13  1  0  0  0  0
 11 15  1  0  0  0  0
 13 14  1  0  0  0  0
 15 16  1  0  0  0  0
 16 17  1  1  0  0  0
 16 18  1  0  0  0  0
 16 23  1  0  0  0  0
 18 19  1  0  0  0  0
 18 20  1  0  0  0  0
 18 21  1  0  0  0  0
 21 22  1  0  0  0  0
 23 24  1  6  0  0  0
 23 25  1  0  0  0  0
 23 27  1  0  0  0  0
 25 26  1  0  0  0  0
 27 28  1  1  0  0  0
 27 29  1  0  0  0  0
 27  9  1  0  0  0  0
 29 30  1  0  0  0  0
 31 32  1  0  0  0  0
 31 33  1  0  0  0  0
 31 34  1  0  0  0  0
 34 35  1  0  0  0  0
 34 36  1  0  0  0  0
 34 37  1  0  0  0  0
M  CHG  1   4   1
M  END
>  <UniqueID>
79

>  <SMILES>
O=C(N[C@H]1[C@@H](O)O[C@H](CO)[C@@H](O)[C@@H]1O)/[N+](CCCl)=N\O

>  <Energy>
32.661275582121945

>  <Genealogy>
O=N[NH+](CCCl)C(=O)N[C@H]1C(O)O[C@H](CO)[C@@H](O)[C@@H]1O (protonated)
O=C(N[C@H]1C(O)O[C@H](CO)[C@@H](O)[C@@H]1O)[N+](CCCl)=NO (tautomer)
O=C(N[C@H]1[C@@H](O)O[C@H](CO)[C@@H](O)[C@@H]1O)[N+](CCCl)=NO (chirality)
O=C(N[C@H]1[C@@H](O)O[C@H](CO)[C@@H](O)[C@@H]1O)/[N+](CCCl)=N\O (cis-trans isomerization)
O=C(N[C@H]1[C@@H](O)O[C@H](CO)[C@@H](O)[C@@H]1O)/[N+](CCCl)=N\O (3D coordinates assigned)
O=C(N[C@H]1[C@@H](O)O[C@H](CO)[C@@H](O)[C@@H]1O)/[N+](CCCl)=N\O (nonaromatic ring conformer: 32.661275582121945 kcal/mol)

$$$$
12600646
 OpenBabel03032110343D

 37 37  0  0  0  0  0  0  0  0999 V2000
   -5.0094   -2.1081   -2.3185 H   0  0  0  0  0  0  0  0  0  0  0  0
   -4.4623   -1.5969   -2.9968 O   0  0  0  0  0  0  0  0  0  0  0  0
   -3.2026   -1.0888   -2.7379 N   0  0  0  0  0  0  0  0  0  0  0  0
   -2.5605   -1.2491   -1.6409 N   0  3  0  0  0  0  0  0  0  0  0  0
   -1.2603   -0.6317   -1.5370 C   0  0  0  0  0  0  0  0  0  0  0  0
   -0.6636   -0.2707   -2.5893 O   0  0  0  0  0  0  0  0  0  0  0  0
   -0.6393   -0.4024   -0.2593 N   0  0  0  0  0  0  0  0  0  0  0  0
   -1.2097   -0.4889    0.6101 H   0  0  0  0  0  0  0  0  0  0  0  0
    0.7160    0.1449   -0.1373 C   0  0  1  0  0  0  0  0  0  0  0  0
    1.3367   -0.2179   -0.9881 H   0  0  0  0  0  0  0  0  0  0  0  0
    0.6846    1.6942   -0.2075 C   0  0  1  0  0  0  0  0  0  0  0  0
    0.4186    1.9508   -1.2548 H   0  0  0  0  0  0  0  0  0  0  0  0
   -0.3060    2.2867    0.6024 O   0  0  0  0  0  0  0  0  0  0  0  0
   -0.3348    1.8161    1.4727 H   0  0  0  0  0  0  0  0  0  0  0  0
    1.9599    2.2701    0.0307 O   0  0  0  0  0  0  0  0  0  0  0  0
    2.4833    1.9164    1.3020 C   0  0  2  0  0  0  0  0  0  0  0  0
    1.7957    2.2399    2.1157 H   0  0  0  0  0  0  0  0  0  0  0  0
    3.8016    2.6793    1.5050 C   0  0  0  0  0  0  0  0  0  0  0  0
    4.2315    2.4623    2.5091 H   0  0  0  0  0  0  0  0  0  0  0  0
    4.5409    2.3561    0.7410 H   0  0  0  0  0  0  0  0  0  0  0  0
    3.5958    4.0595    1.3661 O   0  0  0  0  0  0  0  0  0  0  0  0
    3.1422    4.3642    2.1951 H   0  0  0  0  0  0  0  0  0  0  0  0
    2.7143    0.3896    1.3934 C   0  0  1  0  0  0  0  0  0  0  0  0
    3.4324    0.0829    0.5938 H   0  0  0  0  0  0  0  0  0  0  0  0
    3.2075    0.0454    2.6644 O   0  0  0  0  0  0  0  0  0  0  0  0
    4.1961   -0.0077    2.5914 H   0  0  0  0  0  0  0  0  0  0  0  0
    1.3829   -0.3438    1.1652 C   0  0  2  0  0  0  0  0  0  0  0  0
    0.7143   -0.1225    2.0257 H   0  0  0  0  0  0  0  0  0  0  0  0
    1.5769   -1.7370    1.1356 O   0  0  0  0  0  0  0  0  0  0  0  0
    2.1882   -1.9434    0.3807 H   0  0  0  0  0  0  0  0  0  0  0  0
   -3.1057   -2.0419   -0.5249 C   0  0  0  0  0  0  0  0  0  0  0  0
   -3.6028   -2.9597   -0.9025 H   0  0  0  0  0  0  0  0  0  0  0  0
   -2.2848   -2.4172    0.1228 H   0  0  0  0  0  0  0  0  0  0  0  0
   -4.0767   -1.2067    0.3109 C   0  0  0  0  0  0  0  0  0  0  0  0
   -4.9332   -0.8687   -0.3078 H   0  0  0  0  0  0  0  0  0  0  0  0
   -3.5640   -0.3105    0.7171 H   0  0  0  0  0  0  0  0  0  0  0  0
   -4.7014   -2.1730    1.6704 Cl  0  0  0  0  0  0  0  0  0  0  0  0
  1  2  1  0  0  0  0
  2  3  1  0  0  0  0
  3  4  2  0  0  0  0
  4  5  1  0  0  0  0
  4 31  1  0  0  0  0
  5  6  2  0  0  0  0
  5  7  1  0  0  0  0
  7  8  1  0  0  0  0
  7  9  1  0  0  0  0
  9 10  1  6  0  0  0
  9 11  1  0  0  0  0
 11 12  1  6  0  0  0
 11 13  1  0  0  0  0
 11 15  1  0  0  0  0
 13 14  1  0  0  0  0
 15 16  1  0  0  0  0
 16 17  1  1  0  0  0
 16 18  1  0  0  0  0
 16 23  1  0  0  0  0
 18 19  1  0  0  0  0
 18 20  1  0  0  0  0
 18 21  1  0  0  0  0
 21 22  1  0  0  0  0
 23 24  1  6  0  0  0
 23 25  1  0  0  0  0
 23 27  1  0  0  0  0
 25 26  1  0  0  0  0
 27 28  1  1  0  0  0
 27 29  1  0  0  0  0
 27  9  1  0  0  0  0
 29 30  1  0  0  0  0
 31 32  1  0  0  0  0
 31 33  1  0  0  0  0
 31 34  1  0  0  0  0
 34 35  1  0  0  0  0
 34 36  1  0  0  0  0
 34 37  1  0  0  0  0
M  CHG  1   4   1
M  END
>  <UniqueID>
80

>  <SMILES>
O=C(N[C@H]1[C@@H](O)O[C@H](CO)[C@@H](O)[C@@H]1O)/[N+](CCCl)=N/O

>  <Energy>
39.39202657461873

>  <Genealogy>
O=N[NH+](CCCl)C(=O)N[C@H]1C(O)O[C@H](CO)[C@@H](O)[C@@H]1O (protonated)
O=C(N[C@H]1C(O)O[C@H](CO)[C@@H](O)[C@@H]1O)[N+](CCCl)=NO (tautomer)
O=C(N[C@H]1[C@@H](O)O[C@H](CO)[C@@H](O)[C@@H]1O)[N+](CCCl)=NO (chirality)
O=C(N[C@H]1[C@@H](O)O[C@H](CO)[C@@H](O)[C@@H]1O)/[N+](CCCl)=N/O (cis-trans isomerization)
O=C(N[C@H]1[C@@H](O)O[C@H](CO)[C@@H](O)[C@@H]1O)/[N+](CCCl)=N/O (3D coordinates assigned)
O=C(N[C@H]1[C@@H](O)O[C@H](CO)[C@@H](O)[C@@H]1O)/[N+](CCCl)=N/O (nonaromatic ring conformer: 39.39202657461873 kcal/mol)

$$$$
12302999
 OpenBabel03032110343D

 25 25  0  0  0  0  0  0  0  0999 V2000
    1.1759    1.5290   -0.5871 N   0  0  0  0  0  0  0  0  0  0  0  0
    0.3428    0.3243   -0.6779 C   0  0  2  0  0  0  0  0  0  0  0  0
   -1.0405    0.5928   -0.0369 C   0  0  1  0  0  0  0  0  0  0  0  0
   -1.9320   -0.4687   -0.2795 O   0  0  0  0  0  0  0  0  0  0  0  0
   -0.9229    0.8409    1.3565 O   0  0  0  0  0  0  0  0  0  0  0  0
   -0.3988   -0.2823    2.0510 C   0  0  2  0  0  0  0  0  0  0  0  0
   -0.4186    0.0218    3.5565 C   0  0  0  0  0  0  0  0  0  0  0  0
    0.3107    1.1859    3.8444 O   0  0  0  0  0  0  0  0  0  0  0  0
    1.0316   -0.6246    1.5585 C   0  0  1  0  0  0  0  0  0  0  0  0
    1.5465   -1.7468    2.2330 O   0  0  0  0  0  0  0  0  0  0  0  0
    1.0181   -0.8640    0.0357 C   0  0  2  0  0  0  0  0  0  0  0  0
    2.3267   -1.0365   -0.4459 O   0  0  0  0  0  0  0  0  0  0  0  0
    2.0558    1.3686   -1.1289 H   0  0  0  0  0  0  0  0  0  0  0  0
    0.6857    2.3101   -1.0808 H   0  0  0  0  0  0  0  0  0  0  0  0
    0.2003    0.0644   -1.7520 H   0  0  0  0  0  0  0  0  0  0  0  0
   -1.4658    1.5144   -0.4963 H   0  0  0  0  0  0  0  0  0  0  0  0
   -2.1657   -0.4339   -1.2439 H   0  0  0  0  0  0  0  0  0  0  0  0
   -1.0593   -1.1676    1.9025 H   0  0  0  0  0  0  0  0  0  0  0  0
   -1.4712    0.1839    3.8725 H   0  0  0  0  0  0  0  0  0  0  0  0
   -0.0364   -0.8485    4.1391 H   0  0  0  0  0  0  0  0  0  0  0  0
    1.2342    0.9003    4.0701 H   0  0  0  0  0  0  0  0  0  0  0  0
    1.7022    0.2374    1.7679 H   0  0  0  0  0  0  0  0  0  0  0  0
    0.9406   -2.5122    2.0508 H   0  0  0  0  0  0  0  0  0  0  0  0
    0.4194   -1.7796   -0.1877 H   0  0  0  0  0  0  0  0  0  0  0  0
    2.5991   -1.9633   -0.2172 H   0  0  0  0  0  0  0  0  0  0  0  0
  1  2  1  0  0  0  0
  1 13  1  0  0  0  0
  1 14  1  0  0  0  0
  2  3  1  0  0  0  0
  2 15  1  6  0  0  0
  3  4  1  0  0  0  0
  3  5  1  0  0  0  0
  3 16  1  6  0  0  0
  4 17  1  0  0  0  0
  5  6  1  0  0  0  0
  6  7  1  0  0  0  0
  6  9  1  0  0  0  0
  6 18  1  6  0  0  0
  7  8  1  0  0  0  0
  7 19  1  0  0  0  0
  7 20  1  0  0  0  0
  8 21  1  0  0  0  0
  9 10  1  0  0  0  0
  9 11  1  0  0  0  0
  9 22  1  1  0  0  0
 10 23  1  0  0  0  0
 11 12  1  0  0  0  0
 11  2  1  0  0  0  0
 11 24  1  6  0  0  0
 12 25  1  0  0  0  0
M  END
>  <UniqueID>
81

>  <SMILES>
N[C@@H]1[C@@H](O)O[C@H](CO)[C@@H](O)[C@@H]1O

>  <Energy>
24.659169634219772

>  <Genealogy>
N[C@@H]1[C@@H](O)O[C@H](CO)[C@@H](O)[C@@H]1O (3D coordinates assigned)
N[C@@H]1[C@@H](O)O[C@H](CO)[C@@H](O)[C@@H]1O (nonaromatic ring conformer: 24.659169634219772 kcal/mol)

$$$$
12302999
 OpenBabel03032110343D

 26 26  0  0  0  0  0  0  0  0999 V2000
    2.2098   -0.0349    1.1237 N   0  3  0  0  0  0  0  0  0  0  0  0
    1.6631    0.2096   -0.2213 C   0  0  2  0  0  0  0  0  0  0  0  0
    0.7908    1.4893   -0.2264 C   0  0  1  0  0  0  0  0  0  0  0  0
    0.4904    1.8975   -1.5395 O   0  0  0  0  0  0  0  0  0  0  0  0
   -0.3985    1.3050    0.5264 O   0  0  0  0  0  0  0  0  0  0  0  0
   -1.2296    0.2993   -0.0356 C   0  0  2  0  0  0  0  0  0  0  0  0
   -2.5345    0.2436    0.7725 C   0  0  0  0  0  0  0  0  0  0  0  0
   -3.1712    1.4929    0.7618 O   0  0  0  0  0  0  0  0  0  0  0  0
   -0.5210   -1.0790   -0.0175 C   0  0  1  0  0  0  0  0  0  0  0  0
   -1.3279   -2.0708   -0.6052 O   0  0  0  0  0  0  0  0  0  0  0  0
    0.8378   -0.9892   -0.7425 C   0  0  2  0  0  0  0  0  0  0  0  0
    1.5600   -2.1836   -0.5816 O   0  0  0  0  0  0  0  0  0  0  0  0
    2.8062    0.7748    1.4111 H   0  0  0  0  0  0  0  0  0  0  0  0
    1.4474   -0.1527    1.8286 H   0  0  0  0  0  0  0  0  0  0  0  0
    2.8160   -0.8863    1.1224 H   0  0  0  0  0  0  0  0  0  0  0  0
    2.5192    0.3648   -0.9170 H   0  0  0  0  0  0  0  0  0  0  0  0
    1.3653    2.3057    0.2684 H   0  0  0  0  0  0  0  0  0  0  0  0
    1.3297    2.2581   -1.9285 H   0  0  0  0  0  0  0  0  0  0  0  0
   -1.5054    0.5620   -1.0830 H   0  0  0  0  0  0  0  0  0  0  0  0
   -3.2181   -0.5338    0.3610 H   0  0  0  0  0  0  0  0  0  0  0  0
   -2.3086   -0.0265    1.8264 H   0  0  0  0  0  0  0  0  0  0  0  0
   -3.5883    1.5918   -0.1338 H   0  0  0  0  0  0  0  0  0  0  0  0
   -0.3424   -1.3756    1.0388 H   0  0  0  0  0  0  0  0  0  0  0  0
   -1.5075   -1.7982   -1.5431 H   0  0  0  0  0  0  0  0  0  0  0  0
    0.6543   -0.8155   -1.8301 H   0  0  0  0  0  0  0  0  0  0  0  0
    1.1629   -2.8481   -1.2033 H   0  0  0  0  0  0  0  0  0  0  0  0
  1  2  1  0  0  0  0
  1 13  1  0  0  0  0
  1 14  1  0  0  0  0
  1 15  1  0  0  0  0
  2  3  1  0  0  0  0
  2 16  1  6  0  0  0
  3  4  1  0  0  0  0
  3  5  1  0  0  0  0
  3 17  1  1  0  0  0
  4 18  1  0  0  0  0
  5  6  1  0  0  0  0
  6  7  1  0  0  0  0
  6  9  1  0  0  0  0
  6 19  1  6  0  0  0
  7  8  1  0  0  0  0
  7 20  1  0  0  0  0
  7 21  1  0  0  0  0
  8 22  1  0  0  0  0
  9 10  1  0  0  0  0
  9 11  1  0  0  0  0
  9 23  1  1  0  0  0
 10 24  1  0  0  0  0
 11 12  1  0  0  0  0
 11  2  1  0  0  0  0
 11 25  1  6  0  0  0
 12 26  1  0  0  0  0
M  CHG  1   1   1
M  END
>  <UniqueID>
82

>  <SMILES>
[NH3+][C@@H]1[C@@H](O)O[C@H](CO)[C@@H](O)[C@@H]1O

>  <Energy>
25.94777900450287

>  <Genealogy>
[NH3+][C@@H]1[C@@H](O)O[C@H](CO)[C@@H](O)[C@@H]1O (protonated)
[NH3+][C@@H]1[C@@H](O)O[C@H](CO)[C@@H](O)[C@@H]1O (3D coordinates assigned)
[NH3+][C@@H]1[C@@H](O)O[C@H](CO)[C@@H](O)[C@@H]1O (nonaromatic ring conformer: 25.94777900450287 kcal/mol)

$$$$
11908605
 OpenBabel03032110343D

 30 30  0  0  0  0  0  0  0  0999 V2000
    1.0673    4.2655    0.8144 C   0  0  0  0  0  0  0  0  0  0  0  0
    0.8904    2.9140    1.4257 C   0  0  0  0  0  0  0  0  0  0  0  0
    0.4971    2.8172    2.6198 O   0  0  0  0  0  0  0  0  0  0  0  0
    1.2012    1.7388    0.6645 N   0  0  0  0  0  0  0  0  0  0  0  0
    1.0209    0.3834    1.2023 C   0  0  1  0  0  0  0  0  0  0  0  0
   -0.4704   -0.0048    1.1904 C   0  0  2  0  0  0  0  0  0  0  0  0
   -0.6493   -1.1623    1.9699 O   0  0  0  0  0  0  0  0  0  0  0  0
   -0.9456   -0.2517   -0.2555 C   0  0  2  0  0  0  0  0  0  0  0  0
   -2.2495   -0.7780   -0.2328 O   0  0  0  0  0  0  0  0  0  0  0  0
    0.0214   -1.2263   -0.9728 C   0  0  1  0  0  0  0  0  0  0  0  0
   -0.3916   -1.4281   -2.4385 C   0  0  0  0  0  0  0  0  0  0  0  0
    0.5217   -2.2665   -3.0938 O   0  0  0  0  0  0  0  0  0  0  0  0
    1.3445   -0.7141   -0.9485 O   0  0  0  0  0  0  0  0  0  0  0  0
    1.8321   -0.6464    0.3796 C   0  0  1  0  0  0  0  0  0  0  0  0
    3.1819   -0.2651    0.3379 O   0  0  0  0  0  0  0  0  0  0  0  0
    0.5889    4.2886   -0.1870 H   0  0  0  0  0  0  0  0  0  0  0  0
    0.6002    5.0463    1.4517 H   0  0  0  0  0  0  0  0  0  0  0  0
    2.1501    4.4838    0.7076 H   0  0  0  0  0  0  0  0  0  0  0  0
    1.5869    1.8655   -0.2991 H   0  0  0  0  0  0  0  0  0  0  0  0
    1.3952    0.3592    2.2505 H   0  0  0  0  0  0  0  0  0  0  0  0
   -1.0648    0.8318    1.6274 H   0  0  0  0  0  0  0  0  0  0  0  0
   -1.5940   -1.1657    2.2755 H   0  0  0  0  0  0  0  0  0  0  0  0
   -0.9336    0.7297   -0.7896 H   0  0  0  0  0  0  0  0  0  0  0  0
   -2.7293   -0.4102   -1.0202 H   0  0  0  0  0  0  0  0  0  0  0  0
   -0.0207   -2.2253   -0.4780 H   0  0  0  0  0  0  0  0  0  0  0  0
   -1.4148   -1.8630   -2.5020 H   0  0  0  0  0  0  0  0  0  0  0  0
   -0.4049   -0.4473   -2.9604 H   0  0  0  0  0  0  0  0  0  0  0  0
    0.3356   -3.1900   -2.7802 H   0  0  0  0  0  0  0  0  0  0  0  0
    1.7671   -1.6529    0.8618 H   0  0  0  0  0  0  0  0  0  0  0  0
    3.5582   -0.4369    1.2407 H   0  0  0  0  0  0  0  0  0  0  0  0
  1  2  1  0  0  0  0
  1 16  1  0  0  0  0
  1 17  1  0  0  0  0
  1 18  1  0  0  0  0
  2  3  2  0  0  0  0
  2  4  1  0  0  0  0
  4  5  1  0  0  0  0
  4 19  1  0  0  0  0
  5  6  1  0  0  0  0
  5 20  1  1  0  0  0
  6  7  1  0  0  0  0
  6  8  1  0  0  0  0
  6 21  1  1  0  0  0
  7 22  1  0  0  0  0
  8  9  1  0  0  0  0
  8 10  1  0  0  0  0
  8 23  1  6  0  0  0
  9 24  1  0  0  0  0
 10 11  1  0  0  0  0
 10 13  1  0  0  0  0
 10 25  1  1  0  0  0
 11 12  1  0  0  0  0
 11 26  1  0  0  0  0
 11 27  1  0  0  0  0
 12 28  1  0  0  0  0
 13 14  1  0  0  0  0
 14 15  1  0  0  0  0
 14  5  1  0  0  0  0
 14 29  1  1  0  0  0
 15 30  1  0  0  0  0
M  END
>  <UniqueID>
83

>  <SMILES>
CC(=O)N[C@H]1[C@H](O)[C@H](O)[C@@H](CO)O[C@H]1O

>  <Energy>
24.42759481269387

>  <Genealogy>
CC(=O)N[C@H]1[C@H](O)[C@H](O)[C@@H](CO)O[C@H]1O (3D coordinates assigned)
CC(=O)N[C@H]1[C@H](O)[C@H](O)[C@@H](CO)O[C@H]1O (nonaromatic ring conformer: 24.42759481269387 kcal/mol)

$$$$
11908605
 OpenBabel03032110343D

 30 30  0  0  0  0  0  0  0  0999 V2000
   -1.1133    2.8008   -3.4387 H   0  0  0  0  0  0  0  0  0  0  0  0
   -0.6379    2.4087   -2.6348 O   0  0  0  0  0  0  0  0  0  0  0  0
   -1.1977    1.3594   -1.9064 C   0  0  0  0  0  0  0  0  0  0  0  0
   -0.5705    0.8484   -0.8892 N   0  0  0  0  0  0  0  0  0  0  0  0
    0.7408    1.2925   -0.4054 C   0  0  1  0  0  0  0  0  0  0  0  0
    0.8521    2.3881   -0.5702 H   0  0  0  0  0  0  0  0  0  0  0  0
    0.8363    1.0214    1.1087 C   0  0  2  0  0  0  0  0  0  0  0  0
   -0.0854    1.4034    1.6087 H   0  0  0  0  0  0  0  0  0  0  0  0
    1.9595    1.6744    1.6468 O   0  0  0  0  0  0  0  0  0  0  0  0
    1.7261    2.6368    1.7180 H   0  0  0  0  0  0  0  0  0  0  0  0
    0.9394   -0.4937    1.3787 C   0  0  2  0  0  0  0  0  0  0  0  0
   -0.0340   -0.9698    1.1130 H   0  0  0  0  0  0  0  0  0  0  0  0
    1.2185   -0.7210    2.7368 O   0  0  0  0  0  0  0  0  0  0  0  0
    0.3785   -0.5421    3.2351 H   0  0  0  0  0  0  0  0  0  0  0  0
    2.0516   -1.1179    0.5000 C   0  0  1  0  0  0  0  0  0  0  0  0
    3.0410   -0.7040    0.8072 H   0  0  0  0  0  0  0  0  0  0  0  0
    2.1329   -2.6376    0.6959 C   0  0  0  0  0  0  0  0  0  0  0  0
    2.9811   -3.0328    0.0931 H   0  0  0  0  0  0  0  0  0  0  0  0
    2.3300   -2.8744    1.7654 H   0  0  0  0  0  0  0  0  0  0  0  0
    0.9415   -3.2491    0.2820 O   0  0  0  0  0  0  0  0  0  0  0  0
    1.0630   -4.2216    0.4374 H   0  0  0  0  0  0  0  0  0  0  0  0
    1.8136   -0.8534   -0.8734 O   0  0  0  0  0  0  0  0  0  0  0  0
    1.8811    0.5411   -1.1326 C   0  0  1  0  0  0  0  0  0  0  0  0
    2.8595    0.9477   -0.7873 H   0  0  0  0  0  0  0  0  0  0  0  0
    1.8230    0.7747   -2.5162 O   0  0  0  0  0  0  0  0  0  0  0  0
    1.1540    0.1493   -2.8992 H   0  0  0  0  0  0  0  0  0  0  0  0
   -2.5198    0.7944   -2.3144 C   0  0  0  0  0  0  0  0  0  0  0  0
   -2.9766    0.2204   -1.4799 H   0  0  0  0  0  0  0  0  0  0  0  0
   -3.2089    1.6172   -2.5977 H   0  0  0  0  0  0  0  0  0  0  0  0
   -2.3790    0.1206   -3.1848 H   0  0  0  0  0  0  0  0  0  0  0  0
  1  2  1  0  0  0  0
  2  3  1  0  0  0  0
  3  4  2  0  0  0  0
  3 27  1  0  0  0  0
  4  5  1  0  0  0  0
  5  6  1  6  0  0  0
  5  7  1  0  0  0  0
  7  8  1  1  0  0  0
  7  9  1  0  0  0  0
  7 11  1  0  0  0  0
  9 10  1  0  0  0  0
 11 12  1  6  0  0  0
 11 13  1  0  0  0  0
 11 15  1  0  0  0  0
 13 14  1  0  0  0  0
 15 16  1  1  0  0  0
 15 17  1  0  0  0  0
 15 22  1  0  0  0  0
 17 18  1  0  0  0  0
 17 19  1  0  0  0  0
 17 20  1  0  0  0  0
 20 21  1  0  0  0  0
 22 23  1  0  0  0  0
 23 24  1  1  0  0  0
 23 25  1  0  0  0  0
 23  5  1  0  0  0  0
 25 26  1  0  0  0  0
 27 28  1  0  0  0  0
 27 29  1  0  0  0  0
 27 30  1  0  0  0  0
M  END
>  <UniqueID>
84

>  <SMILES>
C/C(O)=N/[C@H]1[C@H](O)[C@H](O)[C@@H](CO)O[C@H]1O

>  <Energy>
25.568818211694975

>  <Genealogy>
CC(O)=N[C@H]1[C@H](O)[C@H](O)[C@@H](CO)O[C@H]1O (tautomer)
C/C(O)=N/[C@H]1[C@H](O)[C@H](O)[C@@H](CO)O[C@H]1O (cis-trans isomerization)
C/C(O)=N/[C@H]1[C@H](O)[C@H](O)[C@@H](CO)O[C@H]1O (3D coordinates assigned)
C/C(O)=N/[C@H]1[C@H](O)[C@H](O)[C@@H](CO)O[C@H]1O (nonaromatic ring conformer: 25.568818211694975 kcal/mol)

$$$$
11096158
 OpenBabel03032110343D

 30 30  0  0  0  0  0  0  0  0999 V2000
    2.5451   -1.2747    2.5963 C   0  0  0  0  0  0  0  0  0  0  0  0
    1.4509   -0.2694    2.4424 C   0  0  0  0  0  0  0  0  0  0  0  0
    1.3766    0.6973    3.2483 O   0  0  0  0  0  0  0  0  0  0  0  0
    0.5133   -0.3945    1.3639 N   0  0  0  0  0  0  0  0  0  0  0  0
   -0.5333    0.6026    1.1008 C   0  0  2  0  0  0  0  0  0  0  0  0
   -1.8271   -0.0882    0.6291 C   0  0  2  0  0  0  0  0  0  0  0  0
   -2.2139   -1.0391    1.5837 O   0  0  0  0  0  0  0  0  0  0  0  0
   -1.6192   -0.7358   -0.6152 O   0  0  0  0  0  0  0  0  0  0  0  0
   -1.3573    0.2149   -1.6356 C   0  0  2  0  0  0  0  0  0  0  0  0
   -1.3084   -0.5211   -2.9795 C   0  0  0  0  0  0  0  0  0  0  0  0
   -2.5203   -1.1901   -3.1949 O   0  0  0  0  0  0  0  0  0  0  0  0
   -0.0223    0.9507   -1.3591 C   0  0  1  0  0  0  0  0  0  0  0  0
    0.1918    1.9485   -2.3264 O   0  0  0  0  0  0  0  0  0  0  0  0
   -0.0711    1.6110    0.0285 C   0  0  2  0  0  0  0  0  0  0  0  0
    1.1951    2.1285    0.3470 O   0  0  0  0  0  0  0  0  0  0  0  0
    3.2787   -1.1506    1.7729 H   0  0  0  0  0  0  0  0  0  0  0  0
    3.0648   -1.1409    3.5689 H   0  0  0  0  0  0  0  0  0  0  0  0
    2.1200   -2.2993    2.5560 H   0  0  0  0  0  0  0  0  0  0  0  0
    0.6533   -1.1731    0.6804 H   0  0  0  0  0  0  0  0  0  0  0  0
   -0.7687    1.1600    2.0348 H   0  0  0  0  0  0  0  0  0  0  0  0
   -2.6397    0.6746    0.5474 H   0  0  0  0  0  0  0  0  0  0  0  0
   -3.0956   -1.3883    1.2903 H   0  0  0  0  0  0  0  0  0  0  0  0
   -2.1865    0.9591   -1.6979 H   0  0  0  0  0  0  0  0  0  0  0  0
   -0.4719   -1.2561   -2.9738 H   0  0  0  0  0  0  0  0  0  0  0  0
   -1.1428    0.2075   -3.8041 H   0  0  0  0  0  0  0  0  0  0  0  0
   -2.4273   -1.6551   -4.0667 H   0  0  0  0  0  0  0  0  0  0  0  0
    0.8146    0.2107   -1.3682 H   0  0  0  0  0  0  0  0  0  0  0  0
    0.7624    1.5525   -3.0358 H   0  0  0  0  0  0  0  0  0  0  0  0
   -0.8108    2.4464   -0.0121 H   0  0  0  0  0  0  0  0  0  0  0  0
    1.0650    2.7536    1.1073 H   0  0  0  0  0  0  0  0  0  0  0  0
  1  2  1  0  0  0  0
  1 16  1  0  0  0  0
  1 17  1  0  0  0  0
  1 18  1  0  0  0  0
  2  3  2  0  0  0  0
  2  4  1  0  0  0  0
  4  5  1  0  0  0  0
  4 19  1  0  0  0  0
  5  6  1  0  0  0  0
  5 20  1  1  0  0  0
  6  7  1  0  0  0  0
  6  8  1  0  0  0  0
  6 21  1  6  0  0  0
  7 22  1  0  0  0  0
  8  9  1  0  0  0  0
  9 10  1  0  0  0  0
  9 12  1  0  0  0  0
  9 23  1  6  0  0  0
 10 11  1  0  0  0  0
 10 24  1  0  0  0  0
 10 25  1  0  0  0  0
 11 26  1  0  0  0  0
 12 13  1  0  0  0  0
 12 14  1  0  0  0  0
 12 27  1  6  0  0  0
 13 28  1  0  0  0  0
 14 15  1  0  0  0  0
 14  5  1  0  0  0  0
 14 29  1  6  0  0  0
 15 30  1  0  0  0  0
M  END
>  <UniqueID>
85

>  <SMILES>
CC(=O)N[C@@H]1[C@H](O)O[C@H](CO)[C@@H](O)[C@@H]1O

>  <Energy>
23.309873386510723

>  <Genealogy>
CC(=O)N[C@@H]1[C@H](O)O[C@H](CO)[C@@H](O)[C@@H]1O (3D coordinates assigned)
CC(=O)N[C@@H]1[C@H](O)O[C@H](CO)[C@@H](O)[C@@H]1O (nonaromatic ring conformer: 23.309873386510723 kcal/mol)

$$$$
11096158
 OpenBabel03032110343D

 30 30  0  0  0  0  0  0  0  0999 V2000
   -1.2937    0.0266    3.4891 H   0  0  0  0  0  0  0  0  0  0  0  0
   -0.3256   -0.0971    3.7516 O   0  0  0  0  0  0  0  0  0  0  0  0
    0.7405   -0.0174    2.8510 C   0  0  0  0  0  0  0  0  0  0  0  0
    0.5718    0.2458    1.5862 N   0  0  0  0  0  0  0  0  0  0  0  0
   -0.6993    0.4755    0.8889 C   0  0  2  0  0  0  0  0  0  0  0  0
   -1.4085    1.0274    1.5424 H   0  0  0  0  0  0  0  0  0  0  0  0
   -1.3277   -0.8607    0.4284 C   0  0  2  0  0  0  0  0  0  0  0  0
   -2.3112   -0.6489   -0.0515 H   0  0  0  0  0  0  0  0  0  0  0  0
   -1.5952   -1.6913    1.5282 O   0  0  0  0  0  0  0  0  0  0  0  0
   -0.7509   -2.1555    1.7671 H   0  0  0  0  0  0  0  0  0  0  0  0
   -0.4716   -1.5303   -0.4854 O   0  0  0  0  0  0  0  0  0  0  0  0
   -0.3424   -0.7868   -1.6868 C   0  0  2  0  0  0  0  0  0  0  0  0
   -1.3473   -0.6097   -2.1380 H   0  0  0  0  0  0  0  0  0  0  0  0
    0.4487   -1.6296   -2.7003 C   0  0  0  0  0  0  0  0  0  0  0  0
   -0.0820   -2.5924   -2.8817 H   0  0  0  0  0  0  0  0  0  0  0  0
    0.4982   -1.1003   -3.6752 H   0  0  0  0  0  0  0  0  0  0  0  0
    1.7556   -1.8724   -2.2508 O   0  0  0  0  0  0  0  0  0  0  0  0
    1.6967   -2.6015   -1.5797 H   0  0  0  0  0  0  0  0  0  0  0  0
    0.3426    0.5778   -1.4184 C   0  0  1  0  0  0  0  0  0  0  0  0
    1.3752    0.4064   -1.0288 H   0  0  0  0  0  0  0  0  0  0  0  0
    0.3814    1.3390   -2.5996 O   0  0  0  0  0  0  0  0  0  0  0  0
    1.2559    1.1607   -3.0344 H   0  0  0  0  0  0  0  0  0  0  0  0
   -0.4502    1.3545   -0.3494 C   0  0  2  0  0  0  0  0  0  0  0  0
   -1.4439    1.6406   -0.7718 H   0  0  0  0  0  0  0  0  0  0  0  0
    0.2482    2.5136    0.0294 O   0  0  0  0  0  0  0  0  0  0  0  0
    0.1053    3.1848   -0.6880 H   0  0  0  0  0  0  0  0  0  0  0  0
    2.1265   -0.2213    3.3628 C   0  0  0  0  0  0  0  0  0  0  0  0
    2.6535   -0.9722    2.7371 H   0  0  0  0  0  0  0  0  0  0  0  0
    2.6811    0.7396    3.3285 H   0  0  0  0  0  0  0  0  0  0  0  0
    2.0990   -0.5856    4.4113 H   0  0  0  0  0  0  0  0  0  0  0  0
  1  2  1  0  0  0  0
  2  3  1  0  0  0  0
  3  4  2  0  0  0  0
  3 27  1  0  0  0  0
  4  5  1  0  0  0  0
  5  6  1  1  0  0  0
  5  7  1  0  0  0  0
  7  8  1  6  0  0  0
  7  9  1  0  0  0  0
  7 11  1  0  0  0  0
  9 10  1  0  0  0  0
 11 12  1  0  0  0  0
 12 13  1  6  0  0  0
 12 14  1  0  0  0  0
 12 19  1  0  0  0  0
 14 15  1  0  0  0  0
 14 16  1  0  0  0  0
 14 17  1  0  0  0  0
 17 18  1  0  0  0  0
 19 20  1  1  0  0  0
 19 21  1  0  0  0  0
 19 23  1  0  0  0  0
 21 22  1  0  0  0  0
 23 24  1  6  0  0  0
 23 25  1  0  0  0  0
 23  5  1  0  0  0  0
 25 26  1  0  0  0  0
 27 28  1  0  0  0  0
 27 29  1  0  0  0  0
 27 30  1  0  0  0  0
M  END
>  <UniqueID>
86

>  <SMILES>
C/C(O)=N\[C@@H]1[C@H](O)O[C@H](CO)[C@@H](O)[C@@H]1O

>  <Energy>
27.997009952871007

>  <Genealogy>
CC(O)=N[C@@H]1[C@H](O)O[C@H](CO)[C@@H](O)[C@@H]1O (tautomer)
C/C(O)=N\[C@@H]1[C@H](O)O[C@H](CO)[C@@H](O)[C@@H]1O (cis-trans isomerization)
C/C(O)=N\[C@@H]1[C@H](O)O[C@H](CO)[C@@H](O)[C@@H]1O (3D coordinates assigned)
C/C(O)=N\[C@@H]1[C@H](O)O[C@H](CO)[C@@H](O)[C@@H]1O (nonaromatic ring conformer: 27.997009952871007 kcal/mol)

$$$$
9816401
 OpenBabel03032110343D

 33 33  0  0  0  0  0  0  0  0999 V2000
   -1.1565   -3.5646    0.5289 C   0  0  0  0  0  0  0  0  0  0  0  0
   -0.2609   -2.5335   -0.1534 C   0  0  1  0  0  0  0  0  0  0  0  0
    0.1218   -1.5606    0.8043 O   0  0  0  0  0  0  0  0  0  0  0  0
    0.4018   -0.3026    0.2049 C   0  0  1  0  0  0  0  0  0  0  0  0
   -0.8025    0.6364    0.4037 C   0  0  2  0  0  0  0  0  0  0  0  0
   -1.8901    0.1590   -0.3479 O   0  0  0  0  0  0  0  0  0  0  0  0
   -0.4318    2.0681   -0.0539 C   0  0  1  0  0  0  0  0  0  0  0  0
   -1.5944    3.0475    0.1563 C   0  0  0  0  0  0  0  0  0  0  0  0
   -1.9254    3.1304    1.5157 O   0  0  0  0  0  0  0  0  0  0  0  0
    0.6935    2.5529    0.6624 O   0  0  0  0  0  0  0  0  0  0  0  0
    1.8486    1.7644    0.4193 C   0  0  2  0  0  0  0  0  0  0  0  0
    2.2220    1.8104   -0.9359 O   0  0  0  0  0  0  0  0  0  0  0  0
    1.6421    0.3074    0.8867 C   0  0  2  0  0  0  0  0  0  0  0  0
    2.8329   -0.4928    0.5894 N   0  0  0  0  0  0  0  0  0  0  0  0
    0.9590   -3.2092   -0.7135 C   0  0  0  0  0  0  0  0  0  0  0  0
    1.1955   -3.1642   -1.9493 O   0  0  0  0  0  0  0  0  0  0  0  0
    1.8371   -3.8808    0.1288 O   0  5  0  0  0  0  0  0  0  0  0  0
   -1.4611   -4.3512   -0.1947 H   0  0  0  0  0  0  0  0  0  0  0  0
   -2.0722   -3.0670    0.9134 H   0  0  0  0  0  0  0  0  0  0  0  0
   -0.6277   -4.0401    1.3830 H   0  0  0  0  0  0  0  0  0  0  0  0
   -0.8615   -2.0963   -0.9857 H   0  0  0  0  0  0  0  0  0  0  0  0
    0.6281   -0.3801   -0.8879 H   0  0  0  0  0  0  0  0  0  0  0  0
   -1.0528    0.6500    1.4927 H   0  0  0  0  0  0  0  0  0  0  0  0
   -2.7116    0.3275    0.1833 H   0  0  0  0  0  0  0  0  0  0  0  0
   -0.2216    2.0594   -1.1485 H   0  0  0  0  0  0  0  0  0  0  0  0
   -2.4807    2.7224   -0.4329 H   0  0  0  0  0  0  0  0  0  0  0  0
   -1.2887    4.0523   -0.2126 H   0  0  0  0  0  0  0  0  0  0  0  0
   -2.6804    3.7715    1.5765 H   0  0  0  0  0  0  0  0  0  0  0  0
    2.6777    2.1929    1.0270 H   0  0  0  0  0  0  0  0  0  0  0  0
    2.4448    2.7575   -1.1324 H   0  0  0  0  0  0  0  0  0  0  0  0
    1.4774    0.3181    1.9896 H   0  0  0  0  0  0  0  0  0  0  0  0
    2.7233   -1.4276    1.0445 H   0  0  0  0  0  0  0  0  0  0  0  0
    3.6559   -0.0487    1.0582 H   0  0  0  0  0  0  0  0  0  0  0  0
  1  2  1  0  0  0  0
  1 18  1  0  0  0  0
  1 19  1  0  0  0  0
  1 20  1  0  0  0  0
  2  3  1  0  0  0  0
  2 15  1  0  0  0  0
  2 21  1  6  0  0  0
  3  4  1  0  0  0  0
  4  5  1  0  0  0  0
  4 22  1  6  0  0  0
  5  6  1  0  0  0  0
  5  7  1  0  0  0  0
  5 23  1  1  0  0  0
  6 24  1  0  0  0  0
  7  8  1  0  0  0  0
  7 10  1  0  0  0  0
  7 25  1  6  0  0  0
  8  9  1  0  0  0  0
  8 26  1  0  0  0  0
  8 27  1  0  0  0  0
  9 28  1  0  0  0  0
 10 11  1  0  0  0  0
 11 12  1  0  0  0  0
 11 13  1  0  0  0  0
 11 29  1  1  0  0  0
 12 30  1  0  0  0  0
 13 14  1  0  0  0  0
 13  4  1  0  0  0  0
 13 31  1  1  0  0  0
 14 32  1  0  0  0  0
 14 33  1  0  0  0  0
 15 16  2  0  0  0  0
 15 17  1  0  0  0  0
M  CHG  1  17  -1
M  END
>  <UniqueID>
87

>  <SMILES>
C[C@@H](O[C@H]1[C@H](O)[C@@H](CO)O[C@H](O)[C@@H]1N)C(=O)[O-]

>  <Energy>
30.58300685588751

>  <Genealogy>
C[C@@H](O[C@H]1[C@H](O)[C@@H](CO)O[C@H](O)[C@@H]1N)C(=O)[O-] (protonated)
C[C@@H](O[C@H]1[C@H](O)[C@@H](CO)O[C@H](O)[C@@H]1N)C(=O)[O-] (3D coordinates assigned)
C[C@@H](O[C@H]1[C@H](O)[C@@H](CO)O[C@H](O)[C@@H]1N)C(=O)[O-] (nonaromatic ring conformer: 30.58300685588751 kcal/mol)

$$$$
9816401
 OpenBabel03032110343D

 34 34  0  0  0  0  0  0  0  0999 V2000
   -1.8297   -2.3596    2.0844 C   0  0  0  0  0  0  0  0  0  0  0  0
   -1.4596   -2.3027    0.6051 C   0  0  1  0  0  0  0  0  0  0  0  0
   -0.7659   -1.0913    0.3583 O   0  0  0  0  0  0  0  0  0  0  0  0
   -0.9238   -0.6503   -0.9830 C   0  0  1  0  0  0  0  0  0  0  0  0
   -2.1229    0.3214   -1.0791 C   0  0  2  0  0  0  0  0  0  0  0  0
   -2.5202    0.4288   -2.4231 O   0  0  0  0  0  0  0  0  0  0  0  0
   -1.7923    1.7306   -0.5142 C   0  0  1  0  0  0  0  0  0  0  0  0
   -1.9176    1.8199    1.0234 C   0  0  0  0  0  0  0  0  0  0  0  0
   -1.5379    3.0920    1.4744 O   0  0  0  0  0  0  0  0  0  0  0  0
   -0.5581    2.2459   -0.9982 O   0  0  0  0  0  0  0  0  0  0  0  0
    0.5380    1.3931   -0.7089 C   0  0  2  0  0  0  0  0  0  0  0  0
    1.7222    2.0126   -1.1329 O   0  0  0  0  0  0  0  0  0  0  0  0
    0.3886    0.0353   -1.4262 C   0  0  2  0  0  0  0  0  0  0  0  0
    0.4621    0.1899   -2.8890 N   0  3  0  0  0  0  0  0  0  0  0  0
   -0.5898   -3.4764    0.2548 C   0  0  0  0  0  0  0  0  0  0  0  0
    0.6336   -3.4754    0.5547 O   0  0  0  0  0  0  0  0  0  0  0  0
   -1.1425   -4.5875   -0.3693 O   0  5  0  0  0  0  0  0  0  0  0  0
   -2.4875   -1.5009    2.3376 H   0  0  0  0  0  0  0  0  0  0  0  0
   -0.9178   -2.3064    2.7176 H   0  0  0  0  0  0  0  0  0  0  0  0
   -2.3759   -3.3007    2.3104 H   0  0  0  0  0  0  0  0  0  0  0  0
   -2.4140   -2.3674    0.0307 H   0  0  0  0  0  0  0  0  0  0  0  0
   -1.0991   -1.5109   -1.6740 H   0  0  0  0  0  0  0  0  0  0  0  0
   -2.9706   -0.1102   -0.4966 H   0  0  0  0  0  0  0  0  0  0  0  0
   -3.4553    0.7631   -2.4255 H   0  0  0  0  0  0  0  0  0  0  0  0
   -2.5809    2.4130   -0.9011 H   0  0  0  0  0  0  0  0  0  0  0  0
   -1.2856    1.0649    1.5294 H   0  0  0  0  0  0  0  0  0  0  0  0
   -2.9682    1.6073    1.3273 H   0  0  0  0  0  0  0  0  0  0  0  0
   -2.2785    3.7099    1.2392 H   0  0  0  0  0  0  0  0  0  0  0  0
    0.6287    1.2155    0.3865 H   0  0  0  0  0  0  0  0  0  0  0  0
    1.8249    2.8315   -0.5811 H   0  0  0  0  0  0  0  0  0  0  0  0
    1.2346   -0.6170   -1.1084 H   0  0  0  0  0  0  0  0  0  0  0  0
    1.4306    0.4725   -3.1639 H   0  0  0  0  0  0  0  0  0  0  0  0
   -0.2041    0.9186   -3.2305 H   0  0  0  0  0  0  0  0  0  0  0  0
    0.2537   -0.7191   -3.3621 H   0  0  0  0  0  0  0  0  0  0  0  0
  1  2  1  0  0  0  0
  1 18  1  0  0  0  0
  1 19  1  0  0  0  0
  1 20  1  0  0  0  0
  2  3  1  0  0  0  0
  2 15  1  0  0  0  0
  2 21  1  6  0  0  0
  3  4  1  0  0  0  0
  4  5  1  0  0  0  0
  4 22  1  6  0  0  0
  5  6  1  0  0  0  0
  5  7  1  0  0  0  0
  5 23  1  1  0  0  0
  6 24  1  0  0  0  0
  7  8  1  0  0  0  0
  7 10  1  0  0  0  0
  7 25  1  6  0  0  0
  8  9  1  0  0  0  0
  8 26  1  0  0  0  0
  8 27  1  0  0  0  0
  9 28  1  0  0  0  0
 10 11  1  0  0  0  0
 11 12  1  0  0  0  0
 11 13  1  0  0  0  0
 11 29  1  1  0  0  0
 12 30  1  0  0  0  0
 13 14  1  0  0  0  0
 13  4  1  0  0  0  0
 13 31  1  1  0  0  0
 14 32  1  0  0  0  0
 14 33  1  0  0  0  0
 14 34  1  0  0  0  0
 15 16  2  0  0  0  0
 15 17  1  0  0  0  0
M  CHG  2  14   1  17  -1
M  END
>  <UniqueID>
88

>  <SMILES>
C[C@@H](O[C@H]1[C@H](O)[C@@H](CO)O[C@H](O)[C@@H]1[NH3+])C(=O)[O-]

>  <Energy>
36.715999851952766

>  <Genealogy>
C[C@@H](O[C@H]1[C@H](O)[C@@H](CO)O[C@H](O)[C@@H]1[NH3+])C(=O)[O-] (protonated)
C[C@@H](O[C@H]1[C@H](O)[C@@H](CO)O[C@H](O)[C@@H]1[NH3+])C(=O)[O-] (3D coordinates assigned)
C[C@@H](O[C@H]1[C@H](O)[C@@H](CO)O[C@H](O)[C@@H]1[NH3+])C(=O)[O-] (nonaromatic ring conformer: 36.715999851952766 kcal/mol)

$$$$
7067772
 OpenBabel03032110343D

 33 33  0  0  0  0  0  0  0  0999 V2000
   -2.3142   -1.2285   -2.9331 H   0  0  0  0  0  0  0  0  0  0  0  0
   -1.6132   -0.8942   -2.2854 O   0  0  0  0  0  0  0  0  0  0  0  0
   -1.6830    0.3615   -1.6736 C   0  0  0  0  0  0  0  0  0  0  0  0
   -0.7885    0.7016   -0.7926 N   0  0  0  0  0  0  0  0  0  0  0  0
    0.3210   -0.1487   -0.3529 C   0  0  1  0  0  0  0  0  0  0  0  0
    0.6837   -0.7772   -1.1986 H   0  0  0  0  0  0  0  0  0  0  0  0
    1.4914    0.7442    0.1103 C   0  0  2  0  0  0  0  0  0  0  0  0
    1.1506    1.4331    0.9236 H   0  0  0  0  0  0  0  0  0  0  0  0
    1.9532    1.5090   -0.9726 O   0  0  0  0  0  0  0  0  0  0  0  0
    1.3528    2.2958   -1.0534 H   0  0  0  0  0  0  0  0  0  0  0  0
    2.5663   -0.0544    0.5713 O   0  0  0  0  0  0  0  0  0  0  0  0
    2.1963   -0.7704    1.7379 C   0  0  2  0  0  0  0  0  0  0  0  0
    1.8329   -0.0683    2.5255 H   0  0  0  0  0  0  0  0  0  0  0  0
    3.4485   -1.4543    2.3074 C   0  0  0  0  0  0  0  0  0  0  0  0
    3.2086   -1.9962    3.2514 H   0  0  0  0  0  0  0  0  0  0  0  0
    4.1923   -0.6715    2.5682 H   0  0  0  0  0  0  0  0  0  0  0  0
    4.0283   -2.3129    1.3605 O   0  0  0  0  0  0  0  0  0  0  0  0
    3.6453   -3.2153    1.5157 H   0  0  0  0  0  0  0  0  0  0  0  0
    1.0787   -1.7895    1.4100 C   0  0  1  0  0  0  0  0  0  0  0  0
    1.4502   -2.5165    0.6475 H   0  0  0  0  0  0  0  0  0  0  0  0
    0.6714   -2.4586    2.5773 O   0  0  0  0  0  0  0  0  0  0  0  0
    1.1957   -3.2998    2.6308 H   0  0  0  0  0  0  0  0  0  0  0  0
   -0.1294   -1.0535    0.8129 C   0  0  2  0  0  0  0  0  0  0  0  0
   -0.5806   -0.4170    1.6137 H   0  0  0  0  0  0  0  0  0  0  0  0
   -1.0627   -2.0020    0.3620 O   0  0  0  0  0  0  0  0  0  0  0  0
   -1.9633   -1.5972    0.4651 H   0  0  0  0  0  0  0  0  0  0  0  0
   -2.7337    1.2892   -2.0023 N   0  0  0  0  0  0  0  0  0  0  0  0
   -2.9199    2.4115   -1.1729 N   0  0  0  0  0  0  0  0  0  0  0  0
   -3.8557    3.2174   -1.3561 O   0  0  0  0  0  0  0  0  0  0  0  0
   -3.6383    1.0316   -3.1266 C   0  0  0  0  0  0  0  0  0  0  0  0
   -4.1972    1.9463   -3.4122 H   0  0  0  0  0  0  0  0  0  0  0  0
   -4.3647    0.2396   -2.8481 H   0  0  0  0  0  0  0  0  0  0  0  0
   -3.0585    0.7127   -4.0184 H   0  0  0  0  0  0  0  0  0  0  0  0
  1  2  1  0  0  0  0
  2  3  1  0  0  0  0
  3  4  2  0  0  0  0
  3 27  1  0  0  0  0
  4  5  1  0  0  0  0
  5  6  1  6  0  0  0
  5  7  1  0  0  0  0
  7  8  1  1  0  0  0
  7  9  1  0  0  0  0
  7 11  1  0  0  0  0
  9 10  1  0  0  0  0
 11 12  1  0  0  0  0
 12 13  1  1  0  0  0
 12 14  1  0  0  0  0
 12 19  1  0  0  0  0
 14 15  1  0  0  0  0
 14 16  1  0  0  0  0
 14 17  1  0  0  0  0
 17 18  1  0  0  0  0
 19 20  1  6  0  0  0
 19 21  1  0  0  0  0
 19 23  1  0  0  0  0
 21 22  1  0  0  0  0
 23 24  1  1  0  0  0
 23 25  1  0  0  0  0
 23  5  1  0  0  0  0
 25 26  1  0  0  0  0
 27 28  1  0  0  0  0
 27 30  1  0  0  0  0
 28 29  2  0  0  0  0
 30 31  1  0  0  0  0
 30 32  1  0  0  0  0
 30 33  1  0  0  0  0
M  END
>  <UniqueID>
89

>  <SMILES>
CN(N=O)/C(O)=N\[C@H]1[C@H](O)O[C@H](CO)[C@@H](O)[C@@H]1O

>  <Energy>
30.29680881206183

>  <Genealogy>
CN(N=O)C(O)=N[C@H]1[C@H](O)O[C@H](CO)[C@@H](O)[C@@H]1O (tautomer)
CN(N=O)/C(O)=N\[C@H]1[C@H](O)O[C@H](CO)[C@@H](O)[C@@H]1O (cis-trans isomerization)
CN(N=O)/C(O)=N\[C@H]1[C@H](O)O[C@H](CO)[C@@H](O)[C@@H]1O (3D coordinates assigned)
CN(N=O)/C(O)=N\[C@H]1[C@H](O)O[C@H](CO)[C@@H](O)[C@@H]1O (nonaromatic ring conformer: 30.29680881206183 kcal/mol)

$$$$
7067772
 OpenBabel03032110343D

 34 34  0  0  0  0  0  0  0  0999 V2000
   -0.9236   -3.2242    0.8332 H   0  0  0  0  0  0  0  0  0  0  0  0
   -1.6483   -3.2163    0.1280 O   0  0  0  0  0  0  0  0  0  0  0  0
   -2.2115   -2.0347   -0.3606 C   0  0  0  0  0  0  0  0  0  0  0  0
   -1.6549   -0.7675    0.0490 N   0  0  0  0  0  0  0  0  0  0  0  0
   -2.2763    0.0691    0.1234 H   0  0  0  0  0  0  0  0  0  0  0  0
   -0.2357   -0.5792    0.3686 C   0  0  1  0  0  0  0  0  0  0  0  0
    0.3413   -1.5058    0.1549 H   0  0  0  0  0  0  0  0  0  0  0  0
    0.3592    0.5448   -0.5064 C   0  0  2  0  0  0  0  0  0  0  0  0
   -0.2124    1.4952   -0.3573 H   0  0  0  0  0  0  0  0  0  0  0  0
    0.2872    0.1725   -1.8578 O   0  0  0  0  0  0  0  0  0  0  0  0
   -0.6245    0.4013   -2.1767 H   0  0  0  0  0  0  0  0  0  0  0  0
    1.7224    0.7439   -0.1797 O   0  0  0  0  0  0  0  0  0  0  0  0
    1.8564    1.2345    1.1442 C   0  0  2  0  0  0  0  0  0  0  0  0
    1.2637    2.1706    1.2778 H   0  0  0  0  0  0  0  0  0  0  0  0
    3.3308    1.5915    1.3852 C   0  0  0  0  0  0  0  0  0  0  0  0
    3.9741    0.6889    1.2664 H   0  0  0  0  0  0  0  0  0  0  0  0
    3.4625    1.9654    2.4227 H   0  0  0  0  0  0  0  0  0  0  0  0
    3.7382    2.6043    0.5047 O   0  0  0  0  0  0  0  0  0  0  0  0
    3.9598    2.1637   -0.3569 H   0  0  0  0  0  0  0  0  0  0  0  0
    1.3788    0.1710    2.1595 C   0  0  1  0  0  0  0  0  0  0  0  0
    2.0264   -0.7333    2.0566 H   0  0  0  0  0  0  0  0  0  0  0  0
    1.4678    0.6899    3.4626 O   0  0  0  0  0  0  0  0  0  0  0  0
    1.5618   -0.0845    4.0766 H   0  0  0  0  0  0  0  0  0  0  0  0
   -0.0807   -0.2167    1.8555 C   0  0  2  0  0  0  0  0  0  0  0  0
   -0.7407    0.6577    2.0757 H   0  0  0  0  0  0  0  0  0  0  0  0
   -0.4600   -1.3157    2.6436 O   0  0  0  0  0  0  0  0  0  0  0  0
   -0.7406   -0.9571    3.5258 H   0  0  0  0  0  0  0  0  0  0  0  0
   -3.2453   -2.0861   -1.1751 N   0  3  0  0  0  0  0  0  0  0  0  0
   -3.8440   -3.3045   -1.5643 N   0  0  0  0  0  0  0  0  0  0  0  0
   -3.4581   -4.4189   -1.1535 O   0  0  0  0  0  0  0  0  0  0  0  0
   -3.8435   -0.8664   -1.7252 C   0  0  0  0  0  0  0  0  0  0  0  0
   -4.5902   -1.1185   -2.5085 H   0  0  0  0  0  0  0  0  0  0  0  0
   -3.0654   -0.2289   -2.1965 H   0  0  0  0  0  0  0  0  0  0  0  0
   -4.3653   -0.3033   -0.9225 H   0  0  0  0  0  0  0  0  0  0  0  0
  1  2  1  0  0  0  0
  2  3  1  0  0  0  0
  3  4  1  0  0  0  0
  3 28  2  0  0  0  0
  4  5  1  0  0  0  0
  4  6  1  0  0  0  0
  6  7  1  6  0  0  0
  6  8  1  0  0  0  0
  8  9  1  1  0  0  0
  8 10  1  0  0  0  0
  8 12  1  0  0  0  0
 10 11  1  0  0  0  0
 12 13  1  0  0  0  0
 13 14  1  1  0  0  0
 13 15  1  0  0  0  0
 13 20  1  0  0  0  0
 15 16  1  0  0  0  0
 15 17  1  0  0  0  0
 15 18  1  0  0  0  0
 18 19  1  0  0  0  0
 20 21  1  6  0  0  0
 20 22  1  0  0  0  0
 20 24  1  0  0  0  0
 22 23  1  0  0  0  0
 24 25  1  1  0  0  0
 24 26  1  0  0  0  0
 24  6  1  0  0  0  0
 26 27  1  0  0  0  0
 28 29  1  0  0  0  0
 28 31  1  0  0  0  0
 29 30  2  0  0  0  0
 31 32  1  0  0  0  0
 31 33  1  0  0  0  0
 31 34  1  0  0  0  0
M  CHG  1  28   1
M  END
>  <UniqueID>
90

>  <SMILES>
C/[N+](N=O)=C(\O)N[C@H]1[C@H](O)O[C@H](CO)[C@@H](O)[C@@H]1O

>  <Energy>
35.84846761146365

>  <Genealogy>
C[NH+](N=O)C(=O)N[C@H]1[C@H](O)O[C@H](CO)[C@@H](O)[C@@H]1O (protonated)
C[N+](N=O)=C(O)N[C@H]1[C@H](O)O[C@H](CO)[C@@H](O)[C@@H]1O (tautomer)
C/[N+](N=O)=C(\O)N[C@H]1[C@H](O)O[C@H](CO)[C@@H](O)[C@@H]1O (cis-trans isomerization)
C/[N+](N=O)=C(\O)N[C@H]1[C@H](O)O[C@H](CO)[C@@H](O)[C@@H]1O (3D coordinates assigned)
C/[N+](N=O)=C(\O)N[C@H]1[C@H](O)O[C@H](CO)[C@@H](O)[C@@H]1O (nonaromatic ring conformer: 35.84846761146365 kcal/mol)

$$$$
6971258
 OpenBabel03032110343D

 30 30  0  0  0  0  0  0  0  0999 V2000
   -2.6447    1.2130   -3.8791 C   0  0  0  0  0  0  0  0  0  0  0  0
   -1.6087    1.4564   -2.8307 C   0  0  0  0  0  0  0  0  0  0  0  0
   -1.3032    2.6400   -2.5217 O   0  0  0  0  0  0  0  0  0  0  0  0
   -0.9389    0.3466   -2.2156 N   0  0  0  0  0  0  0  0  0  0  0  0
    0.0668    0.5224   -1.1588 C   0  0  1  0  0  0  0  0  0  0  0  0
   -0.5948    0.9548    0.1739 C   0  0  1  0  0  0  0  0  0  0  0  0
   -1.6015    0.0546    0.5725 O   0  0  0  0  0  0  0  0  0  0  0  0
    0.3727    1.1099    1.2017 O   0  0  0  0  0  0  0  0  0  0  0  0
    1.0401   -0.1113    1.4846 C   0  0  2  0  0  0  0  0  0  0  0  0
    1.9634    0.0919    2.6946 C   0  0  0  0  0  0  0  0  0  0  0  0
    1.2171    0.4646    3.8217 O   0  0  0  0  0  0  0  0  0  0  0  0
    1.8394   -0.6125    0.2536 C   0  0  2  0  0  0  0  0  0  0  0  0
    2.9311    0.2240   -0.0512 O   0  0  0  0  0  0  0  0  0  0  0  0
    0.9046   -0.7607   -0.9643 C   0  0  1  0  0  0  0  0  0  0  0  0
    0.0556   -1.8663   -0.7754 O   0  0  0  0  0  0  0  0  0  0  0  0
   -2.1508    0.8856   -4.8175 H   0  0  0  0  0  0  0  0  0  0  0  0
   -3.3443    0.4213   -3.5383 H   0  0  0  0  0  0  0  0  0  0  0  0
   -3.2239    2.1399   -4.0772 H   0  0  0  0  0  0  0  0  0  0  0  0
   -1.1487   -0.6098   -2.5814 H   0  0  0  0  0  0  0  0  0  0  0  0
    0.7610    1.3308   -1.4785 H   0  0  0  0  0  0  0  0  0  0  0  0
   -1.0526    1.9583    0.0205 H   0  0  0  0  0  0  0  0  0  0  0  0
   -2.4048    0.2539    0.0243 H   0  0  0  0  0  0  0  0  0  0  0  0
    0.3061   -0.8978    1.7759 H   0  0  0  0  0  0  0  0  0  0  0  0
    2.6962    0.8984    2.4795 H   0  0  0  0  0  0  0  0  0  0  0  0
    2.5357   -0.8406    2.9058 H   0  0  0  0  0  0  0  0  0  0  0  0
    0.7796   -0.3603    4.1590 H   0  0  0  0  0  0  0  0  0  0  0  0
    2.2546   -1.6160    0.4945 H   0  0  0  0  0  0  0  0  0  0  0  0
    2.6034    1.1582   -0.1057 H   0  0  0  0  0  0  0  0  0  0  0  0
    1.5197   -0.9184   -1.8818 H   0  0  0  0  0  0  0  0  0  0  0  0
    0.5921   -2.6786   -0.9704 H   0  0  0  0  0  0  0  0  0  0  0  0
  1  2  1  0  0  0  0
  1 16  1  0  0  0  0
  1 17  1  0  0  0  0
  1 18  1  0  0  0  0
  2  3  2  0  0  0  0
  2  4  1  0  0  0  0
  4  5  1  0  0  0  0
  4 19  1  0  0  0  0
  5  6  1  0  0  0  0
  5 20  1  6  0  0  0
  6  7  1  0  0  0  0
  6  8  1  0  0  0  0
  6 21  1  6  0  0  0
  7 22  1  0  0  0  0
  8  9  1  0  0  0  0
  9 10  1  0  0  0  0
  9 12  1  0  0  0  0
  9 23  1  1  0  0  0
 10 11  1  0  0  0  0
 10 24  1  0  0  0  0
 10 25  1  0  0  0  0
 11 26  1  0  0  0  0
 12 13  1  0  0  0  0
 12 14  1  0  0  0  0
 12 27  1  1  0  0  0
 13 28  1  0  0  0  0
 14 15  1  0  0  0  0
 14  5  1  0  0  0  0
 14 29  1  6  0  0  0
 15 30  1  0  0  0  0
M  END
>  <UniqueID>
91

>  <SMILES>
CC(=O)N[C@H]1[C@@H](O)O[C@H](CO)[C@H](O)[C@H]1O

>  <Energy>
27.988809986596973

>  <Genealogy>
CC(=O)N[C@H]1[C@@H](O)O[C@H](CO)[C@H](O)[C@H]1O (3D coordinates assigned)
CC(=O)N[C@H]1[C@@H](O)O[C@H](CO)[C@H](O)[C@H]1O (nonaromatic ring conformer: 27.988809986596973 kcal/mol)

$$$$
6971258
 OpenBabel03032110343D

 30 30  0  0  0  0  0  0  0  0999 V2000
   -1.0494   -4.6205    2.1568 H   0  0  0  0  0  0  0  0  0  0  0  0
   -0.6704   -3.7786    1.7403 O   0  0  0  0  0  0  0  0  0  0  0  0
   -1.1950   -3.2595    0.5571 C   0  0  0  0  0  0  0  0  0  0  0  0
   -0.7151   -2.1681    0.0402 N   0  0  0  0  0  0  0  0  0  0  0  0
    0.3817   -1.3809    0.6150 C   0  0  1  0  0  0  0  0  0  0  0  0
    1.1156   -2.0539    1.1133 H   0  0  0  0  0  0  0  0  0  0  0  0
    1.1174   -0.6242   -0.5077 C   0  0  1  0  0  0  0  0  0  0  0  0
    1.9923   -0.0948   -0.0734 H   0  0  0  0  0  0  0  0  0  0  0  0
    1.6378   -1.5358   -1.4409 O   0  0  0  0  0  0  0  0  0  0  0  0
    0.8846   -1.8459   -2.0087 H   0  0  0  0  0  0  0  0  0  0  0  0
    0.2585    0.2972   -1.1681 O   0  0  0  0  0  0  0  0  0  0  0  0
   -0.2346    1.3063   -0.2934 C   0  0  2  0  0  0  0  0  0  0  0  0
   -0.9919    1.8763   -0.8755 H   0  0  0  0  0  0  0  0  0  0  0  0
    0.8530    2.3374    0.0903 C   0  0  0  0  0  0  0  0  0  0  0  0
    1.5528    1.9222    0.8428 H   0  0  0  0  0  0  0  0  0  0  0  0
    0.3806    3.2334    0.5537 H   0  0  0  0  0  0  0  0  0  0  0  0
    1.5883    2.7214   -1.0401 O   0  0  0  0  0  0  0  0  0  0  0  0
    0.9983    3.3146   -1.5746 H   0  0  0  0  0  0  0  0  0  0  0  0
   -0.9957    0.7099    0.9185 C   0  0  2  0  0  0  0  0  0  0  0  0
   -1.9204    0.2256    0.5223 H   0  0  0  0  0  0  0  0  0  0  0  0
   -1.3544    1.7328    1.8131 O   0  0  0  0  0  0  0  0  0  0  0  0
   -2.1054    1.3872    2.3628 H   0  0  0  0  0  0  0  0  0  0  0  0
   -0.1523   -0.3578    1.6370 C   0  0  1  0  0  0  0  0  0  0  0  0
    0.7124    0.1451    2.1304 H   0  0  0  0  0  0  0  0  0  0  0  0
   -0.9329   -0.9937    2.6159 O   0  0  0  0  0  0  0  0  0  0  0  0
   -0.3025   -1.4498    3.2327 H   0  0  0  0  0  0  0  0  0  0  0  0
   -2.3378   -3.9503   -0.1141 C   0  0  0  0  0  0  0  0  0  0  0  0
   -2.4277   -3.6244   -1.1725 H   0  0  0  0  0  0  0  0  0  0  0  0
   -2.1773   -5.0484   -0.0936 H   0  0  0  0  0  0  0  0  0  0  0  0
   -3.2792   -3.7092    0.4217 H   0  0  0  0  0  0  0  0  0  0  0  0
  1  2  1  0  0  0  0
  2  3  1  0  0  0  0
  3  4  2  0  0  0  0
  3 27  1  0  0  0  0
  4  5  1  0  0  0  0
  5  6  1  1  0  0  0
  5  7  1  0  0  0  0
  7  8  1  1  0  0  0
  7  9  1  0  0  0  0
  7 11  1  0  0  0  0
  9 10  1  0  0  0  0
 11 12  1  0  0  0  0
 12 13  1  6  0  0  0
 12 14  1  0  0  0  0
 12 19  1  0  0  0  0
 14 15  1  0  0  0  0
 14 16  1  0  0  0  0
 14 17  1  0  0  0  0
 17 18  1  0  0  0  0
 19 20  1  6  0  0  0
 19 21  1  0  0  0  0
 19 23  1  0  0  0  0
 21 22  1  0  0  0  0
 23 24  1  1  0  0  0
 23 25  1  0  0  0  0
 23  5  1  0  0  0  0
 25 26  1  0  0  0  0
 27 28  1  0  0  0  0
 27 29  1  0  0  0  0
 27 30  1  0  0  0  0
M  END
>  <UniqueID>
92

>  <SMILES>
C/C(O)=N/[C@H]1[C@@H](O)O[C@H](CO)[C@H](O)[C@H]1O

>  <Energy>
29.437824735680547

>  <Genealogy>
CC(O)=N[C@H]1[C@@H](O)O[C@H](CO)[C@H](O)[C@H]1O (tautomer)
C/C(O)=N/[C@H]1[C@@H](O)O[C@H](CO)[C@H](O)[C@H]1O (cis-trans isomerization)
C/C(O)=N/[C@H]1[C@@H](O)O[C@H](CO)[C@H](O)[C@H]1O (3D coordinates assigned)
C/C(O)=N/[C@H]1[C@@H](O)O[C@H](CO)[C@H](O)[C@H]1O (nonaromatic ring conformer: 29.437824735680547 kcal/mol)

$$$$
6713972
 OpenBabel03032110343D

 34 34  0  0  0  0  0  0  0  0999 V2000
    3.0183    1.3392    1.7450 H   0  0  0  0  0  0  0  0  0  0  0  0
    3.3261    0.4156    1.4656 O   0  0  0  0  0  0  0  0  0  0  0  0
    2.4049   -0.5939    1.1828 C   0  0  0  0  0  0  0  0  0  0  0  0
    1.0033   -0.2958    1.3268 N   0  0  0  0  0  0  0  0  0  0  0  0
    0.7487    0.3439    2.1131 H   0  0  0  0  0  0  0  0  0  0  0  0
   -0.0010   -0.5617    0.2819 C   0  0  1  0  0  0  0  0  0  0  0  0
   -0.1840   -1.6551    0.2238 H   0  0  0  0  0  0  0  0  0  0  0  0
   -1.3578    0.0883    0.6400 C   0  0  1  0  0  0  0  0  0  0  0  0
   -1.7140   -0.3943    1.5785 H   0  0  0  0  0  0  0  0  0  0  0  0
   -1.2189    1.4679    0.8764 O   0  0  0  0  0  0  0  0  0  0  0  0
   -2.0991    1.7846    1.2083 H   0  0  0  0  0  0  0  0  0  0  0  0
   -2.3284   -0.1640   -0.3654 O   0  0  0  0  0  0  0  0  0  0  0  0
   -1.9519    0.4010   -1.6132 C   0  0  2  0  0  0  0  0  0  0  0  0
   -1.8074    1.5022   -1.5195 H   0  0  0  0  0  0  0  0  0  0  0  0
   -3.1009    0.1835   -2.6094 C   0  0  0  0  0  0  0  0  0  0  0  0
   -2.8279    0.6094   -3.5981 H   0  0  0  0  0  0  0  0  0  0  0  0
   -3.2922   -0.9055   -2.7510 H   0  0  0  0  0  0  0  0  0  0  0  0
   -4.2622    0.8324   -2.1647 O   0  0  0  0  0  0  0  0  0  0  0  0
   -4.6919    0.2304   -1.5026 H   0  0  0  0  0  0  0  0  0  0  0  0
   -0.6493   -0.2485   -2.1344 C   0  0  1  0  0  0  0  0  0  0  0  0
   -0.8353   -1.3393   -2.2814 H   0  0  0  0  0  0  0  0  0  0  0  0
   -0.2764    0.3344   -3.3573 O   0  0  0  0  0  0  0  0  0  0  0  0
    0.3931   -0.2716   -3.7701 H   0  0  0  0  0  0  0  0  0  0  0  0
    0.4801   -0.0760   -1.1001 C   0  0  1  0  0  0  0  0  0  0  0  0
    1.3441   -0.7087   -1.4132 H   0  0  0  0  0  0  0  0  0  0  0  0
    0.8767    1.2718   -1.0225 O   0  0  0  0  0  0  0  0  0  0  0  0
    1.5304    1.4249   -1.7537 H   0  0  0  0  0  0  0  0  0  0  0  0
    2.8250   -1.7803    0.8198 N   0  3  0  0  0  0  0  0  0  0  0  0
    1.9114   -2.8468    0.7258 N   0  0  0  0  0  0  0  0  0  0  0  0
    2.2820   -4.0120    0.4728 O   0  0  0  0  0  0  0  0  0  0  0  0
    4.2627   -2.0363    0.6534 C   0  0  0  0  0  0  0  0  0  0  0  0
    4.7304   -2.2032    1.6467 H   0  0  0  0  0  0  0  0  0  0  0  0
    4.4370   -2.9289    0.0175 H   0  0  0  0  0  0  0  0  0  0  0  0
    4.7616   -1.1814    0.1474 H   0  0  0  0  0  0  0  0  0  0  0  0
  1  2  1  0  0  0  0
  2  3  1  0  0  0  0
  3  4  1  0  0  0  0
  3 28  2  0  0  0  0
  4  5  1  0  0  0  0
  4  6  1  0  0  0  0
  6  7  1  6  0  0  0
  6  8  1  0  0  0  0
  8  9  1  1  0  0  0
  8 10  1  0  0  0  0
  8 12  1  0  0  0  0
 10 11  1  0  0  0  0
 12 13  1  0  0  0  0
 13 14  1  1  0  0  0
 13 15  1  0  0  0  0
 13 20  1  0  0  0  0
 15 16  1  0  0  0  0
 15 17  1  0  0  0  0
 15 18  1  0  0  0  0
 18 19  1  0  0  0  0
 20 21  1  6  0  0  0
 20 22  1  0  0  0  0
 20 24  1  0  0  0  0
 22 23  1  0  0  0  0
 24 25  1  6  0  0  0
 24 26  1  0  0  0  0
 24  6  1  0  0  0  0
 26 27  1  0  0  0  0
 28 29  1  0  0  0  0
 28 31  1  0  0  0  0
 29 30  2  0  0  0  0
 31 32  1  0  0  0  0
 31 33  1  0  0  0  0
 31 34  1  0  0  0  0
M  CHG  1  28   1
M  END
>  <UniqueID>
93

>  <SMILES>
C/[N+](N=O)=C(\O)N[C@H]1[C@@H](O)O[C@H](CO)[C@@H](O)[C@H]1O

>  <Energy>
38.163014993226

>  <Genealogy>
C[NH+](N=O)C(=O)NC1[C@@H](O)OC(CO)[C@@H](O)[C@H]1O (protonated)
C[N+](N=O)=C(O)NC1[C@@H](O)OC(CO)[C@@H](O)[C@H]1O (tautomer)
C[N+](N=O)=C(O)N[C@H]1[C@@H](O)O[C@H](CO)[C@@H](O)[C@H]1O (chirality)
C/[N+](N=O)=C(\O)N[C@H]1[C@@H](O)O[C@H](CO)[C@@H](O)[C@H]1O (cis-trans isomerization)
C/[N+](N=O)=C(\O)N[C@H]1[C@@H](O)O[C@H](CO)[C@@H](O)[C@H]1O (3D coordinates assigned)
C/[N+](N=O)=C(\O)N[C@H]1[C@@H](O)O[C@H](CO)[C@@H](O)[C@H]1O (nonaromatic ring conformer: 38.163014993226 kcal/mol)

$$$$
6713972
 OpenBabel03032110343D

 34 34  0  0  0  0  0  0  0  0999 V2000
    3.9524    0.2327    0.7936 H   0  0  0  0  0  0  0  0  0  0  0  0
    3.0074   -0.0480    0.5684 O   0  0  0  0  0  0  0  0  0  0  0  0
    2.3997    0.1421   -0.6810 C   0  0  0  0  0  0  0  0  0  0  0  0
    1.0341   -0.2941   -0.8405 N   0  0  0  0  0  0  0  0  0  0  0  0
    0.5777   -0.2402   -1.7785 H   0  0  0  0  0  0  0  0  0  0  0  0
    0.2805   -0.8808    0.2765 C   0  0  2  0  0  0  0  0  0  0  0  0
    0.9357   -1.6244    0.7856 H   0  0  0  0  0  0  0  0  0  0  0  0
   -0.9654   -1.6401   -0.2467 C   0  0  1  0  0  0  0  0  0  0  0  0
   -1.4361   -1.0757   -1.0873 H   0  0  0  0  0  0  0  0  0  0  0  0
   -0.5681   -2.8946   -0.7296 O   0  0  0  0  0  0  0  0  0  0  0  0
   -1.3746   -3.3076   -1.1355 H   0  0  0  0  0  0  0  0  0  0  0  0
   -1.8998   -1.8203    0.8030 O   0  0  0  0  0  0  0  0  0  0  0  0
   -2.5186   -0.5940    1.1864 C   0  0  2  0  0  0  0  0  0  0  0  0
   -2.7977   -0.7148    2.2568 H   0  0  0  0  0  0  0  0  0  0  0  0
   -3.8264   -0.3966    0.4052 C   0  0  0  0  0  0  0  0  0  0  0  0
   -3.6090   -0.2113   -0.6700 H   0  0  0  0  0  0  0  0  0  0  0  0
   -4.4383   -1.3230    0.4850 H   0  0  0  0  0  0  0  0  0  0  0  0
   -4.5464    0.6818    0.9361 O   0  0  0  0  0  0  0  0  0  0  0  0
   -5.3730    0.7558    0.3920 H   0  0  0  0  0  0  0  0  0  0  0  0
   -1.5811    0.6469    1.0889 C   0  0  1  0  0  0  0  0  0  0  0  0
   -1.6646    1.0938    0.0692 H   0  0  0  0  0  0  0  0  0  0  0  0
   -1.9572    1.6052    2.0451 O   0  0  0  0  0  0  0  0  0  0  0  0
   -1.5062    2.4532    1.7938 H   0  0  0  0  0  0  0  0  0  0  0  0
   -0.1175    0.2147    1.3026 C   0  0  1  0  0  0  0  0  0  0  0  0
    0.5397    1.1066    1.1692 H   0  0  0  0  0  0  0  0  0  0  0  0
    0.0471   -0.2909    2.6051 O   0  0  0  0  0  0  0  0  0  0  0  0
    0.1427    0.4895    3.2115 H   0  0  0  0  0  0  0  0  0  0  0  0
    3.0473    0.7014   -1.6795 N   0  3  0  0  0  0  0  0  0  0  0  0
    2.3841    0.8916   -2.9091 N   0  0  0  0  0  0  0  0  0  0  0  0
    2.9405    1.4285   -3.8896 O   0  0  0  0  0  0  0  0  0  0  0  0
    4.4434    1.1405   -1.5284 C   0  0  0  0  0  0  0  0  0  0  0  0
    4.8503    1.5619   -2.4696 H   0  0  0  0  0  0  0  0  0  0  0  0
    4.5109    1.9321   -0.7517 H   0  0  0  0  0  0  0  0  0  0  0  0
    5.0866    0.2781   -1.2508 H   0  0  0  0  0  0  0  0  0  0  0  0
  1  2  1  0  0  0  0
  2  3  1  0  0  0  0
  3  4  1  0  0  0  0
  3 28  2  0  0  0  0
  4  5  1  0  0  0  0
  4  6  1  0  0  0  0
  6  7  1  1  0  0  0
  6  8  1  0  0  0  0
  8  9  1  6  0  0  0
  8 10  1  0  0  0  0
  8 12  1  0  0  0  0
 10 11  1  0  0  0  0
 12 13  1  0  0  0  0
 13 14  1  1  0  0  0
 13 15  1  0  0  0  0
 13 20  1  0  0  0  0
 15 16  1  0  0  0  0
 15 17  1  0  0  0  0
 15 18  1  0  0  0  0
 18 19  1  0  0  0  0
 20 21  1  6  0  0  0
 20 22  1  0  0  0  0
 20 24  1  0  0  0  0
 22 23  1  0  0  0  0
 24 25  1  6  0  0  0
 24 26  1  0  0  0  0
 24  6  1  0  0  0  0
 26 27  1  0  0  0  0
 28 29  1  0  0  0  0
 28 31  1  0  0  0  0
 29 30  2  0  0  0  0
 31 32  1  0  0  0  0
 31 33  1  0  0  0  0
 31 34  1  0  0  0  0
M  CHG  1  28   1
M  END
>  <UniqueID>
94

>  <SMILES>
C/[N+](N=O)=C(\O)N[C@@H]1[C@@H](O)O[C@H](CO)[C@@H](O)[C@H]1O

>  <Energy>
42.13691451989593

>  <Genealogy>
C[NH+](N=O)C(=O)NC1[C@@H](O)OC(CO)[C@@H](O)[C@H]1O (protonated)
C[N+](N=O)=C(O)NC1[C@@H](O)OC(CO)[C@@H](O)[C@H]1O (tautomer)
C[N+](N=O)=C(O)N[C@@H]1[C@@H](O)O[C@H](CO)[C@@H](O)[C@H]1O (chirality)
C/[N+](N=O)=C(\O)N[C@@H]1[C@@H](O)O[C@H](CO)[C@@H](O)[C@H]1O (cis-trans isomerization)
C/[N+](N=O)=C(\O)N[C@@H]1[C@@H](O)O[C@H](CO)[C@@H](O)[C@H]1O (3D coordinates assigned)
C/[N+](N=O)=C(\O)N[C@@H]1[C@@H](O)O[C@H](CO)[C@@H](O)[C@H]1O (nonaromatic ring conformer: 42.13691451989593 kcal/mol)

$$$$
6420074
 OpenBabel03032110343D

 33 33  0  0  0  0  0  0  0  0999 V2000
    0.2895    2.8559    3.2892 C   0  0  0  0  0  0  0  0  0  0  0  0
   -0.1810    2.5340    1.9456 N   0  0  0  0  0  0  0  0  0  0  0  0
   -1.0182    3.4594    1.2960 N   0  0  0  0  0  0  0  0  0  0  0  0
   -1.6752    3.1533    0.2795 O   0  0  0  0  0  0  0  0  0  0  0  0
    0.0730    1.2287    1.3942 C   0  0  0  0  0  0  0  0  0  0  0  0
    0.2198    0.2430    2.1680 O   0  0  0  0  0  0  0  0  0  0  0  0
    0.2026    1.0491   -0.0244 N   0  0  0  0  0  0  0  0  0  0  0  0
    0.2757   -0.2812   -0.6441 C   0  0  2  0  0  0  0  0  0  0  0  0
    0.8111   -0.1689   -2.0902 C   0  0  1  0  0  0  0  0  0  0  0  0
    1.1406   -1.4368   -2.5999 O   0  0  0  0  0  0  0  0  0  0  0  0
   -0.1077    0.5049   -2.9390 O   0  0  0  0  0  0  0  0  0  0  0  0
   -1.3442   -0.1868   -3.0319 C   0  0  2  0  0  0  0  0  0  0  0  0
   -2.2278    0.5304   -4.0659 C   0  0  0  0  0  0  0  0  0  0  0  0
   -2.5191    1.8429   -3.6638 O   0  0  0  0  0  0  0  0  0  0  0  0
   -2.0405   -0.2631   -1.6528 C   0  0  1  0  0  0  0  0  0  0  0  0
   -3.2486   -0.9717   -1.7637 O   0  0  0  0  0  0  0  0  0  0  0  0
   -1.1125   -0.9509   -0.6314 C   0  0  1  0  0  0  0  0  0  0  0  0
   -0.9733   -2.3174   -0.9340 O   0  0  0  0  0  0  0  0  0  0  0  0
   -0.3958    2.4111    4.0408 H   0  0  0  0  0  0  0  0  0  0  0  0
    0.3183    3.9571    3.4321 H   0  0  0  0  0  0  0  0  0  0  0  0
    1.3154    2.4579    3.4430 H   0  0  0  0  0  0  0  0  0  0  0  0
    0.3170    1.8995   -0.6211 H   0  0  0  0  0  0  0  0  0  0  0  0
    0.9901   -0.9055   -0.0616 H   0  0  0  0  0  0  0  0  0  0  0  0
    1.7446    0.4376   -2.0514 H   0  0  0  0  0  0  0  0  0  0  0  0
    1.5704   -1.2814   -3.4810 H   0  0  0  0  0  0  0  0  0  0  0  0
   -1.1823   -1.2188   -3.4202 H   0  0  0  0  0  0  0  0  0  0  0  0
   -3.1821   -0.0230   -4.1955 H   0  0  0  0  0  0  0  0  0  0  0  0
   -1.7173    0.5343   -5.0563 H   0  0  0  0  0  0  0  0  0  0  0  0
   -1.7171    2.3904   -3.8699 H   0  0  0  0  0  0  0  0  0  0  0  0
   -2.2490    0.7746   -1.3010 H   0  0  0  0  0  0  0  0  0  0  0  0
   -3.7685   -0.7803   -0.9397 H   0  0  0  0  0  0  0  0  0  0  0  0
   -1.5542   -0.8428    0.3871 H   0  0  0  0  0  0  0  0  0  0  0  0
   -1.7680   -2.7814   -0.5613 H   0  0  0  0  0  0  0  0  0  0  0  0
  1  2  1  0  0  0  0
  1 19  1  0  0  0  0
  1 20  1  0  0  0  0
  1 21  1  0  0  0  0
  2  3  1  0  0  0  0
  2  5  1  0  0  0  0
  3  4  2  0  0  0  0
  5  6  2  0  0  0  0
  5  7  1  0  0  0  0
  7  8  1  0  0  0  0
  7 22  1  0  0  0  0
  8  9  1  0  0  0  0
  8 23  1  1  0  0  0
  9 10  1  0  0  0  0
  9 11  1  0  0  0  0
  9 24  1  1  0  0  0
 10 25  1  0  0  0  0
 11 12  1  0  0  0  0
 12 13  1  0  0  0  0
 12 15  1  0  0  0  0
 12 26  1  6  0  0  0
 13 14  1  0  0  0  0
 13 27  1  0  0  0  0
 13 28  1  0  0  0  0
 14 29  1  0  0  0  0
 15 16  1  0  0  0  0
 15 17  1  0  0  0  0
 15 30  1  1  0  0  0
 16 31  1  0  0  0  0
 17 18  1  0  0  0  0
 17  8  1  0  0  0  0
 17 32  1  1  0  0  0
 18 33  1  0  0  0  0
M  END
>  <UniqueID>
95

>  <SMILES>
CN(N=O)C(=O)N[C@@H]1[C@@H](O)O[C@H](CO)[C@@H](O)[C@H]1O

>  <Energy>
32.481974546338186

>  <Genealogy>
CN(N=O)C(=O)N[C@@H]1[C@@H](O)O[C@H](CO)[C@@H](O)[C@H]1O (chirality)
CN(N=O)C(=O)N[C@@H]1[C@@H](O)O[C@H](CO)[C@@H](O)[C@H]1O (3D coordinates assigned)
CN(N=O)C(=O)N[C@@H]1[C@@H](O)O[C@H](CO)[C@@H](O)[C@H]1O (nonaromatic ring conformer: 32.481974546338186 kcal/mol)

$$$$
6420074
 OpenBabel03032110343D

 33 33  0  0  0  0  0  0  0  0999 V2000
   -0.3169    3.9984    1.8991 C   0  0  0  0  0  0  0  0  0  0  0  0
   -0.0982    2.5550    1.7589 N   0  0  0  0  0  0  0  0  0  0  0  0
    0.3968    1.8190    2.8507 N   0  0  0  0  0  0  0  0  0  0  0  0
    0.6872    2.3730    3.9318 O   0  0  0  0  0  0  0  0  0  0  0  0
   -0.4538    1.8608    0.5474 C   0  0  0  0  0  0  0  0  0  0  0  0
   -1.0675    2.4750   -0.3669 O   0  0  0  0  0  0  0  0  0  0  0  0
   -0.1024    0.4739    0.3763 N   0  0  0  0  0  0  0  0  0  0  0  0
   -0.3999   -0.3380   -0.8137 C   0  0  2  0  0  0  0  0  0  0  0  0
    0.2700    0.2344   -2.0800 C   0  0  1  0  0  0  0  0  0  0  0  0
    1.6502    0.3734   -1.8647 O   0  0  0  0  0  0  0  0  0  0  0  0
    0.0599   -0.6176   -3.1949 O   0  0  0  0  0  0  0  0  0  0  0  0
   -1.3163   -0.7610   -3.5305 C   0  0  2  0  0  0  0  0  0  0  0  0
   -1.8794    0.4662   -4.2878 C   0  0  0  0  0  0  0  0  0  0  0  0
   -2.2578    1.5050   -3.4241 O   0  0  0  0  0  0  0  0  0  0  0  0
   -2.1945   -1.2616   -2.3444 C   0  0  1  0  0  0  0  0  0  0  0  0
   -2.0323   -2.6490   -2.1604 O   0  0  0  0  0  0  0  0  0  0  0  0
   -1.9126   -0.4978   -1.0289 C   0  0  1  0  0  0  0  0  0  0  0  0
   -2.4683   -1.1840    0.0637 O   0  0  0  0  0  0  0  0  0  0  0  0
   -0.5252    4.4822    0.9213 H   0  0  0  0  0  0  0  0  0  0  0  0
   -1.1727    4.1794    2.5844 H   0  0  0  0  0  0  0  0  0  0  0  0
    0.5934    4.4759    2.3213 H   0  0  0  0  0  0  0  0  0  0  0  0
    0.4206   -0.0035    1.1438 H   0  0  0  0  0  0  0  0  0  0  0  0
    0.0276   -1.3516   -0.6427 H   0  0  0  0  0  0  0  0  0  0  0  0
   -0.1158    1.2478   -2.3026 H   0  0  0  0  0  0  0  0  0  0  0  0
    2.0308   -0.5417   -1.7961 H   0  0  0  0  0  0  0  0  0  0  0  0
   -1.3472   -1.5766   -4.2867 H   0  0  0  0  0  0  0  0  0  0  0  0
   -1.1020    0.8491   -4.9827 H   0  0  0  0  0  0  0  0  0  0  0  0
   -2.7447    0.1505   -4.9181 H   0  0  0  0  0  0  0  0  0  0  0  0
   -3.2210    1.3772   -3.2197 H   0  0  0  0  0  0  0  0  0  0  0  0
   -3.2625   -1.1003   -2.6103 H   0  0  0  0  0  0  0  0  0  0  0  0
   -1.0649   -2.8317   -2.0368 H   0  0  0  0  0  0  0  0  0  0  0  0
   -2.3797    0.5077   -1.0969 H   0  0  0  0  0  0  0  0  0  0  0  0
   -3.4512   -1.0530    0.0150 H   0  0  0  0  0  0  0  0  0  0  0  0
  1  2  1  0  0  0  0
  1 19  1  0  0  0  0
  1 20  1  0  0  0  0
  1 21  1  0  0  0  0
  2  3  1  0  0  0  0
  2  5  1  0  0  0  0
  3  4  2  0  0  0  0
  5  6  2  0  0  0  0
  5  7  1  0  0  0  0
  7  8  1  0  0  0  0
  7 22  1  0  0  0  0
  8  9  1  0  0  0  0
  8 23  1  1  0  0  0
  9 10  1  0  0  0  0
  9 11  1  0  0  0  0
  9 24  1  6  0  0  0
 10 25  1  0  0  0  0
 11 12  1  0  0  0  0
 12 13  1  0  0  0  0
 12 15  1  0  0  0  0
 12 26  1  6  0  0  0
 13 14  1  0  0  0  0
 13 27  1  0  0  0  0
 13 28  1  0  0  0  0
 14 29  1  0  0  0  0
 15 16  1  0  0  0  0
 15 17  1  0  0  0  0
 15 30  1  6  0  0  0
 16 31  1  0  0  0  0
 17 18  1  0  0  0  0
 17  8  1  0  0  0  0
 17 32  1  6  0  0  0
 18 33  1  0  0  0  0
M  END
>  <UniqueID>
96

>  <SMILES>
CN(N=O)C(=O)N[C@@H]1[C@@H](O)O[C@H](CO)[C@@H](O)[C@H]1O

>  <Energy>
38.33038997481526

>  <Genealogy>
CN(N=O)C(=O)N[C@@H]1[C@@H](O)O[C@H](CO)[C@@H](O)[C@H]1O (chirality)
CN(N=O)C(=O)N[C@@H]1[C@@H](O)O[C@H](CO)[C@@H](O)[C@H]1O (3D coordinates assigned)
CN(N=O)C(=O)N[C@@H]1[C@@H](O)O[C@H](CO)[C@@H](O)[C@H]1O (nonaromatic ring conformer: 38.33038997481526 kcal/mol)

$$$$
6323218
 OpenBabel03032110343D

 38 38  0  0  0  0  0  0  0  0999 V2000
    3.9848   -1.4974    2.2131 H   0  0  0  0  0  0  0  0  0  0  0  0
    3.1842   -1.1192    1.7215 O   0  0  0  0  0  0  0  0  0  0  0  0
    2.3441   -1.9423    0.9723 C   0  0  0  0  0  0  0  0  0  0  0  0
    1.3089   -1.4514    0.3596 N   0  0  0  0  0  0  0  0  0  0  0  0
    0.9358   -0.0355    0.3653 C   0  0  1  0  0  0  0  0  0  0  0  0
    1.0420    0.3727    1.3970 H   0  0  0  0  0  0  0  0  0  0  0  0
    1.8467    0.7703   -0.5853 C   0  0  1  0  0  0  0  0  0  0  0  0
    2.8784    0.7370   -0.1696 H   0  0  0  0  0  0  0  0  0  0  0  0
    1.8674    0.1964   -1.8693 O   0  0  0  0  0  0  0  0  0  0  0  0
    2.5501    0.6965   -2.3880 H   0  0  0  0  0  0  0  0  0  0  0  0
    1.4545    2.1338   -0.6371 O   0  0  0  0  0  0  0  0  0  0  0  0
    0.1349    2.2826   -1.1405 C   0  0  2  0  0  0  0  0  0  0  0  0
    0.0541    1.8479   -2.1640 H   0  0  0  0  0  0  0  0  0  0  0  0
   -0.1642    3.7812   -1.2661 C   0  0  0  0  0  0  0  0  0  0  0  0
   -0.1240    4.2567   -0.2598 H   0  0  0  0  0  0  0  0  0  0  0  0
   -1.1802    3.9305   -1.6950 H   0  0  0  0  0  0  0  0  0  0  0  0
    0.7814    4.3816   -2.1078 O   0  0  0  0  0  0  0  0  0  0  0  0
    0.5472    5.3455   -2.1421 H   0  0  0  0  0  0  0  0  0  0  0  0
   -0.8880    1.5928   -0.2063 C   0  0  1  0  0  0  0  0  0  0  0  0
   -0.8377    2.0668    0.8049 H   0  0  0  0  0  0  0  0  0  0  0  0
   -2.1831    1.7033   -0.7423 O   0  0  0  0  0  0  0  0  0  0  0  0
   -2.6180    2.4802   -0.3035 H   0  0  0  0  0  0  0  0  0  0  0  0
   -0.5341    0.1036   -0.0577 C   0  0  2  0  0  0  0  0  0  0  0  0
   -0.6425   -0.3922   -1.0552 H   0  0  0  0  0  0  0  0  0  0  0  0
   -1.3522   -0.4762    0.9495 O   0  0  0  0  0  0  0  0  0  0  0  0
   -2.3696   -1.2960    0.4008 C   0  0  1  0  0  0  0  0  0  0  0  0
   -2.7997   -0.8594   -0.5319 H   0  0  0  0  0  0  0  0  0  0  0  0
   -1.8291   -2.6703    0.1214 C   0  0  0  0  0  0  0  0  0  0  0  0
   -2.0113   -3.2054   -1.0037 O   0  0  0  0  0  0  0  0  0  0  0  0
   -1.1403   -3.3650    1.1086 O   0  5  0  0  0  0  0  0  0  0  0  0
   -3.5149   -1.3907    1.4054 C   0  0  0  0  0  0  0  0  0  0  0  0
   -4.3281   -2.0336    1.0047 H   0  0  0  0  0  0  0  0  0  0  0  0
   -3.1570   -1.8142    2.3686 H   0  0  0  0  0  0  0  0  0  0  0  0
   -3.9294   -0.3780    1.5961 H   0  0  0  0  0  0  0  0  0  0  0  0
    2.6178   -3.4095    0.8962 C   0  0  0  0  0  0  0  0  0  0  0  0
    3.6849   -3.5765    0.6387 H   0  0  0  0  0  0  0  0  0  0  0  0
    1.9833   -3.8907    0.1210 H   0  0  0  0  0  0  0  0  0  0  0  0
    2.4026   -3.8758    1.8806 H   0  0  0  0  0  0  0  0  0  0  0  0
  1  2  1  0  0  0  0
  2  3  1  0  0  0  0
  3  4  2  0  0  0  0
  3 35  1  0  0  0  0
  4  5  1  0  0  0  0
  5  6  1  1  0  0  0
  5  7  1  0  0  0  0
  7  8  1  1  0  0  0
  7  9  1  0  0  0  0
  7 11  1  0  0  0  0
  9 10  1  0  0  0  0
 11 12  1  0  0  0  0
 12 13  1  6  0  0  0
 12 14  1  0  0  0  0
 12 19  1  0  0  0  0
 14 15  1  0  0  0  0
 14 16  1  0  0  0  0
 14 17  1  0  0  0  0
 17 18  1  0  0  0  0
 19 20  1  1  0  0  0
 19 21  1  0  0  0  0
 19 23  1  0  0  0  0
 21 22  1  0  0  0  0
 23 24  1  6  0  0  0
 23 25  1  0  0  0  0
 23  5  1  0  0  0  0
 25 26  1  0  0  0  0
 26 27  1  6  0  0  0
 26 28  1  0  0  0  0
 26 31  1  0  0  0  0
 28 29  2  0  0  0  0
 28 30  1  0  0  0  0
 31 32  1  0  0  0  0
 31 33  1  0  0  0  0
 31 34  1  0  0  0  0
 35 36  1  0  0  0  0
 35 37  1  0  0  0  0
 35 38  1  0  0  0  0
M  CHG  1  30  -1
M  END
>  <UniqueID>
97

>  <SMILES>
C/C(O)=N\[C@H]1[C@@H](O)O[C@H](CO)[C@@H](O)[C@@H]1O[C@H](C)C(=O)[O-]

>  <Energy>
32.10038511751132

>  <Genealogy>
CC(=O)N[C@H]1[C@@H](O)O[C@H](CO)[C@@H](O)[C@@H]1O[C@H](C)C(=O)[O-] (protonated)
CC(O)=N[C@H]1[C@@H](O)O[C@H](CO)[C@@H](O)[C@@H]1O[C@H](C)C(=O)[O-] (tautomer)
C/C(O)=N\[C@H]1[C@@H](O)O[C@H](CO)[C@@H](O)[C@@H]1O[C@H](C)C(=O)[O-] (cis-trans isomerization)
C/C(O)=N\[C@H]1[C@@H](O)O[C@H](CO)[C@@H](O)[C@@H]1O[C@H](C)C(=O)[O-] (3D coordinates assigned)
C/C(O)=N\[C@H]1[C@@H](O)O[C@H](CO)[C@@H](O)[C@@H]1O[C@H](C)C(=O)[O-] (nonaromatic ring conformer: 32.10038511751132 kcal/mol)

$$$$
6323218
 OpenBabel03032110343D

 38 38  0  0  0  0  0  0  0  0999 V2000
    2.6550   -2.7127   -2.0713 C   0  0  0  0  0  0  0  0  0  0  0  0
    2.3873   -1.7409   -0.9691 C   0  0  0  0  0  0  0  0  0  0  0  0
    2.8606   -1.9570    0.1794 O   0  0  0  0  0  0  0  0  0  0  0  0
    1.6012   -0.5688   -1.2274 N   0  0  0  0  0  0  0  0  0  0  0  0
    1.1882    0.3611   -0.1706 C   0  0  1  0  0  0  0  0  0  0  0  0
    1.3563    1.8187   -0.6436 C   0  0  1  0  0  0  0  0  0  0  0  0
    0.6694    2.0468   -1.8498 O   0  0  0  0  0  0  0  0  0  0  0  0
    0.9411    2.7303    0.3626 O   0  0  0  0  0  0  0  0  0  0  0  0
   -0.4374    2.5811    0.6718 C   0  0  2  0  0  0  0  0  0  0  0  0
   -0.8124    3.6819    1.6788 C   0  0  0  0  0  0  0  0  0  0  0  0
   -2.2015    3.7588    1.8573 O   0  0  0  0  0  0  0  0  0  0  0  0
   -0.7177    1.1691    1.2460 C   0  0  1  0  0  0  0  0  0  0  0  0
   -2.0922    1.0076    1.4946 O   0  0  0  0  0  0  0  0  0  0  0  0
   -0.2708    0.0957    0.2414 C   0  0  2  0  0  0  0  0  0  0  0  0
   -0.3626   -1.1748    0.8709 O   0  0  0  0  0  0  0  0  0  0  0  0
   -0.9614   -2.1504    0.0331 C   0  0  2  0  0  0  0  0  0  0  0  0
   -2.4837   -2.1249    0.1949 C   0  0  0  0  0  0  0  0  0  0  0  0
   -0.4408   -3.5018    0.4214 C   0  0  0  0  0  0  0  0  0  0  0  0
   -0.3168   -3.8126    1.6359 O   0  0  0  0  0  0  0  0  0  0  0  0
   -0.1322   -4.4360   -0.5597 O   0  5  0  0  0  0  0  0  0  0  0  0
    1.6943   -3.0333   -2.5257 H   0  0  0  0  0  0  0  0  0  0  0  0
    3.2833   -2.2285   -2.8474 H   0  0  0  0  0  0  0  0  0  0  0  0
    3.1840   -3.6090   -1.6832 H   0  0  0  0  0  0  0  0  0  0  0  0
    1.1886   -0.4576   -2.1816 H   0  0  0  0  0  0  0  0  0  0  0  0
    1.8374    0.2306    0.7245 H   0  0  0  0  0  0  0  0  0  0  0  0
    2.4434    1.9828   -0.8208 H   0  0  0  0  0  0  0  0  0  0  0  0
    0.9169    2.9621   -2.1432 H   0  0  0  0  0  0  0  0  0  0  0  0
   -1.0567    2.7439   -0.2405 H   0  0  0  0  0  0  0  0  0  0  0  0
   -0.4256    4.6642    1.3220 H   0  0  0  0  0  0  0  0  0  0  0  0
   -0.3334    3.4765    2.6601 H   0  0  0  0  0  0  0  0  0  0  0  0
   -2.5692    4.1998    1.0474 H   0  0  0  0  0  0  0  0  0  0  0  0
   -0.1260    1.0364    2.1854 H   0  0  0  0  0  0  0  0  0  0  0  0
   -2.2309    1.1174    2.4714 H   0  0  0  0  0  0  0  0  0  0  0  0
   -0.9251    0.1928   -0.6602 H   0  0  0  0  0  0  0  0  0  0  0  0
   -0.7074   -1.9999   -1.0424 H   0  0  0  0  0  0  0  0  0  0  0  0
   -2.9487   -2.9333   -0.4095 H   0  0  0  0  0  0  0  0  0  0  0  0
   -2.7632   -2.2617    1.2617 H   0  0  0  0  0  0  0  0  0  0  0  0
   -2.8911   -1.1545   -0.1571 H   0  0  0  0  0  0  0  0  0  0  0  0
  1  2  1  0  0  0  0
  1 21  1  0  0  0  0
  1 22  1  0  0  0  0
  1 23  1  0  0  0  0
  2  3  2  0  0  0  0
  2  4  1  0  0  0  0
  4  5  1  0  0  0  0
  4 24  1  0  0  0  0
  5  6  1  0  0  0  0
  5 25  1  1  0  0  0
  6  7  1  0  0  0  0
  6  8  1  0  0  0  0
  6 26  1  6  0  0  0
  7 27  1  0  0  0  0
  8  9  1  0  0  0  0
  9 10  1  0  0  0  0
  9 12  1  0  0  0  0
  9 28  1  6  0  0  0
 10 11  1  0  0  0  0
 10 29  1  0  0  0  0
 10 30  1  0  0  0  0
 11 31  1  0  0  0  0
 12 13  1  0  0  0  0
 12 14  1  0  0  0  0
 12 32  1  1  0  0  0
 13 33  1  0  0  0  0
 14 15  1  0  0  0  0
 14  5  1  0  0  0  0
 14 34  1  6  0  0  0
 15 16  1  0  0  0  0
 16 17  1  0  0  0  0
 16 18  1  0  0  0  0
 16 35  1  6  0  0  0
 17 36  1  0  0  0  0
 17 37  1  0  0  0  0
 17 38  1  0  0  0  0
 18 19  2  0  0  0  0
 18 20  1  0  0  0  0
M  CHG  1  20  -1
M  END
>  <UniqueID>
98

>  <SMILES>
CC(=O)N[C@H]1[C@@H](O)O[C@H](CO)[C@@H](O)[C@@H]1O[C@H](C)C(=O)[O-]

>  <Energy>
33.3367848860941

>  <Genealogy>
CC(=O)N[C@H]1[C@@H](O)O[C@H](CO)[C@@H](O)[C@@H]1O[C@H](C)C(=O)[O-] (protonated)
CC(=O)N[C@H]1[C@@H](O)O[C@H](CO)[C@@H](O)[C@@H]1O[C@H](C)C(=O)[O-] (3D coordinates assigned)
CC(=O)N[C@H]1[C@@H](O)O[C@H](CO)[C@@H](O)[C@@H]1O[C@H](C)C(=O)[O-] (nonaromatic ring conformer: 33.3367848860941 kcal/mol)

$$$$
5462244
 OpenBabel03032110343D

 38 38  0  0  0  0  0  0  0  0999 V2000
   -0.4043    3.6954   -0.3715 C   0  0  0  0  0  0  0  0  0  0  0  0
   -0.6428    2.9143    0.8919 C   0  0  0  0  0  0  0  0  0  0  0  0
   -1.3275    3.5134    1.9462 O   0  0  0  0  0  0  0  0  0  0  0  0
   -0.2510    1.6804    1.0328 N   0  0  0  0  0  0  0  0  0  0  0  0
    0.4816    0.8668    0.0560 C   0  0  1  0  0  0  0  0  0  0  0  0
    1.9751    0.7988    0.4410 C   0  0  2  0  0  0  0  0  0  0  0  0
    2.5359    2.0843    0.3956 O   0  0  0  0  0  0  0  0  0  0  0  0
    2.6769   -0.0162   -0.4793 O   0  0  0  0  0  0  0  0  0  0  0  0
    2.2440   -1.3635   -0.3926 C   0  0  2  0  0  0  0  0  0  0  0  0
    3.1633   -2.2115   -1.2882 C   0  0  0  0  0  0  0  0  0  0  0  0
    2.9216   -3.5822   -1.1151 O   0  0  0  0  0  0  0  0  0  0  0  0
    0.7645   -1.4755   -0.8336 C   0  0  1  0  0  0  0  0  0  0  0  0
    0.3250   -2.8030   -0.6978 O   0  0  0  0  0  0  0  0  0  0  0  0
   -0.1127   -0.5541    0.0345 C   0  0  2  0  0  0  0  0  0  0  0  0
   -1.4160   -0.5100   -0.5294 O   0  0  0  0  0  0  0  0  0  0  0  0
   -2.4336   -0.5920    0.4550 C   0  0  2  0  0  0  0  0  0  0  0  0
   -2.8111   -2.0550    0.6996 C   0  0  0  0  0  0  0  0  0  0  0  0
   -3.6329    0.1635   -0.0331 C   0  0  0  0  0  0  0  0  0  0  0  0
   -4.0527    0.0014   -1.2098 O   0  0  0  0  0  0  0  0  0  0  0  0
   -4.3068    1.0263    0.8223 O   0  5  0  0  0  0  0  0  0  0  0  0
    0.6746    3.6967   -0.6289 H   0  0  0  0  0  0  0  0  0  0  0  0
   -0.7270    4.7496   -0.2452 H   0  0  0  0  0  0  0  0  0  0  0  0
   -0.9883    3.2496   -1.2036 H   0  0  0  0  0  0  0  0  0  0  0  0
   -1.6667    4.4660    1.8871 H   0  0  0  0  0  0  0  0  0  0  0  0
    0.3902    1.2880   -0.9693 H   0  0  0  0  0  0  0  0  0  0  0  0
    2.0852    0.3894    1.4767 H   0  0  0  0  0  0  0  0  0  0  0  0
    2.3331    2.5238    1.2626 H   0  0  0  0  0  0  0  0  0  0  0  0
    2.3565   -1.7387    0.6523 H   0  0  0  0  0  0  0  0  0  0  0  0
    4.2285   -1.9849   -1.0529 H   0  0  0  0  0  0  0  0  0  0  0  0
    2.9986   -1.9490   -2.3552 H   0  0  0  0  0  0  0  0  0  0  0  0
    3.3248   -3.8346   -0.2437 H   0  0  0  0  0  0  0  0  0  0  0  0
    0.6888   -1.1536   -1.9003 H   0  0  0  0  0  0  0  0  0  0  0  0
   -0.4600   -2.9099   -1.2961 H   0  0  0  0  0  0  0  0  0  0  0  0
   -0.0937   -0.9707    1.0724 H   0  0  0  0  0  0  0  0  0  0  0  0
   -2.1314   -0.1326    1.4251 H   0  0  0  0  0  0  0  0  0  0  0  0
   -1.9444   -2.6081    1.1181 H   0  0  0  0  0  0  0  0  0  0  0  0
   -3.1170   -2.5421   -0.2512 H   0  0  0  0  0  0  0  0  0  0  0  0
   -3.6482   -2.1202    1.4275 H   0  0  0  0  0  0  0  0  0  0  0  0
  1  2  1  0  0  0  0
  1 21  1  0  0  0  0
  1 22  1  0  0  0  0
  1 23  1  0  0  0  0
  2  3  1  0  0  0  0
  2  4  2  3  0  0  0
  3 24  1  0  0  0  0
  4  5  1  0  0  0  0
  5  6  1  0  0  0  0
  5 25  1  6  0  0  0
  6  7  1  0  0  0  0
  6  8  1  0  0  0  0
  6 26  1  1  0  0  0
  7 27  1  0  0  0  0
  8  9  1  0  0  0  0
  9 10  1  0  0  0  0
  9 12  1  0  0  0  0
  9 28  1  1  0  0  0
 10 11  1  0  0  0  0
 10 29  1  0  0  0  0
 10 30  1  0  0  0  0
 11 31  1  0  0  0  0
 12 13  1  0  0  0  0
 12 14  1  0  0  0  0
 12 32  1  6  0  0  0
 13 33  1  0  0  0  0
 14 15  1  0  0  0  0
 14  5  1  0  0  0  0
 14 34  1  1  0  0  0
 15 16  1  0  0  0  0
 16 17  1  0  0  0  0
 16 18  1  0  0  0  0
 16 35  1  1  0  0  0
 17 36  1  0  0  0  0
 17 37  1  0  0  0  0
 17 38  1  0  0  0  0
 18 19  2  0  0  0  0
 18 20  1  0  0  0  0
M  CHG  1  20  -1
M  END
>  <UniqueID>
99

>  <SMILES>
CC(O)=N[C@H]1[C@H](O)O[C@H](CO)[C@@H](O)[C@@H]1O[C@H](C)C(=O)[O-]

>  <Energy>
35.32900434380098

>  <Genealogy>
CC(=O)N[C@H]1C(O)O[C@H](CO)[C@@H](O)[C@@H]1O[C@H](C)C(=O)[O-] (protonated)
CC(O)=N[C@H]1C(O)O[C@H](CO)[C@@H](O)[C@@H]1O[C@H](C)C(=O)[O-] (tautomer)
CC(O)=N[C@H]1[C@H](O)O[C@H](CO)[C@@H](O)[C@@H]1O[C@H](C)C(=O)[O-] (chirality)
CC(O)=N[C@H]1[C@H](O)O[C@H](CO)[C@@H](O)[C@@H]1O[C@H](C)C(=O)[O-] (3D coordinates assigned)
CC(O)=N[C@H]1[C@H](O)O[C@H](CO)[C@@H](O)[C@@H]1O[C@H](C)C(=O)[O-] (nonaromatic ring conformer: 35.32900434380098 kcal/mol)

$$$$
5462244
 OpenBabel03032110343D

 38 38  0  0  0  0  0  0  0  0999 V2000
    2.1247    3.6814    0.1378 C   0  0  0  0  0  0  0  0  0  0  0  0
    1.7618    2.4300   -0.5921 C   0  0  0  0  0  0  0  0  0  0  0  0
    1.6740    2.4477   -1.8497 O   0  0  0  0  0  0  0  0  0  0  0  0
    1.4794    1.2313    0.1442 N   0  0  0  0  0  0  0  0  0  0  0  0
    1.0191   -0.0103   -0.4889 C   0  0  1  0  0  0  0  0  0  0  0  0
    1.9091   -1.2044   -0.0495 C   0  0  1  0  0  0  0  0  0  0  0  0
    3.2400   -0.7947    0.1267 O   0  0  0  0  0  0  0  0  0  0  0  0
    1.4360   -1.7464    1.1694 O   0  0  0  0  0  0  0  0  0  0  0  0
    0.1874   -2.4178    1.0124 C   0  0  2  0  0  0  0  0  0  0  0  0
    0.4211   -3.9101    0.7336 C   0  0  0  0  0  0  0  0  0  0  0  0
   -0.7910   -4.6089    0.8086 O   0  0  0  0  0  0  0  0  0  0  0  0
   -0.7545   -1.7608   -0.0462 C   0  0  1  0  0  0  0  0  0  0  0  0
   -2.1070   -2.0082    0.2532 O   0  0  0  0  0  0  0  0  0  0  0  0
   -0.4727   -0.2508   -0.1348 C   0  0  2  0  0  0  0  0  0  0  0  0
   -1.3029    0.3091   -1.1413 O   0  0  0  0  0  0  0  0  0  0  0  0
   -1.7679    1.6027   -0.7922 C   0  0  2  0  0  0  0  0  0  0  0  0
   -3.1272    1.4978   -0.0976 C   0  0  0  0  0  0  0  0  0  0  0  0
   -1.9031    2.4197   -2.0418 C   0  0  0  0  0  0  0  0  0  0  0  0
   -2.4261    1.9231   -3.0748 O   0  0  0  0  0  0  0  0  0  0  0  0
   -1.4850    3.7446   -2.0545 O   0  5  0  0  0  0  0  0  0  0  0  0
    2.9178    3.4637    0.8834 H   0  0  0  0  0  0  0  0  0  0  0  0
    1.2284    4.0754    0.6609 H   0  0  0  0  0  0  0  0  0  0  0  0
    2.5000    4.4514   -0.5697 H   0  0  0  0  0  0  0  0  0  0  0  0
    1.5345    1.2642    1.1879 H   0  0  0  0  0  0  0  0  0  0  0  0
    1.1161    0.0666   -1.5950 H   0  0  0  0  0  0  0  0  0  0  0  0
    1.8943   -1.9898   -0.8438 H   0  0  0  0  0  0  0  0  0  0  0  0
    3.5993   -0.5922   -0.7768 H   0  0  0  0  0  0  0  0  0  0  0  0
   -0.3168   -2.3519    2.0015 H   0  0  0  0  0  0  0  0  0  0  0  0
    0.8733   -4.0485   -0.2734 H   0  0  0  0  0  0  0  0  0  0  0  0
    1.1267   -4.3137    1.4939 H   0  0  0  0  0  0  0  0  0  0  0  0
   -0.5733   -5.5590    0.6219 H   0  0  0  0  0  0  0  0  0  0  0  0
   -0.5495   -2.2022   -1.0474 H   0  0  0  0  0  0  0  0  0  0  0  0
   -2.3129   -1.5653    1.1176 H   0  0  0  0  0  0  0  0  0  0  0  0
   -0.6863    0.1644    0.8814 H   0  0  0  0  0  0  0  0  0  0  0  0
   -1.0654    2.1480   -0.1197 H   0  0  0  0  0  0  0  0  0  0  0  0
   -3.8536    0.9595   -0.7437 H   0  0  0  0  0  0  0  0  0  0  0  0
   -3.5231    2.5111    0.1293 H   0  0  0  0  0  0  0  0  0  0  0  0
   -3.0250    0.9436    0.8587 H   0  0  0  0  0  0  0  0  0  0  0  0
  1  2  1  0  0  0  0
  1 21  1  0  0  0  0
  1 22  1  0  0  0  0
  1 23  1  0  0  0  0
  2  3  2  0  0  0  0
  2  4  1  0  0  0  0
  4  5  1  0  0  0  0
  4 24  1  0  0  0  0
  5  6  1  0  0  0  0
  5 25  1  6  0  0  0
  6  7  1  0  0  0  0
  6  8  1  0  0  0  0
  6 26  1  6  0  0  0
  7 27  1  0  0  0  0
  8  9  1  0  0  0  0
  9 10  1  0  0  0  0
  9 12  1  0  0  0  0
  9 28  1  1  0  0  0
 10 11  1  0  0  0  0
 10 29  1  0  0  0  0
 10 30  1  0  0  0  0
 11 31  1  0  0  0  0
 12 13  1  0  0  0  0
 12 14  1  0  0  0  0
 12 32  1  6  0  0  0
 13 33  1  0  0  0  0
 14 15  1  0  0  0  0
 14  5  1  0  0  0  0
 14 34  1  1  0  0  0
 15 16  1  0  0  0  0
 16 17  1  0  0  0  0
 16 18  1  0  0  0  0
 16 35  1  1  0  0  0
 17 36  1  0  0  0  0
 17 37  1  0  0  0  0
 17 38  1  0  0  0  0
 18 19  2  0  0  0  0
 18 20  1  0  0  0  0
M  CHG  1  20  -1
M  END
>  <UniqueID>
100

>  <SMILES>
CC(=O)N[C@H]1[C@@H](O)O[C@H](CO)[C@@H](O)[C@@H]1O[C@H](C)C(=O)[O-]

>  <Energy>
40.78589260221526

>  <Genealogy>
CC(=O)N[C@H]1C(O)O[C@H](CO)[C@@H](O)[C@@H]1O[C@H](C)C(=O)[O-] (protonated)
CC(=O)N[C@H]1[C@@H](O)O[C@H](CO)[C@@H](O)[C@@H]1O[C@H](C)C(=O)[O-] (chirality)
CC(=O)N[C@H]1[C@@H](O)O[C@H](CO)[C@@H](O)[C@@H]1O[C@H](C)C(=O)[O-] (3D coordinates assigned)
CC(=O)N[C@H]1[C@@H](O)O[C@H](CO)[C@@H](O)[C@@H]1O[C@H](C)C(=O)[O-] (nonaromatic ring conformer: 40.78589260221526 kcal/mol)

$$$$
5317448
 OpenBabel03032110343D

 26 26  0  0  0  0  0  0  0  0999 V2000
   -1.6412   -0.5804    0.0069 N   0  3  0  0  0  0  0  0  0  0  0  0
   -1.2632    0.8393    0.0469 C   0  0  1  0  0  0  0  0  0  0  0  0
   -0.1636    1.0976    1.1094 C   0  0  1  0  0  0  0  0  0  0  0  0
    0.9576    0.2678    0.9107 O   0  0  0  0  0  0  0  0  0  0  0  0
    0.2255    2.4631    1.1265 O   0  0  0  0  0  0  0  0  0  0  0  0
    0.7964    2.8602   -0.1118 C   0  0  2  0  0  0  0  0  0  0  0  0
    1.3360    4.2916    0.0221 C   0  0  0  0  0  0  0  0  0  0  0  0
    2.3313    4.3483    1.0082 O   0  0  0  0  0  0  0  0  0  0  0  0
   -0.2384    2.7611   -1.2598 C   0  0  2  0  0  0  0  0  0  0  0  0
   -1.2731    3.7083   -1.1255 O   0  0  0  0  0  0  0  0  0  0  0  0
   -0.8002    1.3270   -1.3425 C   0  0  2  0  0  0  0  0  0  0  0  0
   -1.8757    1.2788   -2.2448 O   0  0  0  0  0  0  0  0  0  0  0  0
   -2.4686   -0.7083   -0.6199 H   0  0  0  0  0  0  0  0  0  0  0  0
   -1.9073   -0.9053    0.9648 H   0  0  0  0  0  0  0  0  0  0  0  0
   -0.8532   -1.1681   -0.3501 H   0  0  0  0  0  0  0  0  0  0  0  0
   -2.1619    1.4250    0.3461 H   0  0  0  0  0  0  0  0  0  0  0  0
   -0.6067    0.8827    2.1100 H   0  0  0  0  0  0  0  0  0  0  0  0
    0.7818   -0.5846    1.3883 H   0  0  0  0  0  0  0  0  0  0  0  0
    1.6693    2.2152   -0.3658 H   0  0  0  0  0  0  0  0  0  0  0  0
    0.5146    4.9791    0.3160 H   0  0  0  0  0  0  0  0  0  0  0  0
    1.7431    4.6447   -0.9533 H   0  0  0  0  0  0  0  0  0  0  0  0
    3.1528    3.9619    0.6061 H   0  0  0  0  0  0  0  0  0  0  0  0
    0.2861    2.9742   -2.2173 H   0  0  0  0  0  0  0  0  0  0  0  0
   -1.6628    3.6167   -0.2183 H   0  0  0  0  0  0  0  0  0  0  0  0
    0.0134    0.6508   -1.6983 H   0  0  0  0  0  0  0  0  0  0  0  0
   -1.4876    1.3457   -3.1562 H   0  0  0  0  0  0  0  0  0  0  0  0
  1  2  1  0  0  0  0
  1 13  1  0  0  0  0
  1 14  1  0  0  0  0
  1 15  1  0  0  0  0
  2  3  1  0  0  0  0
  2 16  1  1  0  0  0
  3  4  1  0  0  0  0
  3  5  1  0  0  0  0
  3 17  1  1  0  0  0
  4 18  1  0  0  0  0
  5  6  1  0  0  0  0
  6  7  1  0  0  0  0
  6  9  1  0  0  0  0
  6 19  1  6  0  0  0
  7  8  1  0  0  0  0
  7 20  1  0  0  0  0
  7 21  1  0  0  0  0
  8 22  1  0  0  0  0
  9 10  1  0  0  0  0
  9 11  1  0  0  0  0
  9 23  1  6  0  0  0
 10 24  1  0  0  0  0
 11 12  1  0  0  0  0
 11  2  1  0  0  0  0
 11 25  1  6  0  0  0
 12 26  1  0  0  0  0
M  CHG  1   1   1
M  END
>  <UniqueID>
101

>  <SMILES>
[NH3+][C@H]1[C@@H](O)O[C@H](CO)[C@H](O)[C@@H]1O

>  <Energy>
26.259733152177596

>  <Genealogy>
[NH3+][C@H]1[C@@H](O)O[C@H](CO)[C@H](O)[C@@H]1O (protonated)
[NH3+][C@H]1[C@@H](O)O[C@H](CO)[C@H](O)[C@@H]1O (3D coordinates assigned)
[NH3+][C@H]1[C@@H](O)O[C@H](CO)[C@H](O)[C@@H]1O (nonaromatic ring conformer: 26.259733152177596 kcal/mol)

$$$$
5317448
 OpenBabel03032110343D

 25 25  0  0  0  0  0  0  0  0999 V2000
   -2.0716    2.2384   -0.5083 N   0  0  0  0  0  0  0  0  0  0  0  0
   -1.6288    0.9413    0.0125 C   0  0  1  0  0  0  0  0  0  0  0  0
   -1.3034   -0.0309   -1.1552 C   0  0  1  0  0  0  0  0  0  0  0  0
   -0.4948    0.5329   -2.1632 O   0  0  0  0  0  0  0  0  0  0  0  0
   -0.7741   -1.2703   -0.7038 O   0  0  0  0  0  0  0  0  0  0  0  0
    0.4002   -1.0973    0.0744 C   0  0  2  0  0  0  0  0  0  0  0  0
    1.0096   -2.4742    0.3804 C   0  0  0  0  0  0  0  0  0  0  0  0
    0.0567   -3.3339    0.9503 O   0  0  0  0  0  0  0  0  0  0  0  0
    0.1010   -0.3011    1.3641 C   0  0  2  0  0  0  0  0  0  0  0  0
   -0.8483   -0.9852    2.1445 O   0  0  0  0  0  0  0  0  0  0  0  0
   -0.4349    1.0907    0.9806 C   0  0  2  0  0  0  0  0  0  0  0  0
   -0.8441    1.7888    2.1289 O   0  0  0  0  0  0  0  0  0  0  0  0
   -2.4647    2.7999    0.2816 H   0  0  0  0  0  0  0  0  0  0  0  0
   -1.2517    2.7684   -0.8836 H   0  0  0  0  0  0  0  0  0  0  0  0
   -2.4756    0.4926    0.5810 H   0  0  0  0  0  0  0  0  0  0  0  0
   -2.2763   -0.2647   -1.6380 H   0  0  0  0  0  0  0  0  0  0  0  0
    0.2349    1.0495   -1.7382 H   0  0  0  0  0  0  0  0  0  0  0  0
    1.1780   -0.5544   -0.5081 H   0  0  0  0  0  0  0  0  0  0  0  0
    1.3570   -2.9279   -0.5724 H   0  0  0  0  0  0  0  0  0  0  0  0
    1.9070   -2.3626    1.0341 H   0  0  0  0  0  0  0  0  0  0  0  0
    0.2640   -3.4002    1.9187 H   0  0  0  0  0  0  0  0  0  0  0  0
    1.0523   -0.1771    1.9344 H   0  0  0  0  0  0  0  0  0  0  0  0
   -0.7214   -0.6869    3.0828 H   0  0  0  0  0  0  0  0  0  0  0  0
    0.3796    1.6621    0.4772 H   0  0  0  0  0  0  0  0  0  0  0  0
   -0.0182    2.0636    2.6066 H   0  0  0  0  0  0  0  0  0  0  0  0
  1  2  1  0  0  0  0
  1 13  1  0  0  0  0
  1 14  1  0  0  0  0
  2  3  1  0  0  0  0
  2 15  1  1  0  0  0
  3  4  1  0  0  0  0
  3  5  1  0  0  0  0
  3 16  1  6  0  0  0
  4 17  1  0  0  0  0
  5  6  1  0  0  0  0
  6  7  1  0  0  0  0
  6  9  1  0  0  0  0
  6 18  1  6  0  0  0
  7  8  1  0  0  0  0
  7 19  1  0  0  0  0
  7 20  1  0  0  0  0
  8 21  1  0  0  0  0
  9 10  1  0  0  0  0
  9 11  1  0  0  0  0
  9 22  1  1  0  0  0
 10 23  1  0  0  0  0
 11 12  1  0  0  0  0
 11  2  1  0  0  0  0
 11 24  1  6  0  0  0
 12 25  1  0  0  0  0
M  END
>  <UniqueID>
102

>  <SMILES>
N[C@H]1[C@@H](O)O[C@H](CO)[C@H](O)[C@@H]1O

>  <Energy>
27.511911332116675

>  <Genealogy>
N[C@H]1[C@@H](O)O[C@H](CO)[C@H](O)[C@@H]1O (3D coordinates assigned)
N[C@H]1[C@@H](O)O[C@H](CO)[C@H](O)[C@@H]1O (nonaromatic ring conformer: 27.511911332116675 kcal/mol)

$$$$
5284365
 OpenBabel03032110343D

 36 36  0  0  0  0  0  0  0  0999 V2000
   -1.0442   -1.6642   -2.1378 H   0  0  0  0  0  0  0  0  0  0  0  0
   -0.8582   -2.5696   -1.7291 O   0  0  0  0  0  0  0  0  0  0  0  0
   -0.0578   -2.7673   -0.5981 C   0  0  0  0  0  0  0  0  0  0  0  0
    0.4674   -1.7632    0.0462 N   0  0  0  0  0  0  0  0  0  0  0  0
    0.3031   -0.3391   -0.2550 C   0  0  1  0  0  0  0  0  0  0  0  0
    0.4045   -0.1670   -1.3497 H   0  0  0  0  0  0  0  0  0  0  0  0
   -1.0805    0.1563    0.2215 C   0  0  1  0  0  0  0  0  0  0  0  0
   -1.8554   -0.3593   -0.3866 H   0  0  0  0  0  0  0  0  0  0  0  0
   -1.2927   -0.1727    1.5726 O   0  0  0  0  0  0  0  0  0  0  0  0
   -2.2334    0.0705    1.7756 H   0  0  0  0  0  0  0  0  0  0  0  0
   -1.2309    1.5512    0.0019 O   0  0  0  0  0  0  0  0  0  0  0  0
   -0.2759    2.3042    0.7347 C   0  0  2  0  0  0  0  0  0  0  0  0
   -0.3729    2.0982    1.8259 H   0  0  0  0  0  0  0  0  0  0  0  0
   -0.5861    3.7952    0.5451 C   0  0  0  0  0  0  0  0  0  0  0  0
    0.1376    4.4127    1.1228 H   0  0  0  0  0  0  0  0  0  0  0  0
   -1.6066    4.0027    0.9384 H   0  0  0  0  0  0  0  0  0  0  0  0
   -0.5308    4.1381   -0.8128 O   0  0  0  0  0  0  0  0  0  0  0  0
   -0.7380    5.1075   -0.8605 H   0  0  0  0  0  0  0  0  0  0  0  0
    1.1628    1.9661    0.2798 C   0  0  1  0  0  0  0  0  0  0  0  0
    1.2727    2.2379   -0.7975 H   0  0  0  0  0  0  0  0  0  0  0  0
    2.0850    2.6872    1.0573 O   0  0  0  0  0  0  0  0  0  0  0  0
    2.9304    2.7281    0.5385 H   0  0  0  0  0  0  0  0  0  0  0  0
    1.4163    0.4592    0.4448 C   0  0  2  0  0  0  0  0  0  0  0  0
    1.4178    0.2193    1.5359 H   0  0  0  0  0  0  0  0  0  0  0  0
    2.6630    0.1364   -0.1173 O   0  0  0  0  0  0  0  0  0  0  0  0
    2.9590   -0.7129    0.3031 H   0  0  0  0  0  0  0  0  0  0  0  0
    0.1728   -4.1149   -0.1321 N   0  0  0  0  0  0  0  0  0  0  0  0
    1.1896   -4.4232    0.7933 N   0  0  0  0  0  0  0  0  0  0  0  0
    2.0630   -3.5946    1.1240 O   0  0  0  0  0  0  0  0  0  0  0  0
   -0.7194   -5.2032   -0.5412 C   0  0  0  0  0  0  0  0  0  0  0  0
   -0.1305   -6.1420   -0.6290 H   0  0  0  0  0  0  0  0  0  0  0  0
   -1.1631   -5.0102   -1.5412 H   0  0  0  0  0  0  0  0  0  0  0  0
   -1.8272   -5.4154    0.4907 C   0  0  0  0  0  0  0  0  0  0  0  0
   -1.3874   -5.5603    1.5003 H   0  0  0  0  0  0  0  0  0  0  0  0
   -2.4052   -6.3258    0.2260 H   0  0  0  0  0  0  0  0  0  0  0  0
   -2.9504   -4.0301    0.5318 Cl  0  0  0  0  0  0  0  0  0  0  0  0
  1  2  1  0  0  0  0
  2  3  1  0  0  0  0
  3  4  2  0  0  0  0
  3 27  1  0  0  0  0
  4  5  1  0  0  0  0
  5  6  1  6  0  0  0
  5  7  1  0  0  0  0
  7  8  1  6  0  0  0
  7  9  1  0  0  0  0
  7 11  1  0  0  0  0
  9 10  1  0  0  0  0
 11 12  1  0  0  0  0
 12 13  1  1  0  0  0
 12 14  1  0  0  0  0
 12 19  1  0  0  0  0
 14 15  1  0  0  0  0
 14 16  1  0  0  0  0
 14 17  1  0  0  0  0
 17 18  1  0  0  0  0
 19 20  1  6  0  0  0
 19 21  1  0  0  0  0
 19 23  1  0  0  0  0
 21 22  1  0  0  0  0
 23 24  1  1  0  0  0
 23 25  1  0  0  0  0
 23  5  1  0  0  0  0
 25 26  1  0  0  0  0
 27 28  1  0  0  0  0
 27 30  1  0  0  0  0
 28 29  2  0  0  0  0
 30 31  1  0  0  0  0
 30 32  1  0  0  0  0
 30 33  1  0  0  0  0
 33 34  1  0  0  0  0
 33 35  1  0  0  0  0
 33 36  1  0  0  0  0
M  END
>  <UniqueID>
103

>  <SMILES>
O=NN(CCCl)/C(O)=N/[C@H]1[C@@H](O)O[C@H](CO)[C@@H](O)[C@@H]1O

>  <Energy>
33.04108866488622

>  <Genealogy>
O=NN(CCCl)C(O)=N[C@H]1[C@@H](O)O[C@H](CO)[C@@H](O)[C@@H]1O (tautomer)
O=NN(CCCl)/C(O)=N/[C@H]1[C@@H](O)O[C@H](CO)[C@@H](O)[C@@H]1O (cis-trans isomerization)
O=NN(CCCl)/C(O)=N/[C@H]1[C@@H](O)O[C@H](CO)[C@@H](O)[C@@H]1O (3D coordinates assigned)
O=NN(CCCl)/C(O)=N/[C@H]1[C@@H](O)O[C@H](CO)[C@@H](O)[C@@H]1O (nonaromatic ring conformer: 33.04108866488622 kcal/mol)

$$$$
5284365
 OpenBabel03032110343D

 37 37  0  0  0  0  0  0  0  0999 V2000
    0.4129    3.2838   -1.2830 H   0  0  0  0  0  0  0  0  0  0  0  0
    0.9009    2.6714   -1.9251 O   0  0  0  0  0  0  0  0  0  0  0  0
    1.3956    1.4364   -1.5043 C   0  0  0  0  0  0  0  0  0  0  0  0
    1.2132    1.0572   -0.1312 N   0  0  0  0  0  0  0  0  0  0  0  0
    1.2894    1.8157    0.5837 H   0  0  0  0  0  0  0  0  0  0  0  0
    0.5017   -0.1692    0.2479 C   0  0  1  0  0  0  0  0  0  0  0  0
    0.4089   -0.8436   -0.6331 H   0  0  0  0  0  0  0  0  0  0  0  0
    1.2812   -0.9295    1.3413 C   0  0  1  0  0  0  0  0  0  0  0  0
    2.2485   -1.2614    0.8971 H   0  0  0  0  0  0  0  0  0  0  0  0
    1.5396   -0.1140    2.4607 O   0  0  0  0  0  0  0  0  0  0  0  0
    2.3790    0.3825    2.2752 H   0  0  0  0  0  0  0  0  0  0  0  0
    0.5874   -2.1037    1.7306 O   0  0  0  0  0  0  0  0  0  0  0  0
   -0.6786   -1.8058    2.3025 C   0  0  2  0  0  0  0  0  0  0  0  0
   -0.5560   -1.1490    3.1949 H   0  0  0  0  0  0  0  0  0  0  0  0
   -1.2910   -3.1248    2.7955 C   0  0  0  0  0  0  0  0  0  0  0  0
   -1.5572   -3.7691    1.9272 H   0  0  0  0  0  0  0  0  0  0  0  0
   -0.5368   -3.6641    3.4119 H   0  0  0  0  0  0  0  0  0  0  0  0
   -2.4268   -2.8776    3.5780 O   0  0  0  0  0  0  0  0  0  0  0  0
   -2.7752   -3.7672    3.8467 H   0  0  0  0  0  0  0  0  0  0  0  0
   -1.5977   -1.1114    1.2672 C   0  0  1  0  0  0  0  0  0  0  0  0
   -1.7691   -1.8158    0.4175 H   0  0  0  0  0  0  0  0  0  0  0  0
   -2.8218   -0.7714    1.8675 O   0  0  0  0  0  0  0  0  0  0  0  0
   -3.4850   -0.6721    1.1355 H   0  0  0  0  0  0  0  0  0  0  0  0
   -0.9189    0.1620    0.7362 C   0  0  2  0  0  0  0  0  0  0  0  0
   -0.8636    0.9041    1.5694 H   0  0  0  0  0  0  0  0  0  0  0  0
   -1.6801    0.6827   -0.3239 O   0  0  0  0  0  0  0  0  0  0  0  0
   -1.4805    1.6536   -0.3744 H   0  0  0  0  0  0  0  0  0  0  0  0
    2.0299    0.6573   -2.3453 N   0  3  0  0  0  0  0  0  0  0  0  0
    2.6277   -0.5273   -1.8709 N   0  0  0  0  0  0  0  0  0  0  0  0
    3.2338   -1.3121   -2.6297 O   0  0  0  0  0  0  0  0  0  0  0  0
    2.1374    1.0187   -3.7714 C   0  0  0  0  0  0  0  0  0  0  0  0
    2.9847    0.4865   -4.2532 H   0  0  0  0  0  0  0  0  0  0  0  0
    2.3613    2.1029   -3.8795 H   0  0  0  0  0  0  0  0  0  0  0  0
    0.8441    0.6919   -4.5215 C   0  0  0  0  0  0  0  0  0  0  0  0
   -0.0157    1.2196   -4.0579 H   0  0  0  0  0  0  0  0  0  0  0  0
    0.9352    1.0312   -5.5748 H   0  0  0  0  0  0  0  0  0  0  0  0
    0.5214   -1.0618   -4.5188 Cl  0  0  0  0  0  0  0  0  0  0  0  0
  1  2  1  0  0  0  0
  2  3  1  0  0  0  0
  3  4  1  0  0  0  0
  3 28  2  0  0  0  0
  4  5  1  0  0  0  0
  4  6  1  0  0  0  0
  6  7  1  6  0  0  0
  6  8  1  0  0  0  0
  8  9  1  6  0  0  0
  8 10  1  0  0  0  0
  8 12  1  0  0  0  0
 10 11  1  0  0  0  0
 12 13  1  0  0  0  0
 13 14  1  1  0  0  0
 13 15  1  0  0  0  0
 13 20  1  0  0  0  0
 15 16  1  0  0  0  0
 15 17  1  0  0  0  0
 15 18  1  0  0  0  0
 18 19  1  0  0  0  0
 20 21  1  6  0  0  0
 20 22  1  0  0  0  0
 20 24  1  0  0  0  0
 22 23  1  0  0  0  0
 24 25  1  1  0  0  0
 24 26  1  0  0  0  0
 24  6  1  0  0  0  0
 26 27  1  0  0  0  0
 28 29  1  0  0  0  0
 28 31  1  0  0  0  0
 29 30  2  0  0  0  0
 31 32  1  0  0  0  0
 31 33  1  0  0  0  0
 31 34  1  0  0  0  0
 34 35  1  0  0  0  0
 34 36  1  0  0  0  0
 34 37  1  0  0  0  0
M  CHG  1  28   1
M  END
>  <UniqueID>
104

>  <SMILES>
O=N/[N+](CCCl)=C(/O)N[C@H]1[C@@H](O)O[C@H](CO)[C@@H](O)[C@@H]1O

>  <Energy>
37.87978064239549

>  <Genealogy>
O=N[NH+](CCCl)C(=O)N[C@H]1[C@@H](O)O[C@H](CO)[C@@H](O)[C@@H]1O (protonated)
O=N[N+](CCCl)=C(O)N[C@H]1[C@@H](O)O[C@H](CO)[C@@H](O)[C@@H]1O (tautomer)
O=N/[N+](CCCl)=C(/O)N[C@H]1[C@@H](O)O[C@H](CO)[C@@H](O)[C@@H]1O (cis-trans isomerization)
O=N/[N+](CCCl)=C(/O)N[C@H]1[C@@H](O)O[C@H](CO)[C@@H](O)[C@@H]1O (3D coordinates assigned)
O=N/[N+](CCCl)=C(/O)N[C@H]1[C@@H](O)O[C@H](CO)[C@@H](O)[C@@H]1O (nonaromatic ring conformer: 37.87978064239549 kcal/mol)

$$$$
4282259
 OpenBabel03032110343D

 40 41  0  0  0  0  0  0  0  0999 V2000
   -1.4968    4.3186    1.9036 H   0  0  0  0  0  0  0  0  0  0  0  0
   -1.6995    4.1887    0.9193 O   0  0  0  0  0  0  0  0  0  0  0  0
   -1.1317    3.1410    0.1998 C   0  0  0  0  0  0  0  0  0  0  0  0
   -0.3160    2.3255    0.8077 N   0  0  0  0  0  0  0  0  0  0  0  0
    0.3617    1.1589    0.2300 C   0  0  2  0  0  0  0  0  0  0  0  0
    0.4374    1.2533   -0.8754 H   0  0  0  0  0  0  0  0  0  0  0  0
   -0.4113   -0.1317    0.5728 C   0  0  1  0  0  0  0  0  0  0  0  0
   -0.5241   -0.2113    1.6799 H   0  0  0  0  0  0  0  0  0  0  0  0
   -1.7141   -0.0624   -0.0024 O   0  0  0  0  0  0  0  0  0  0  0  0
   -2.7337   -1.0047    0.1997 C   0  0  0  0  0  0  0  0  0  0  0  0
   -3.9576   -0.8064   -0.4523 C   0  0  0  0  0  0  0  0  0  0  0  0
   -4.0951    0.0566   -1.0917 H   0  0  0  0  0  0  0  0  0  0  0  0
   -5.0063   -1.7158   -0.2846 C   0  0  0  0  0  0  0  0  0  0  0  0
   -5.9483   -1.5546   -0.7927 H   0  0  0  0  0  0  0  0  0  0  0  0
   -4.8392   -2.8323    0.5384 C   0  0  0  0  0  0  0  0  0  0  0  0
   -5.6515   -3.5359    0.6677 H   0  0  0  0  0  0  0  0  0  0  0  0
   -3.6235   -3.0401    1.1949 C   0  0  0  0  0  0  0  0  0  0  0  0
   -3.4955   -3.9052    1.8328 H   0  0  0  0  0  0  0  0  0  0  0  0
   -2.5722   -2.1325    1.0299 C   0  0  0  0  0  0  0  0  0  0  0  0
   -1.6431   -2.3174    1.5510 H   0  0  0  0  0  0  0  0  0  0  0  0
    0.2638   -1.2614    0.0438 O   0  0  0  0  0  0  0  0  0  0  0  0
    1.5163   -1.4350    0.6839 C   0  0  1  0  0  0  0  0  0  0  0  0
    1.3795   -1.4984    1.7895 H   0  0  0  0  0  0  0  0  0  0  0  0
    2.1125   -2.7788    0.2369 C   0  0  0  0  0  0  0  0  0  0  0  0
    1.3952   -3.6000    0.4657 H   0  0  0  0  0  0  0  0  0  0  0  0
    2.2723   -2.7791   -0.8622 H   0  0  0  0  0  0  0  0  0  0  0  0
    3.3385   -3.0225    0.8732 O   0  0  0  0  0  0  0  0  0  0  0  0
    3.1273   -3.2784    1.8089 H   0  0  0  0  0  0  0  0  0  0  0  0
    2.4565   -0.2520    0.3494 C   0  0  1  0  0  0  0  0  0  0  0  0
    3.4148   -0.3825    0.9050 H   0  0  0  0  0  0  0  0  0  0  0  0
    2.7129   -0.2224   -1.0325 O   0  0  0  0  0  0  0  0  0  0  0  0
    3.5142    0.3490   -1.1635 H   0  0  0  0  0  0  0  0  0  0  0  0
    1.7950    1.0720    0.7878 C   0  0  2  0  0  0  0  0  0  0  0  0
    2.3801    1.9303    0.3809 H   0  0  0  0  0  0  0  0  0  0  0  0
    1.7676    1.1539    2.1917 O   0  0  0  0  0  0  0  0  0  0  0  0
    2.6896    1.3774    2.4844 H   0  0  0  0  0  0  0  0  0  0  0  0
   -1.4668    3.0155   -1.2579 C   0  0  0  0  0  0  0  0  0  0  0  0
   -0.5580    3.1905   -1.8707 H   0  0  0  0  0  0  0  0  0  0  0  0
   -1.8832    2.0129   -1.4808 H   0  0  0  0  0  0  0  0  0  0  0  0
   -2.2271    3.7745   -1.5376 H   0  0  0  0  0  0  0  0  0  0  0  0
  1  2  1  0  0  0  0
  2  3  1  0  0  0  0
  3  4  2  0  0  0  0
  3 37  1  0  0  0  0
  4  5  1  0  0  0  0
  5  6  1  6  0  0  0
  5  7  1  0  0  0  0
  7  8  1  1  0  0  0
  7  9  1  0  0  0  0
  7 21  1  0  0  0  0
  9 10  1  0  0  0  0
 10 11  2  0  0  0  0
 11 12  1  0  0  0  0
 11 13  1  0  0  0  0
 13 14  1  0  0  0  0
 13 15  2  0  0  0  0
 15 16  1  0  0  0  0
 15 17  1  0  0  0  0
 17 18  1  0  0  0  0
 17 19  2  0  0  0  0
 19 20  1  0  0  0  0
 19 10  1  0  0  0  0
 21 22  1  0  0  0  0
 22 23  1  1  0  0  0
 22 24  1  0  0  0  0
 22 29  1  0  0  0  0
 24 25  1  0  0  0  0
 24 26  1  0  0  0  0
 24 27  1  0  0  0  0
 27 28  1  0  0  0  0
 29 30  1  1  0  0  0
 29 31  1  0  0  0  0
 29 33  1  0  0  0  0
 31 32  1  0  0  0  0
 33 34  1  6  0  0  0
 33 35  1  0  0  0  0
 33  5  1  0  0  0  0
 35 36  1  0  0  0  0
 37 38  1  0  0  0  0
 37 39  1  0  0  0  0
 37 40  1  0  0  0  0
M  END
>  <UniqueID>
105

>  <SMILES>
C/C(O)=N\[C@@H]1[C@@H](Oc2ccccc2)O[C@@H](CO)[C@@H](O)[C@@H]1O

>  <Energy>
38.7930630038899

>  <Genealogy>
CC(O)=NC1C(Oc2ccccc2)OC(CO)C(O)C1O (tautomer)
CC(O)=N[C@@H]1[C@@H](Oc2ccccc2)O[C@@H](CO)[C@@H](O)[C@@H]1O (chirality)
C/C(O)=N\[C@@H]1[C@@H](Oc2ccccc2)O[C@@H](CO)[C@@H](O)[C@@H]1O (cis-trans isomerization)
C/C(O)=N\[C@@H]1[C@@H](Oc2ccccc2)O[C@@H](CO)[C@@H](O)[C@@H]1O (3D coordinates assigned)
C/C(O)=N\[C@@H]1[C@@H](Oc2ccccc2)O[C@@H](CO)[C@@H](O)[C@@H]1O (nonaromatic ring conformer: 38.7930630038899 kcal/mol)

$$$$
4282259
 OpenBabel03032110343D

 40 41  0  0  0  0  0  0  0  0999 V2000
   -3.6765   -1.6844    0.6443 H   0  0  0  0  0  0  0  0  0  0  0  0
   -3.5149   -2.4141   -0.0358 O   0  0  0  0  0  0  0  0  0  0  0  0
   -2.4022   -2.4590   -0.8808 C   0  0  0  0  0  0  0  0  0  0  0  0
   -1.4745   -1.5442   -0.8694 N   0  0  0  0  0  0  0  0  0  0  0  0
   -1.4351   -0.3320   -0.0463 C   0  0  1  0  0  0  0  0  0  0  0  0
   -1.8377   -0.5353    0.9703 H   0  0  0  0  0  0  0  0  0  0  0  0
    0.0308    0.1024    0.1239 C   0  0  2  0  0  0  0  0  0  0  0  0
    0.4931    0.2360   -0.8787 H   0  0  0  0  0  0  0  0  0  0  0  0
    0.7284   -0.9463    0.7972 O   0  0  0  0  0  0  0  0  0  0  0  0
    2.1152   -0.9921    1.0073 C   0  0  0  0  0  0  0  0  0  0  0  0
    2.6384   -2.0616    1.7457 C   0  0  0  0  0  0  0  0  0  0  0  0
    1.9758   -2.8230    2.1373 H   0  0  0  0  0  0  0  0  0  0  0  0
    4.0132   -2.1544    1.9839 C   0  0  0  0  0  0  0  0  0  0  0  0
    4.4081   -2.9836    2.5565 H   0  0  0  0  0  0  0  0  0  0  0  0
    4.8773   -1.1775    1.4834 C   0  0  0  0  0  0  0  0  0  0  0  0
    5.9413   -1.2498    1.6680 H   0  0  0  0  0  0  0  0  0  0  0  0
    4.3675   -0.1079    0.7431 C   0  0  0  0  0  0  0  0  0  0  0  0
    5.0380    0.6473    0.3536 H   0  0  0  0  0  0  0  0  0  0  0  0
    2.9930   -0.0123    0.5029 C   0  0  0  0  0  0  0  0  0  0  0  0
    2.6273    0.8211   -0.0773 H   0  0  0  0  0  0  0  0  0  0  0  0
    0.1319    1.2874    0.9015 O   0  0  0  0  0  0  0  0  0  0  0  0
   -0.5400    2.3945    0.3121 C   0  0  1  0  0  0  0  0  0  0  0  0
   -0.5091    3.2112    1.0667 H   0  0  0  0  0  0  0  0  0  0  0  0
    0.1990    2.9481   -0.9251 C   0  0  0  0  0  0  0  0  0  0  0  0
   -0.2657    3.9127   -1.2281 H   0  0  0  0  0  0  0  0  0  0  0  0
    0.1227    2.2524   -1.7875 H   0  0  0  0  0  0  0  0  0  0  0  0
    1.5450    3.1727   -0.6105 O   0  0  0  0  0  0  0  0  0  0  0  0
    1.9712    3.5082   -1.4416 H   0  0  0  0  0  0  0  0  0  0  0  0
   -2.0420    2.0981    0.0702 C   0  0  1  0  0  0  0  0  0  0  0  0
   -2.5328    1.9623    1.0637 H   0  0  0  0  0  0  0  0  0  0  0  0
   -2.6610    3.1608   -0.6088 O   0  0  0  0  0  0  0  0  0  0  0  0
   -2.7424    3.9066    0.0415 H   0  0  0  0  0  0  0  0  0  0  0  0
   -2.2287    0.7977   -0.7236 C   0  0  2  0  0  0  0  0  0  0  0  0
   -1.8428    0.9320   -1.7622 H   0  0  0  0  0  0  0  0  0  0  0  0
   -3.5915    0.4620   -0.7671 O   0  0  0  0  0  0  0  0  0  0  0  0
   -4.0034    1.0138   -1.4824 H   0  0  0  0  0  0  0  0  0  0  0  0
   -2.2569   -3.6171   -1.8096 C   0  0  0  0  0  0  0  0  0  0  0  0
   -3.2040   -4.1950   -1.8531 H   0  0  0  0  0  0  0  0  0  0  0  0
   -1.4437   -4.2818   -1.4504 H   0  0  0  0  0  0  0  0  0  0  0  0
   -2.0120   -3.2559   -2.8308 H   0  0  0  0  0  0  0  0  0  0  0  0
  1  2  1  0  0  0  0
  2  3  1  0  0  0  0
  3  4  2  0  0  0  0
  3 37  1  0  0  0  0
  4  5  1  0  0  0  0
  5  6  1  1  0  0  0
  5  7  1  0  0  0  0
  7  8  1  6  0  0  0
  7  9  1  0  0  0  0
  7 21  1  0  0  0  0
  9 10  1  0  0  0  0
 10 11  2  0  0  0  0
 11 12  1  0  0  0  0
 11 13  1  0  0  0  0
 13 14  1  0  0  0  0
 13 15  2  0  0  0  0
 15 16  1  0  0  0  0
 15 17  1  0  0  0  0
 17 18  1  0  0  0  0
 17 19  2  0  0  0  0
 19 20  1  0  0  0  0
 19 10  1  0  0  0  0
 21 22  1  0  0  0  0
 22 23  1  1  0  0  0
 22 24  1  0  0  0  0
 22 29  1  0  0  0  0
 24 25  1  0  0  0  0
 24 26  1  0  0  0  0
 24 27  1  0  0  0  0
 27 28  1  0  0  0  0
 29 30  1  1  0  0  0
 29 31  1  0  0  0  0
 29 33  1  0  0  0  0
 31 32  1  0  0  0  0
 33 34  1  6  0  0  0
 33 35  1  0  0  0  0
 33  5  1  0  0  0  0
 35 36  1  0  0  0  0
 37 38  1  0  0  0  0
 37 39  1  0  0  0  0
 37 40  1  0  0  0  0
M  END
>  <UniqueID>
106

>  <SMILES>
C/C(O)=N\[C@H]1[C@H](Oc2ccccc2)O[C@@H](CO)[C@@H](O)[C@@H]1O

>  <Energy>
41.283454308119815

>  <Genealogy>
CC(O)=NC1C(Oc2ccccc2)OC(CO)C(O)C1O (tautomer)
CC(O)=N[C@H]1[C@H](Oc2ccccc2)O[C@@H](CO)[C@@H](O)[C@@H]1O (chirality)
C/C(O)=N\[C@H]1[C@H](Oc2ccccc2)O[C@@H](CO)[C@@H](O)[C@@H]1O (cis-trans isomerization)
C/C(O)=N\[C@H]1[C@H](Oc2ccccc2)O[C@@H](CO)[C@@H](O)[C@@H]1O (3D coordinates assigned)
C/C(O)=N\[C@H]1[C@H](Oc2ccccc2)O[C@@H](CO)[C@@H](O)[C@@H]1O (nonaromatic ring conformer: 41.283454308119815 kcal/mol)

$$$$
3052142
 OpenBabel03032110343D

 50 50  0  0  0  0  0  0  0  0999 V2000
   -3.2971    0.1458   -1.9484 H   0  0  0  0  0  0  0  0  0  0  0  0
   -2.5643    0.4089   -1.3007 O   0  0  0  0  0  0  0  0  0  0  0  0
   -2.5653    1.6533   -0.6725 C   0  0  0  0  0  0  0  0  0  0  0  0
   -1.6356    1.9783    0.1786 N   0  0  0  0  0  0  0  0  0  0  0  0
   -0.4718    1.1749    0.5763 C   0  0  1  0  0  0  0  0  0  0  0  0
    0.0963    1.7794    1.3181 H   0  0  0  0  0  0  0  0  0  0  0  0
   -0.8693   -0.1445    1.2798 C   0  0  2  0  0  0  0  0  0  0  0  0
   -1.4704   -0.7939    0.6043 H   0  0  0  0  0  0  0  0  0  0  0  0
   -1.6265    0.1587    2.4525 O   0  0  0  0  0  0  0  0  0  0  0  0
   -3.0247    0.1298    2.5143 C   0  0  0  0  0  0  0  0  0  0  0  0
   -3.7072   -0.3401    1.5642 O   0  0  0  0  0  0  0  0  0  0  0  0
   -3.7119    0.5985    3.7509 C   0  0  0  0  0  0  0  0  0  0  0  0
   -3.9072   -0.2675    4.4167 H   0  0  0  0  0  0  0  0  0  0  0  0
   -3.0720    1.3324    4.2842 H   0  0  0  0  0  0  0  0  0  0  0  0
   -4.6747    1.0866    3.4900 H   0  0  0  0  0  0  0  0  0  0  0  0
    0.2958   -0.8437    1.6840 O   0  0  0  0  0  0  0  0  0  0  0  0
    1.0594   -1.2419    0.5565 C   0  0  2  0  0  0  0  0  0  0  0  0
    0.4228   -1.8153   -0.1571 H   0  0  0  0  0  0  0  0  0  0  0  0
    2.1667   -2.1966    1.0292 C   0  0  0  0  0  0  0  0  0  0  0  0
    2.7983   -1.6904    1.7891 H   0  0  0  0  0  0  0  0  0  0  0  0
    1.7154   -3.0873    1.5188 H   0  0  0  0  0  0  0  0  0  0  0  0
    2.9974   -2.6089   -0.0557 O   0  0  0  0  0  0  0  0  0  0  0  0
    2.6004   -3.5374   -1.0239 C   0  0  0  0  0  0  0  0  0  0  0  0
    1.4802   -4.1115   -0.9494 O   0  0  0  0  0  0  0  0  0  0  0  0
    3.4977   -3.8181   -2.1804 C   0  0  0  0  0  0  0  0  0  0  0  0
    4.5469   -3.5705   -1.9153 H   0  0  0  0  0  0  0  0  0  0  0  0
    3.4409   -4.8925   -2.4555 H   0  0  0  0  0  0  0  0  0  0  0  0
    3.1860   -3.1997   -3.0477 H   0  0  0  0  0  0  0  0  0  0  0  0
    1.6322    0.0006   -0.1688 C   0  0  2  0  0  0  0  0  0  0  0  0
    2.1807   -0.3235   -1.0805 H   0  0  0  0  0  0  0  0  0  0  0  0
    2.4911    0.7421    0.7043 O   0  0  0  0  0  0  0  0  0  0  0  0
    3.8891    0.6904    0.6600 C   0  0  0  0  0  0  0  0  0  0  0  0
    4.4870    0.0120   -0.2186 O   0  0  0  0  0  0  0  0  0  0  0  0
    4.6805    1.4951    1.6330 C   0  0  0  0  0  0  0  0  0  0  0  0
    4.0770    1.6866    2.5449 H   0  0  0  0  0  0  0  0  0  0  0  0
    5.6018    0.9466    1.9215 H   0  0  0  0  0  0  0  0  0  0  0  0
    4.9594    2.4644    1.1702 H   0  0  0  0  0  0  0  0  0  0  0  0
    0.4673    0.9027   -0.6157 C   0  0  2  0  0  0  0  0  0  0  0  0
   -0.0945    0.3793   -1.4192 H   0  0  0  0  0  0  0  0  0  0  0  0
    0.9621    2.1455   -1.1184 O   0  0  0  0  0  0  0  0  0  0  0  0
    1.5996    2.2799   -2.3565 C   0  0  0  0  0  0  0  0  0  0  0  0
    1.6919    1.3013   -3.1464 O   0  0  0  0  0  0  0  0  0  0  0  0
    2.1237    3.6127   -2.7689 C   0  0  0  0  0  0  0  0  0  0  0  0
    1.3543    4.1433   -3.3672 H   0  0  0  0  0  0  0  0  0  0  0  0
    2.3682    4.2170   -1.8703 H   0  0  0  0  0  0  0  0  0  0  0  0
    3.0435    3.4896   -3.3788 H   0  0  0  0  0  0  0  0  0  0  0  0
   -3.6667    2.6258   -0.9542 C   0  0  0  0  0  0  0  0  0  0  0  0
   -4.0245    2.5022   -1.9977 H   0  0  0  0  0  0  0  0  0  0  0  0
   -3.3023    3.6680   -0.8308 H   0  0  0  0  0  0  0  0  0  0  0  0
   -5.0215    2.3463    0.1645 Cl  0  0  0  0  0  0  0  0  0  0  0  0
  1  2  1  0  0  0  0
  2  3  1  0  0  0  0
  3  4  2  0  0  0  0
  3 47  1  0  0  0  0
  4  5  1  0  0  0  0
  5  6  1  1  0  0  0
  5  7  1  0  0  0  0
  7  8  1  6  0  0  0
  7  9  1  0  0  0  0
  7 16  1  0  0  0  0
  9 10  1  0  0  0  0
 10 11  2  0  0  0  0
 10 12  1  0  0  0  0
 12 13  1  0  0  0  0
 12 14  1  0  0  0  0
 12 15  1  0  0  0  0
 16 17  1  0  0  0  0
 17 18  1  6  0  0  0
 17 19  1  0  0  0  0
 17 29  1  0  0  0  0
 19 20  1  0  0  0  0
 19 21  1  0  0  0  0
 19 22  1  0  0  0  0
 22 23  1  0  0  0  0
 23 24  2  0  0  0  0
 23 25  1  0  0  0  0
 25 26  1  0  0  0  0
 25 27  1  0  0  0  0
 25 28  1  0  0  0  0
 29 30  1  6  0  0  0
 29 31  1  0  0  0  0
 29 38  1  0  0  0  0
 31 32  1  0  0  0  0
 32 33  2  0  0  0  0
 32 34  1  0  0  0  0
 34 35  1  0  0  0  0
 34 36  1  0  0  0  0
 34 37  1  0  0  0  0
 38 39  1  6  0  0  0
 38 40  1  0  0  0  0
 38  5  1  0  0  0  0
 40 41  1  0  0  0  0
 41 42  2  0  0  0  0
 41 43  1  0  0  0  0
 43 44  1  0  0  0  0
 43 45  1  0  0  0  0
 43 46  1  0  0  0  0
 47 48  1  0  0  0  0
 47 49  1  0  0  0  0
 47 50  1  0  0  0  0
M  END
>  <UniqueID>
107

>  <SMILES>
CC(=O)OC[C@H]1O[C@@H](OC(C)=O)[C@H](/N=C(\O)CCl)[C@@H](OC(C)=O)[C@H]1OC(C)=O

>  <Energy>
34.58612736177272

>  <Genealogy>
CC(=O)OC[C@H]1O[C@@H](OC(C)=O)[C@H](N=C(O)CCl)[C@@H](OC(C)=O)[C@H]1OC(C)=O (tautomer)
CC(=O)OC[C@H]1O[C@@H](OC(C)=O)[C@H](/N=C(\O)CCl)[C@@H](OC(C)=O)[C@H]1OC(C)=O (cis-trans isomerization)
CC(=O)OC[C@H]1O[C@@H](OC(C)=O)[C@H](/N=C(\O)CCl)[C@@H](OC(C)=O)[C@H]1OC(C)=O (3D coordinates assigned)
CC(=O)OC[C@H]1O[C@@H](OC(C)=O)[C@H](/N=C(\O)CCl)[C@@H](OC(C)=O)[C@H]1OC(C)=O (nonaromatic ring conformer: 34.58612736177272 kcal/mol)

$$$$
3052142
 OpenBabel03032110343D

 50 50  0  0  0  0  0  0  0  0999 V2000
    0.3921    2.4584   -3.6723 H   0  0  0  0  0  0  0  0  0  0  0  0
    0.9095    2.8979   -2.9201 O   0  0  0  0  0  0  0  0  0  0  0  0
    1.0899    2.2544   -1.6977 C   0  0  0  0  0  0  0  0  0  0  0  0
    0.5574    1.0762   -1.5289 N   0  0  0  0  0  0  0  0  0  0  0  0
    0.6261    0.2369   -0.3284 C   0  0  1  0  0  0  0  0  0  0  0  0
    0.8305    0.8511    0.5761 H   0  0  0  0  0  0  0  0  0  0  0  0
   -0.7314   -0.4698   -0.1093 C   0  0  2  0  0  0  0  0  0  0  0  0
   -1.0187   -1.0545   -1.0155 H   0  0  0  0  0  0  0  0  0  0  0  0
   -1.7423    0.5045    0.1552 O   0  0  0  0  0  0  0  0  0  0  0  0
   -2.4591    1.1809   -0.8393 C   0  0  0  0  0  0  0  0  0  0  0  0
   -2.3257    0.8767   -2.0558 O   0  0  0  0  0  0  0  0  0  0  0  0
   -3.4330    2.2395   -0.4493 C   0  0  0  0  0  0  0  0  0  0  0  0
   -3.3516    3.1028   -1.1428 H   0  0  0  0  0  0  0  0  0  0  0  0
   -3.2228    2.5881    0.5835 H   0  0  0  0  0  0  0  0  0  0  0  0
   -4.4632    1.8292   -0.4927 H   0  0  0  0  0  0  0  0  0  0  0  0
   -0.6593   -1.3318    1.0135 O   0  0  0  0  0  0  0  0  0  0  0  0
    0.2590   -2.3864    0.7800 C   0  0  2  0  0  0  0  0  0  0  0  0
    0.0026   -2.9306   -0.1600 H   0  0  0  0  0  0  0  0  0  0  0  0
    0.1622   -3.4093    1.9221 C   0  0  0  0  0  0  0  0  0  0  0  0
    0.3554   -2.9313    2.9077 H   0  0  0  0  0  0  0  0  0  0  0  0
    0.9349   -4.1933    1.7716 H   0  0  0  0  0  0  0  0  0  0  0  0
   -1.1145   -4.0473    1.9191 O   0  0  0  0  0  0  0  0  0  0  0  0
   -2.2540   -3.5051    2.5244 C   0  0  0  0  0  0  0  0  0  0  0  0
   -2.1913   -2.4268    3.1751 O   0  0  0  0  0  0  0  0  0  0  0  0
   -3.5661   -4.1953    2.3686 C   0  0  0  0  0  0  0  0  0  0  0  0
   -3.4056   -5.2639    2.1140 H   0  0  0  0  0  0  0  0  0  0  0  0
   -4.1444   -3.7099    1.5554 H   0  0  0  0  0  0  0  0  0  0  0  0
   -4.1429   -4.1349    3.3158 H   0  0  0  0  0  0  0  0  0  0  0  0
    1.6915   -1.8241    0.6666 C   0  0  2  0  0  0  0  0  0  0  0  0
    2.3880   -2.6670    0.4591 H   0  0  0  0  0  0  0  0  0  0  0  0
    2.0427   -1.1732    1.8923 O   0  0  0  0  0  0  0  0  0  0  0  0
    3.3514   -1.0642    2.3744 C   0  0  0  0  0  0  0  0  0  0  0  0
    4.3028   -1.6699    1.8114 O   0  0  0  0  0  0  0  0  0  0  0  0
    3.6134   -0.2679    3.6063 C   0  0  0  0  0  0  0  0  0  0  0  0
    2.7683    0.4267    3.7967 H   0  0  0  0  0  0  0  0  0  0  0  0
    4.5442    0.3254    3.4829 H   0  0  0  0  0  0  0  0  0  0  0  0
    3.7254   -0.9524    4.4729 H   0  0  0  0  0  0  0  0  0  0  0  0
    1.7323   -0.8205   -0.5025 C   0  0  2  0  0  0  0  0  0  0  0  0
    1.5406   -1.3668   -1.4552 H   0  0  0  0  0  0  0  0  0  0  0  0
    3.0050   -0.1792   -0.5794 O   0  0  0  0  0  0  0  0  0  0  0  0
    4.1408   -0.7776   -1.1345 C   0  0  0  0  0  0  0  0  0  0  0  0
    4.0831   -1.9316   -1.6394 O   0  0  0  0  0  0  0  0  0  0  0  0
    5.4244   -0.0215   -1.1663 C   0  0  0  0  0  0  0  0  0  0  0  0
    5.3925    0.8110   -0.4326 H   0  0  0  0  0  0  0  0  0  0  0  0
    5.5833    0.3953   -2.1824 H   0  0  0  0  0  0  0  0  0  0  0  0
    6.2682   -0.6956   -0.9081 H   0  0  0  0  0  0  0  0  0  0  0  0
    1.8464    2.9607   -0.6011 C   0  0  0  0  0  0  0  0  0  0  0  0
    2.6013    2.2872   -0.1491 H   0  0  0  0  0  0  0  0  0  0  0  0
    1.1335    3.2861    0.1851 H   0  0  0  0  0  0  0  0  0  0  0  0
    2.7099    4.3975   -1.2121 Cl  0  0  0  0  0  0  0  0  0  0  0  0
  1  2  1  0  0  0  0
  2  3  1  0  0  0  0
  3  4  2  0  0  0  0
  3 47  1  0  0  0  0
  4  5  1  0  0  0  0
  5  6  1  1  0  0  0
  5  7  1  0  0  0  0
  7  8  1  6  0  0  0
  7  9  1  0  0  0  0
  7 16  1  0  0  0  0
  9 10  1  0  0  0  0
 10 11  2  0  0  0  0
 10 12  1  0  0  0  0
 12 13  1  0  0  0  0
 12 14  1  0  0  0  0
 12 15  1  0  0  0  0
 16 17  1  0  0  0  0
 17 18  1  6  0  0  0
 17 19  1  0  0  0  0
 17 29  1  0  0  0  0
 19 20  1  0  0  0  0
 19 21  1  0  0  0  0
 19 22  1  0  0  0  0
 22 23  1  0  0  0  0
 23 24  2  0  0  0  0
 23 25  1  0  0  0  0
 25 26  1  0  0  0  0
 25 27  1  0  0  0  0
 25 28  1  0  0  0  0
 29 30  1  6  0  0  0
 29 31  1  0  0  0  0
 29 38  1  0  0  0  0
 31 32  1  0  0  0  0
 32 33  2  0  0  0  0
 32 34  1  0  0  0  0
 34 35  1  0  0  0  0
 34 36  1  0  0  0  0
 34 37  1  0  0  0  0
 38 39  1  6  0  0  0
 38 40  1  0  0  0  0
 38  5  1  0  0  0  0
 40 41  1  0  0  0  0
 41 42  2  0  0  0  0
 41 43  1  0  0  0  0
 43 44  1  0  0  0  0
 43 45  1  0  0  0  0
 43 46  1  0  0  0  0
 47 48  1  0  0  0  0
 47 49  1  0  0  0  0
 47 50  1  0  0  0  0
M  END
>  <UniqueID>
108

>  <SMILES>
CC(=O)OC[C@H]1O[C@@H](OC(C)=O)[C@H](/N=C(/O)CCl)[C@@H](OC(C)=O)[C@H]1OC(C)=O

>  <Energy>
35.54614706623402

>  <Genealogy>
CC(=O)OC[C@H]1O[C@@H](OC(C)=O)[C@H](N=C(O)CCl)[C@@H](OC(C)=O)[C@H]1OC(C)=O (tautomer)
CC(=O)OC[C@H]1O[C@@H](OC(C)=O)[C@H](/N=C(/O)CCl)[C@@H](OC(C)=O)[C@H]1OC(C)=O (cis-trans isomerization)
CC(=O)OC[C@H]1O[C@@H](OC(C)=O)[C@H](/N=C(/O)CCl)[C@@H](OC(C)=O)[C@H]1OC(C)=O (3D coordinates assigned)
CC(=O)OC[C@H]1O[C@@H](OC(C)=O)[C@H](/N=C(/O)CCl)[C@@H](OC(C)=O)[C@H]1OC(C)=O (nonaromatic ring conformer: 35.54614706623402 kcal/mol)

$$$$
2801971
 OpenBabel03032110343D

 43 44  0  0  0  0  0  0  0  0999 V2000
   -1.5436    2.7540   -3.7948 C   0  0  0  0  0  0  0  0  0  0  0  0
   -0.3953    2.2359   -2.9921 C   0  0  0  0  0  0  0  0  0  0  0  0
    0.7575    2.7129   -3.1744 O   0  0  0  0  0  0  0  0  0  0  0  0
   -0.6163    1.2257   -1.9984 N   0  0  0  0  0  0  0  0  0  0  0  0
    0.4780    0.6522   -1.2029 C   0  0  1  0  0  0  0  0  0  0  0  0
   -0.0697   -0.0533    0.0575 C   0  0  1  0  0  0  0  0  0  0  0  0
   -0.8694    0.8606    0.7929 O   0  0  0  0  0  0  0  0  0  0  0  0
   -0.1386    1.4822    1.8340 C   0  0  0  0  0  0  0  0  0  0  0  0
   -0.1246    0.6084    3.0605 C   0  0  0  0  0  0  0  0  0  0  0  0
    1.0668    0.0025    3.4937 C   0  0  0  0  0  0  0  0  0  0  0  0
    1.0645   -0.8303    4.6170 C   0  0  0  0  0  0  0  0  0  0  0  0
   -0.1249   -1.0656    5.3124 C   0  0  0  0  0  0  0  0  0  0  0  0
   -1.3145   -0.4698    4.8845 C   0  0  0  0  0  0  0  0  0  0  0  0
   -1.3167    0.3629    3.7610 C   0  0  0  0  0  0  0  0  0  0  0  0
   -0.8921   -1.1518   -0.3015 O   0  0  0  0  0  0  0  0  0  0  0  0
   -0.1843   -2.1682   -1.0008 C   0  0  2  0  0  0  0  0  0  0  0  0
    0.7529   -2.9746   -0.0770 C   0  0  0  0  0  0  0  0  0  0  0  0
    1.1050   -4.1832   -0.6931 O   0  0  0  0  0  0  0  0  0  0  0  0
    0.4947   -1.6425   -2.2927 C   0  0  1  0  0  0  0  0  0  0  0  0
   -0.5001   -1.4054   -3.2573 O   0  0  0  0  0  0  0  0  0  0  0  0
    1.2960   -0.3437   -2.0443 C   0  0  2  0  0  0  0  0  0  0  0  0
    2.5035   -0.6277   -1.3847 O   0  0  0  0  0  0  0  0  0  0  0  0
   -2.1263    1.9032   -4.2056 H   0  0  0  0  0  0  0  0  0  0  0  0
   -2.2012    3.3680   -3.1451 H   0  0  0  0  0  0  0  0  0  0  0  0
   -1.1801    3.3788   -4.6382 H   0  0  0  0  0  0  0  0  0  0  0  0
   -1.5992    0.9122   -1.8279 H   0  0  0  0  0  0  0  0  0  0  0  0
    1.1483    1.4770   -0.8736 H   0  0  0  0  0  0  0  0  0  0  0  0
    0.7870   -0.4217    0.6686 H   0  0  0  0  0  0  0  0  0  0  0  0
   -0.6483    2.4348    2.0905 H   0  0  0  0  0  0  0  0  0  0  0  0
    0.8915    1.7682    1.5180 H   0  0  0  0  0  0  0  0  0  0  0  0
    1.9946    0.1703    2.9609 H   0  0  0  0  0  0  0  0  0  0  0  0
    1.9845   -1.2951    4.9471 H   0  0  0  0  0  0  0  0  0  0  0  0
   -0.1250   -1.7111    6.1812 H   0  0  0  0  0  0  0  0  0  0  0  0
   -2.2356   -0.6553    5.4217 H   0  0  0  0  0  0  0  0  0  0  0  0
   -2.2457    0.8139    3.4347 H   0  0  0  0  0  0  0  0  0  0  0  0
   -0.9569   -2.8975   -1.3324 H   0  0  0  0  0  0  0  0  0  0  0  0
    0.2179   -3.1912    0.8748 H   0  0  0  0  0  0  0  0  0  0  0  0
    1.6750   -2.4071    0.1652 H   0  0  0  0  0  0  0  0  0  0  0  0
    1.6865   -4.6634   -0.0478 H   0  0  0  0  0  0  0  0  0  0  0  0
    1.1839   -2.4292   -2.6804 H   0  0  0  0  0  0  0  0  0  0  0  0
   -0.0450   -1.3593   -4.1388 H   0  0  0  0  0  0  0  0  0  0  0  0
    1.5355    0.1300   -3.0248 H   0  0  0  0  0  0  0  0  0  0  0  0
    3.1052   -1.0502   -2.0520 H   0  0  0  0  0  0  0  0  0  0  0  0
  1  2  1  0  0  0  0
  1 23  1  0  0  0  0
  1 24  1  0  0  0  0
  1 25  1  0  0  0  0
  2  3  2  0  0  0  0
  2  4  1  0  0  0  0
  4  5  1  0  0  0  0
  4 26  1  0  0  0  0
  5  6  1  0  0  0  0
  5 27  1  1  0  0  0
  6  7  1  0  0  0  0
  6 15  1  0  0  0  0
  6 28  1  1  0  0  0
  7  8  1  0  0  0  0
  8  9  1  0  0  0  0
  8 29  1  0  0  0  0
  8 30  1  0  0  0  0
  9 10  2  0  0  0  0
 10 11  1  0  0  0  0
 10 31  1  0  0  0  0
 11 12  2  0  0  0  0
 11 32  1  0  0  0  0
 12 13  1  0  0  0  0
 12 33  1  0  0  0  0
 13 14  2  0  0  0  0
 13 34  1  0  0  0  0
 14  9  1  0  0  0  0
 14 35  1  0  0  0  0
 15 16  1  0  0  0  0
 16 17  1  0  0  0  0
 16 19  1  0  0  0  0
 16 36  1  6  0  0  0
 17 18  1  0  0  0  0
 17 37  1  0  0  0  0
 17 38  1  0  0  0  0
 18 39  1  0  0  0  0
 19 20  1  0  0  0  0
 19 21  1  0  0  0  0
 19 40  1  6  0  0  0
 20 41  1  0  0  0  0
 21 22  1  0  0  0  0
 21  5  1  0  0  0  0
 21 42  1  6  0  0  0
 22 43  1  0  0  0  0
M  END
>  <UniqueID>
109

>  <SMILES>
CC(=O)N[C@H]1[C@@H](OCc2ccccc2)O[C@H](CO)[C@@H](O)[C@@H]1O

>  <Energy>
46.58883820275616

>  <Genealogy>
CC(=O)N[C@H]1[C@@H](OCc2ccccc2)O[C@H](CO)[C@@H](O)[C@@H]1O (3D coordinates assigned)
CC(=O)N[C@H]1[C@@H](OCc2ccccc2)O[C@H](CO)[C@@H](O)[C@@H]1O (nonaromatic ring conformer: 46.58883820275616 kcal/mol)

$$$$
2801971
 OpenBabel03032110343D

 43 44  0  0  0  0  0  0  0  0999 V2000
   -1.2135    3.4300   -0.5798 C   0  0  0  0  0  0  0  0  0  0  0  0
   -0.1379    2.4234   -0.8249 C   0  0  0  0  0  0  0  0  0  0  0  0
    1.0648    2.7980   -0.8772 O   0  0  0  0  0  0  0  0  0  0  0  0
   -0.4827    1.0436   -1.0103 N   0  0  0  0  0  0  0  0  0  0  0  0
    0.5159   -0.0162   -1.1933 C   0  0  1  0  0  0  0  0  0  0  0  0
    0.2751   -1.1734   -0.1827 C   0  0  1  0  0  0  0  0  0  0  0  0
   -0.2765   -0.6732    1.0242 O   0  0  0  0  0  0  0  0  0  0  0  0
    0.7388   -0.2510    1.9117 C   0  0  0  0  0  0  0  0  0  0  0  0
    0.1043    0.4988    3.0465 C   0  0  0  0  0  0  0  0  0  0  0  0
   -0.0626    1.8918    2.9703 C   0  0  0  0  0  0  0  0  0  0  0  0
   -0.6966    2.5828    4.0074 C   0  0  0  0  0  0  0  0  0  0  0  0
   -1.1771    1.8880    5.1209 C   0  0  0  0  0  0  0  0  0  0  0  0
   -1.0285    0.5003    5.1967 C   0  0  0  0  0  0  0  0  0  0  0  0
   -0.3960   -0.1947    4.1609 C   0  0  0  0  0  0  0  0  0  0  0  0
   -0.6431   -2.1033   -0.7283 O   0  0  0  0  0  0  0  0  0  0  0  0
   -0.0961   -2.8319   -1.8257 C   0  0  2  0  0  0  0  0  0  0  0  0
    0.5515   -4.1364   -1.3273 C   0  0  0  0  0  0  0  0  0  0  0  0
    0.9234   -4.9531   -2.4052 O   0  0  0  0  0  0  0  0  0  0  0  0
    0.8670   -2.0003   -2.7233 C   0  0  1  0  0  0  0  0  0  0  0  0
    0.7904   -2.4637   -4.0481 O   0  0  0  0  0  0  0  0  0  0  0  0
    0.4692   -0.5191   -2.6570 C   0  0  2  0  0  0  0  0  0  0  0  0
    1.3388    0.2409   -3.4559 O   0  0  0  0  0  0  0  0  0  0  0  0
   -1.8423    3.1011    0.2741 H   0  0  0  0  0  0  0  0  0  0  0  0
   -1.8468    3.5234   -1.4864 H   0  0  0  0  0  0  0  0  0  0  0  0
   -0.7744    4.4217   -0.3397 H   0  0  0  0  0  0  0  0  0  0  0  0
   -1.4951    0.7847   -1.0499 H   0  0  0  0  0  0  0  0  0  0  0  0
    1.5358    0.3800   -0.9909 H   0  0  0  0  0  0  0  0  0  0  0  0
    1.2444   -1.6969    0.0150 H   0  0  0  0  0  0  0  0  0  0  0  0
    1.4780    0.4126    1.4074 H   0  0  0  0  0  0  0  0  0  0  0  0
    1.2856   -1.1341    2.3127 H   0  0  0  0  0  0  0  0  0  0  0  0
    0.2979    2.4421    2.1106 H   0  0  0  0  0  0  0  0  0  0  0  0
   -0.8185    3.6565    3.9461 H   0  0  0  0  0  0  0  0  0  0  0  0
   -1.6687    2.4242    5.9223 H   0  0  0  0  0  0  0  0  0  0  0  0
   -1.4079   -0.0376    6.0559 H   0  0  0  0  0  0  0  0  0  0  0  0
   -0.2979   -1.2713    4.2263 H   0  0  0  0  0  0  0  0  0  0  0  0
   -0.9655   -3.1233   -2.4561 H   0  0  0  0  0  0  0  0  0  0  0  0
   -0.1599   -4.6799   -0.6646 H   0  0  0  0  0  0  0  0  0  0  0  0
    1.4571   -3.9108   -0.7266 H   0  0  0  0  0  0  0  0  0  0  0  0
    0.0880   -5.3591   -2.7559 H   0  0  0  0  0  0  0  0  0  0  0  0
    1.9129   -2.1055   -2.3451 H   0  0  0  0  0  0  0  0  0  0  0  0
    1.6298   -2.1879   -4.5009 H   0  0  0  0  0  0  0  0  0  0  0  0
   -0.5705   -0.4341   -3.0557 H   0  0  0  0  0  0  0  0  0  0  0  0
    0.9058    1.1247   -3.5870 H   0  0  0  0  0  0  0  0  0  0  0  0
  1  2  1  0  0  0  0
  1 23  1  0  0  0  0
  1 24  1  0  0  0  0
  1 25  1  0  0  0  0
  2  3  2  0  0  0  0
  2  4  1  0  0  0  0
  4  5  1  0  0  0  0
  4 26  1  0  0  0  0
  5  6  1  0  0  0  0
  5 27  1  1  0  0  0
  6  7  1  0  0  0  0
  6 15  1  0  0  0  0
  6 28  1  1  0  0  0
  7  8  1  0  0  0  0
  8  9  1  0  0  0  0
  8 29  1  0  0  0  0
  8 30  1  0  0  0  0
  9 10  2  0  0  0  0
 10 11  1  0  0  0  0
 10 31  1  0  0  0  0
 11 12  2  0  0  0  0
 11 32  1  0  0  0  0
 12 13  1  0  0  0  0
 12 33  1  0  0  0  0
 13 14  2  0  0  0  0
 13 34  1  0  0  0  0
 14  9  1  0  0  0  0
 14 35  1  0  0  0  0
 15 16  1  0  0  0  0
 16 17  1  0  0  0  0
 16 19  1  0  0  0  0
 16 36  1  6  0  0  0
 17 18  1  0  0  0  0
 17 37  1  0  0  0  0
 17 38  1  0  0  0  0
 18 39  1  0  0  0  0
 19 20  1  0  0  0  0
 19 21  1  0  0  0  0
 19 40  1  1  0  0  0
 20 41  1  0  0  0  0
 21 22  1  0  0  0  0
 21  5  1  0  0  0  0
 21 42  1  6  0  0  0
 22 43  1  0  0  0  0
M  END
>  <UniqueID>
110

>  <SMILES>
CC(=O)N[C@H]1[C@@H](OCc2ccccc2)O[C@H](CO)[C@@H](O)[C@@H]1O

>  <Energy>
48.642759862690674

>  <Genealogy>
CC(=O)N[C@H]1[C@@H](OCc2ccccc2)O[C@H](CO)[C@@H](O)[C@@H]1O (3D coordinates assigned)
CC(=O)N[C@H]1[C@@H](OCc2ccccc2)O[C@H](CO)[C@@H](O)[C@@H]1O (nonaromatic ring conformer: 48.642759862690674 kcal/mol)

$$$$
2733787
 OpenBabel03032110343D

 48 50  0  0  0  0  0  0  0  0999 V2000
   -4.5821   -3.0471   -2.3620 H   0  0  0  0  0  0  0  0  0  0  0  0
   -4.0001   -2.3310   -1.9441 O   0  0  0  0  0  0  0  0  0  0  0  0
   -2.9133   -1.7918   -2.6317 C   0  0  0  0  0  0  0  0  0  0  0  0
   -2.1834   -0.8602   -2.0947 N   0  0  0  0  0  0  0  0  0  0  0  0
   -2.4086   -0.2865   -0.7656 C   0  0  1  0  0  0  0  0  0  0  0  0
   -2.7668   -1.0742   -0.0633 H   0  0  0  0  0  0  0  0  0  0  0  0
   -1.0762    0.2616   -0.2239 C   0  0  2  0  0  0  0  0  0  0  0  0
   -0.6645    1.0090   -0.9432 H   0  0  0  0  0  0  0  0  0  0  0  0
   -0.1468   -0.8161   -0.1160 O   0  0  0  0  0  0  0  0  0  0  0  0
    1.2046   -0.6787    0.2374 C   0  0  0  0  0  0  0  0  0  0  0  0
    1.7956    0.5713    0.4997 C   0  0  0  0  0  0  0  0  0  0  0  0
    1.2215    1.4852    0.4362 H   0  0  0  0  0  0  0  0  0  0  0  0
    3.1461    0.6577    0.8491 C   0  0  0  0  0  0  0  0  0  0  0  0
    3.5622    1.6374    1.0433 H   0  0  0  0  0  0  0  0  0  0  0  0
    3.9342   -0.5056    0.9420 C   0  0  0  0  0  0  0  0  0  0  0  0
    5.3036   -0.4767    1.2909 C   0  0  0  0  0  0  0  0  0  0  0  0
    6.0249    0.8115    1.5917 C   0  0  0  0  0  0  0  0  0  0  0  0
    7.0919    0.6353    1.8458 H   0  0  0  0  0  0  0  0  0  0  0  0
    5.5458    1.3176    2.4560 H   0  0  0  0  0  0  0  0  0  0  0  0
    5.9894    1.4782    0.7045 H   0  0  0  0  0  0  0  0  0  0  0  0
    6.0056   -1.6881    1.3571 C   0  0  0  0  0  0  0  0  0  0  0  0
    7.0566   -1.7066    1.6211 H   0  0  0  0  0  0  0  0  0  0  0  0
    5.3401   -2.8840    1.0790 C   0  0  0  0  0  0  0  0  0  0  0  0
    5.9624   -3.9768    1.1359 O   0  0  0  0  0  0  0  0  0  0  0  0
    4.0528   -2.8783    0.7541 O   0  0  0  0  0  0  0  0  0  0  0  0
    3.3371   -1.7608    0.6758 C   0  0  0  0  0  0  0  0  0  0  0  0
    1.9847   -1.8357    0.3274 C   0  0  0  0  0  0  0  0  0  0  0  0
    1.5356   -2.8005    0.1254 H   0  0  0  0  0  0  0  0  0  0  0  0
   -1.2659    0.8340    1.0591 O   0  0  0  0  0  0  0  0  0  0  0  0
   -2.0835    1.9879    0.9706 C   0  0  2  0  0  0  0  0  0  0  0  0
   -1.6451    2.7166    0.2481 H   0  0  0  0  0  0  0  0  0  0  0  0
   -2.0995    2.6850    2.3389 C   0  0  0  0  0  0  0  0  0  0  0  0
   -1.0640    3.0008    2.5882 H   0  0  0  0  0  0  0  0  0  0  0  0
   -2.7207    3.6099    2.3016 H   0  0  0  0  0  0  0  0  0  0  0  0
   -2.5467    1.8127    3.3435 O   0  0  0  0  0  0  0  0  0  0  0  0
   -3.5267    1.9466    3.4272 H   0  0  0  0  0  0  0  0  0  0  0  0
   -3.5099    1.5975    0.5073 C   0  0  1  0  0  0  0  0  0  0  0  0
   -3.9529    0.9053    1.2569 H   0  0  0  0  0  0  0  0  0  0  0  0
   -4.3427    2.7272    0.4120 O   0  0  0  0  0  0  0  0  0  0  0  0
   -3.9344    3.3470   -0.2477 H   0  0  0  0  0  0  0  0  0  0  0  0
   -3.4430    0.8541   -0.8430 C   0  0  2  0  0  0  0  0  0  0  0  0
   -3.1185    1.5646   -1.6414 H   0  0  0  0  0  0  0  0  0  0  0  0
   -4.7059    0.3269   -1.1575 O   0  0  0  0  0  0  0  0  0  0  0  0
   -5.2469    1.0741   -1.5243 H   0  0  0  0  0  0  0  0  0  0  0  0
   -2.5950   -2.2716   -4.0109 C   0  0  0  0  0  0  0  0  0  0  0  0
   -2.7232   -3.3729   -4.0649 H   0  0  0  0  0  0  0  0  0  0  0  0
   -3.2820   -1.7886   -4.7364 H   0  0  0  0  0  0  0  0  0  0  0  0
   -1.5464   -2.0231   -4.2813 H   0  0  0  0  0  0  0  0  0  0  0  0
  1  2  1  0  0  0  0
  2  3  1  0  0  0  0
  3  4  2  0  0  0  0
  3 45  1  0  0  0  0
  4  5  1  0  0  0  0
  5  6  1  1  0  0  0
  5  7  1  0  0  0  0
  7  8  1  6  0  0  0
  7  9  1  0  0  0  0
  7 29  1  0  0  0  0
  9 10  1  0  0  0  0
 10 11  2  0  0  0  0
 11 12  1  0  0  0  0
 11 13  1  0  0  0  0
 13 14  1  0  0  0  0
 13 15  2  0  0  0  0
 15 16  1  0  0  0  0
 16 17  1  0  0  0  0
 16 21  2  0  0  0  0
 17 18  1  0  0  0  0
 17 19  1  0  0  0  0
 17 20  1  0  0  0  0
 21 22  1  0  0  0  0
 21 23  1  0  0  0  0
 23 24  2  0  0  0  0
 23 25  1  0  0  0  0
 25 26  1  0  0  0  0
 26 27  2  0  0  0  0
 26 15  1  0  0  0  0
 27 28  1  0  0  0  0
 27 10  1  0  0  0  0
 29 30  1  0  0  0  0
 30 31  1  6  0  0  0
 30 32  1  0  0  0  0
 30 37  1  0  0  0  0
 32 33  1  0  0  0  0
 32 34  1  0  0  0  0
 32 35  1  0  0  0  0
 35 36  1  0  0  0  0
 37 38  1  1  0  0  0
 37 39  1  0  0  0  0
 37 41  1  0  0  0  0
 39 40  1  0  0  0  0
 41 42  1  6  0  0  0
 41 43  1  0  0  0  0
 41  5  1  0  0  0  0
 43 44  1  0  0  0  0
 45 46  1  0  0  0  0
 45 47  1  0  0  0  0
 45 48  1  0  0  0  0
M  END
>  <UniqueID>
111

>  <SMILES>
C/C(O)=N\[C@H]1[C@H](Oc2ccc3c(C)cc(=O)oc3c2)O[C@H](CO)[C@@H](O)[C@@H]1O

>  <Energy>
51.89889767734323

>  <Genealogy>
CC(O)=N[C@H]1[C@H](Oc2ccc3c(C)cc(=O)oc3c2)O[C@H](CO)[C@@H](O)[C@@H]1O (tautomer)
C/C(O)=N\[C@H]1[C@H](Oc2ccc3c(C)cc(=O)oc3c2)O[C@H](CO)[C@@H](O)[C@@H]1O (cis-trans isomerization)
C/C(O)=N\[C@H]1[C@H](Oc2ccc3c(C)cc(=O)oc3c2)O[C@H](CO)[C@@H](O)[C@@H]1O (3D coordinates assigned)
C/C(O)=N\[C@H]1[C@H](Oc2ccc3c(C)cc(=O)oc3c2)O[C@H](CO)[C@@H](O)[C@@H]1O (nonaromatic ring conformer: 51.89889767734323 kcal/mol)

$$$$
2733787
 OpenBabel03032110343D

 48 50  0  0  0  0  0  0  0  0999 V2000
   -2.5701   -1.1037   -1.9858 H   0  0  0  0  0  0  0  0  0  0  0  0
   -2.9071   -1.0831   -1.0302 O   0  0  0  0  0  0  0  0  0  0  0  0
   -2.5579   -0.0484   -0.1671 C   0  0  0  0  0  0  0  0  0  0  0  0
   -1.7841    0.9049   -0.6040 N   0  0  0  0  0  0  0  0  0  0  0  0
   -1.3029    2.0692    0.1462 C   0  0  1  0  0  0  0  0  0  0  0  0
   -1.3932    1.9071    1.2426 H   0  0  0  0  0  0  0  0  0  0  0  0
    0.1931    2.3070   -0.1626 C   0  0  2  0  0  0  0  0  0  0  0  0
    0.3601    2.4473   -1.2538 H   0  0  0  0  0  0  0  0  0  0  0  0
    0.9652    1.1950    0.3007 O   0  0  0  0  0  0  0  0  0  0  0  0
    1.1366   -0.0397   -0.3499 C   0  0  0  0  0  0  0  0  0  0  0  0
    1.7064   -1.0875    0.3806 C   0  0  0  0  0  0  0  0  0  0  0  0
    1.9992   -0.9265    1.4105 H   0  0  0  0  0  0  0  0  0  0  0  0
    1.8922   -2.3464   -0.1958 C   0  0  0  0  0  0  0  0  0  0  0  0
    2.3305   -3.1272    0.4113 H   0  0  0  0  0  0  0  0  0  0  0  0
    1.5115   -2.5799   -1.5305 C   0  0  0  0  0  0  0  0  0  0  0  0
    1.6688   -3.8341   -2.1630 C   0  0  0  0  0  0  0  0  0  0  0  0
    2.2590   -5.0217   -1.4478 C   0  0  0  0  0  0  0  0  0  0  0  0
    3.2939   -4.7875   -1.1210 H   0  0  0  0  0  0  0  0  0  0  0  0
    1.6380   -5.2741   -0.5626 H   0  0  0  0  0  0  0  0  0  0  0  0
    2.3008   -5.9173   -2.1038 H   0  0  0  0  0  0  0  0  0  0  0  0
    1.2602   -3.9697   -3.4969 C   0  0  0  0  0  0  0  0  0  0  0  0
    1.3644   -4.9154   -4.0158 H   0  0  0  0  0  0  0  0  0  0  0  0
    0.7128   -2.8710   -4.1626 C   0  0  0  0  0  0  0  0  0  0  0  0
    0.3431   -2.9829   -5.3607 O   0  0  0  0  0  0  0  0  0  0  0  0
    0.5783   -1.7057   -3.5409 O   0  0  0  0  0  0  0  0  0  0  0  0
    0.9472   -1.5187   -2.2774 C   0  0  0  0  0  0  0  0  0  0  0  0
    0.7703   -0.2608   -1.6917 C   0  0  0  0  0  0  0  0  0  0  0  0
    0.3407    0.5257   -2.2940 H   0  0  0  0  0  0  0  0  0  0  0  0
    0.6463    3.4556    0.5311 O   0  0  0  0  0  0  0  0  0  0  0  0
    0.0115    4.6253    0.0423 C   0  0  2  0  0  0  0  0  0  0  0  0
    0.1598    4.7232   -1.0595 H   0  0  0  0  0  0  0  0  0  0  0  0
    0.6685    5.8480    0.7001 C   0  0  0  0  0  0  0  0  0  0  0  0
    0.1753    6.7770    0.3436 H   0  0  0  0  0  0  0  0  0  0  0  0
    0.5496    5.8050    1.8077 H   0  0  0  0  0  0  0  0  0  0  0  0
    2.0260    5.9179    0.3543 O   0  0  0  0  0  0  0  0  0  0  0  0
    2.5090    5.2983    0.9613 H   0  0  0  0  0  0  0  0  0  0  0  0
   -1.4994    4.5801    0.3592 C   0  0  1  0  0  0  0  0  0  0  0  0
   -1.6287    4.5517    1.4682 H   0  0  0  0  0  0  0  0  0  0  0  0
   -2.1289    5.7183   -0.1728 O   0  0  0  0  0  0  0  0  0  0  0  0
   -2.9812    5.8345    0.3228 H   0  0  0  0  0  0  0  0  0  0  0  0
   -2.1194    3.3133   -0.2540 C   0  0  2  0  0  0  0  0  0  0  0  0
   -2.0998    3.4203   -1.3662 H   0  0  0  0  0  0  0  0  0  0  0  0
   -3.4450    3.1872    0.1929 O   0  0  0  0  0  0  0  0  0  0  0  0
   -3.9303    2.6504   -0.4867 H   0  0  0  0  0  0  0  0  0  0  0  0
   -3.0684   -0.0924    1.2425 C   0  0  0  0  0  0  0  0  0  0  0  0
   -3.7744   -0.9406    1.3633 H   0  0  0  0  0  0  0  0  0  0  0  0
   -2.2214   -0.2389    1.9451 H   0  0  0  0  0  0  0  0  0  0  0  0
   -3.6067    0.8451    1.4906 H   0  0  0  0  0  0  0  0  0  0  0  0
  1  2  1  0  0  0  0
  2  3  1  0  0  0  0
  3  4  2  0  0  0  0
  3 45  1  0  0  0  0
  4  5  1  0  0  0  0
  5  6  1  1  0  0  0
  5  7  1  0  0  0  0
  7  8  1  6  0  0  0
  7  9  1  0  0  0  0
  7 29  1  0  0  0  0
  9 10  1  0  0  0  0
 10 11  2  0  0  0  0
 11 12  1  0  0  0  0
 11 13  1  0  0  0  0
 13 14  1  0  0  0  0
 13 15  2  0  0  0  0
 15 16  1  0  0  0  0
 16 17  1  0  0  0  0
 16 21  2  0  0  0  0
 17 18  1  0  0  0  0
 17 19  1  0  0  0  0
 17 20  1  0  0  0  0
 21 22  1  0  0  0  0
 21 23  1  0  0  0  0
 23 24  2  0  0  0  0
 23 25  1  0  0  0  0
 25 26  1  0  0  0  0
 26 27  2  0  0  0  0
 26 15  1  0  0  0  0
 27 28  1  0  0  0  0
 27 10  1  0  0  0  0
 29 30  1  0  0  0  0
 30 31  1  6  0  0  0
 30 32  1  0  0  0  0
 30 37  1  0  0  0  0
 32 33  1  0  0  0  0
 32 34  1  0  0  0  0
 32 35  1  0  0  0  0
 35 36  1  0  0  0  0
 37 38  1  1  0  0  0
 37 39  1  0  0  0  0
 37 41  1  0  0  0  0
 39 40  1  0  0  0  0
 41 42  1  6  0  0  0
 41 43  1  0  0  0  0
 41  5  1  0  0  0  0
 43 44  1  0  0  0  0
 45 46  1  0  0  0  0
 45 47  1  0  0  0  0
 45 48  1  0  0  0  0
M  END
>  <UniqueID>
112

>  <SMILES>
C/C(O)=N/[C@H]1[C@H](Oc2ccc3c(C)cc(=O)oc3c2)O[C@H](CO)[C@@H](O)[C@@H]1O

>  <Energy>
55.03636110897301

>  <Genealogy>
CC(O)=N[C@H]1[C@H](Oc2ccc3c(C)cc(=O)oc3c2)O[C@H](CO)[C@@H](O)[C@@H]1O (tautomer)
C/C(O)=N/[C@H]1[C@H](Oc2ccc3c(C)cc(=O)oc3c2)O[C@H](CO)[C@@H](O)[C@@H]1O (cis-trans isomerization)
C/C(O)=N/[C@H]1[C@H](Oc2ccc3c(C)cc(=O)oc3c2)O[C@H](CO)[C@@H](O)[C@@H]1O (3D coordinates assigned)
C/C(O)=N/[C@H]1[C@H](Oc2ccc3c(C)cc(=O)oc3c2)O[C@H](CO)[C@@H](O)[C@@H]1O (nonaromatic ring conformer: 55.03636110897301 kcal/mol)

$$$$
2733335
 OpenBabel03032110343D

 33 33  0  0  0  0  0  0  0  0999 V2000
    0.0796    1.2061    3.5923 H   0  0  0  0  0  0  0  0  0  0  0  0
    0.0670    0.9177    2.6223 O   0  0  0  0  0  0  0  0  0  0  0  0
    1.1633    0.2997    2.0157 C   0  0  0  0  0  0  0  0  0  0  0  0
    1.1063   -0.0343    0.7593 N   0  0  0  0  0  0  0  0  0  0  0  0
   -0.0548    0.1645   -0.1119 C   0  0  1  0  0  0  0  0  0  0  0  0
   -0.5648    1.1199    0.1504 H   0  0  0  0  0  0  0  0  0  0  0  0
    0.4166    0.2808   -1.5767 C   0  0  1  0  0  0  0  0  0  0  0  0
    1.0297    1.2083   -1.6607 H   0  0  0  0  0  0  0  0  0  0  0  0
    1.2016   -0.8242   -1.9608 O   0  0  0  0  0  0  0  0  0  0  0  0
    2.1189   -0.6661   -1.6155 H   0  0  0  0  0  0  0  0  0  0  0  0
   -0.6855    0.4386   -2.4557 O   0  0  0  0  0  0  0  0  0  0  0  0
   -1.5529   -0.6855   -2.4196 C   0  0  2  0  0  0  0  0  0  0  0  0
   -0.9983   -1.6118   -2.6964 H   0  0  0  0  0  0  0  0  0  0  0  0
   -2.6385   -0.4969   -3.4921 C   0  0  0  0  0  0  0  0  0  0  0  0
   -2.1609   -0.3890   -4.4930 H   0  0  0  0  0  0  0  0  0  0  0  0
   -3.2845   -1.3989   -3.5395 H   0  0  0  0  0  0  0  0  0  0  0  0
   -3.4411    0.6199   -3.2136 O   0  0  0  0  0  0  0  0  0  0  0  0
   -2.9258    1.4201   -3.4952 H   0  0  0  0  0  0  0  0  0  0  0  0
   -2.1687   -0.8657   -1.0103 C   0  0  1  0  0  0  0  0  0  0  0  0
   -2.7724    0.0378   -0.7505 H   0  0  0  0  0  0  0  0  0  0  0  0
   -2.9675   -2.0221   -0.9756 O   0  0  0  0  0  0  0  0  0  0  0  0
   -3.8998   -1.7399   -1.1671 H   0  0  0  0  0  0  0  0  0  0  0  0
   -1.0472   -1.0032    0.0323 C   0  0  2  0  0  0  0  0  0  0  0  0
   -0.4969   -1.9597   -0.1407 H   0  0  0  0  0  0  0  0  0  0  0  0
   -1.5990   -0.9973    1.3238 O   0  0  0  0  0  0  0  0  0  0  0  0
   -1.9382   -1.9139    1.4979 H   0  0  0  0  0  0  0  0  0  0  0  0
    2.3584    0.0363    2.7753 N   0  0  0  0  0  0  0  0  0  0  0  0
    2.3280    0.2179    4.1697 N   0  0  0  0  0  0  0  0  0  0  0  0
    3.3004   -0.0858    4.8917 O   0  0  0  0  0  0  0  0  0  0  0  0
    3.5363   -0.5569    2.1322 C   0  0  0  0  0  0  0  0  0  0  0  0
    4.4591   -0.3122    2.6984 H   0  0  0  0  0  0  0  0  0  0  0  0
    3.4180   -1.6595    2.0841 H   0  0  0  0  0  0  0  0  0  0  0  0
    3.6661   -0.1551    1.1048 H   0  0  0  0  0  0  0  0  0  0  0  0
  1  2  1  0  0  0  0
  2  3  1  0  0  0  0
  3  4  2  0  0  0  0
  3 27  1  0  0  0  0
  4  5  1  0  0  0  0
  5  6  1  1  0  0  0
  5  7  1  0  0  0  0
  7  8  1  6  0  0  0
  7  9  1  0  0  0  0
  7 11  1  0  0  0  0
  9 10  1  0  0  0  0
 11 12  1  0  0  0  0
 12 13  1  6  0  0  0
 12 14  1  0  0  0  0
 12 19  1  0  0  0  0
 14 15  1  0  0  0  0
 14 16  1  0  0  0  0
 14 17  1  0  0  0  0
 17 18  1  0  0  0  0
 19 20  1  1  0  0  0
 19 21  1  0  0  0  0
 19 23  1  0  0  0  0
 21 22  1  0  0  0  0
 23 24  1  6  0  0  0
 23 25  1  0  0  0  0
 23  5  1  0  0  0  0
 25 26  1  0  0  0  0
 27 28  1  0  0  0  0
 27 30  1  0  0  0  0
 28 29  2  0  0  0  0
 30 31  1  0  0  0  0
 30 32  1  0  0  0  0
 30 33  1  0  0  0  0
M  END
>  <UniqueID>
113

>  <SMILES>
CN(N=O)/C(O)=N\[C@H]1[C@@H](O)O[C@H](CO)[C@@H](O)[C@@H]1O

>  <Energy>
31.34723069915521

>  <Genealogy>
CN(N=O)C(O)=N[C@H]1C(O)O[C@H](CO)[C@@H](O)[C@@H]1O (tautomer)
CN(N=O)C(O)=N[C@H]1[C@@H](O)O[C@H](CO)[C@@H](O)[C@@H]1O (chirality)
CN(N=O)/C(O)=N\[C@H]1[C@@H](O)O[C@H](CO)[C@@H](O)[C@@H]1O (cis-trans isomerization)
CN(N=O)/C(O)=N\[C@H]1[C@@H](O)O[C@H](CO)[C@@H](O)[C@@H]1O (3D coordinates assigned)
CN(N=O)/C(O)=N\[C@H]1[C@@H](O)O[C@H](CO)[C@@H](O)[C@@H]1O (nonaromatic ring conformer: 31.34723069915521 kcal/mol)

$$$$
2733335
 OpenBabel03032110343D

 33 33  0  0  0  0  0  0  0  0999 V2000
    0.0335   -2.9084    2.2451 H   0  0  0  0  0  0  0  0  0  0  0  0
    0.4968   -2.2730    2.8789 O   0  0  0  0  0  0  0  0  0  0  0  0
    1.0477   -1.0461    2.4948 C   0  0  0  0  0  0  0  0  0  0  0  0
    0.9662   -0.6068    1.2690 N   0  0  0  0  0  0  0  0  0  0  0  0
    0.2980   -1.2405    0.1271 C   0  0  1  0  0  0  0  0  0  0  0  0
    0.4130   -2.3444    0.1764 H   0  0  0  0  0  0  0  0  0  0  0  0
   -1.1982   -0.8586    0.0910 C   0  0  1  0  0  0  0  0  0  0  0  0
   -1.6969   -1.3823   -0.7573 H   0  0  0  0  0  0  0  0  0  0  0  0
   -1.8255   -1.2611    1.2796 O   0  0  0  0  0  0  0  0  0  0  0  0
   -2.0306   -2.2286    1.1882 H   0  0  0  0  0  0  0  0  0  0  0  0
   -1.3582    0.5441   -0.0376 O   0  0  0  0  0  0  0  0  0  0  0  0
   -0.8365    1.0473   -1.2621 C   0  0  2  0  0  0  0  0  0  0  0  0
   -0.9013    2.1556   -1.1892 H   0  0  0  0  0  0  0  0  0  0  0  0
   -1.7112    0.6862   -2.4795 C   0  0  0  0  0  0  0  0  0  0  0  0
   -1.3723    1.2825   -3.3565 H   0  0  0  0  0  0  0  0  0  0  0  0
   -1.6174   -0.3860   -2.7489 H   0  0  0  0  0  0  0  0  0  0  0  0
   -3.0512    0.9887   -2.2051 O   0  0  0  0  0  0  0  0  0  0  0  0
   -3.5614    0.7492   -3.0219 H   0  0  0  0  0  0  0  0  0  0  0  0
    0.6670    0.7116   -1.4585 C   0  0  1  0  0  0  0  0  0  0  0  0
    0.9623    0.9335   -2.5116 H   0  0  0  0  0  0  0  0  0  0  0  0
    1.4423    1.5084   -0.5978 O   0  0  0  0  0  0  0  0  0  0  0  0
    1.4943    2.4123   -1.0055 H   0  0  0  0  0  0  0  0  0  0  0  0
    0.9736   -0.7745   -1.1727 C   0  0  2  0  0  0  0  0  0  0  0  0
    2.0766   -0.9012   -1.0553 H   0  0  0  0  0  0  0  0  0  0  0  0
    0.5421   -1.5815   -2.2393 O   0  0  0  0  0  0  0  0  0  0  0  0
    1.1880   -1.4492   -2.9818 H   0  0  0  0  0  0  0  0  0  0  0  0
    1.7240   -0.2579    3.4876 N   0  0  0  0  0  0  0  0  0  0  0  0
    1.6826   -0.6946    4.8239 N   0  0  0  0  0  0  0  0  0  0  0  0
    2.1664   -0.0129    5.7514 O   0  0  0  0  0  0  0  0  0  0  0  0
    2.3131    1.0415    3.1447 C   0  0  0  0  0  0  0  0  0  0  0  0
    1.5203    1.8183    3.1355 H   0  0  0  0  0  0  0  0  0  0  0  0
    3.0959    1.3266    3.8779 H   0  0  0  0  0  0  0  0  0  0  0  0
    2.7982    0.9989    2.1464 H   0  0  0  0  0  0  0  0  0  0  0  0
  1  2  1  0  0  0  0
  2  3  1  0  0  0  0
  3  4  2  0  0  0  0
  3 27  1  0  0  0  0
  4  5  1  0  0  0  0
  5  6  1  1  0  0  0
  5  7  1  0  0  0  0
  7  8  1  6  0  0  0
  7  9  1  0  0  0  0
  7 11  1  0  0  0  0
  9 10  1  0  0  0  0
 11 12  1  0  0  0  0
 12 13  1  1  0  0  0
 12 14  1  0  0  0  0
 12 19  1  0  0  0  0
 14 15  1  0  0  0  0
 14 16  1  0  0  0  0
 14 17  1  0  0  0  0
 17 18  1  0  0  0  0
 19 20  1  6  0  0  0
 19 21  1  0  0  0  0
 19 23  1  0  0  0  0
 21 22  1  0  0  0  0
 23 24  1  1  0  0  0
 23 25  1  0  0  0  0
 23  5  1  0  0  0  0
 25 26  1  0  0  0  0
 27 28  1  0  0  0  0
 27 30  1  0  0  0  0
 28 29  2  0  0  0  0
 30 31  1  0  0  0  0
 30 32  1  0  0  0  0
 30 33  1  0  0  0  0
M  END
>  <UniqueID>
114

>  <SMILES>
CN(N=O)/C(O)=N/[C@H]1[C@@H](O)O[C@H](CO)[C@@H](O)[C@@H]1O

>  <Energy>
36.18172706735983

>  <Genealogy>
CN(N=O)C(O)=N[C@H]1C(O)O[C@H](CO)[C@@H](O)[C@@H]1O (tautomer)
CN(N=O)C(O)=N[C@H]1[C@@H](O)O[C@H](CO)[C@@H](O)[C@@H]1O (chirality)
CN(N=O)/C(O)=N/[C@H]1[C@@H](O)O[C@H](CO)[C@@H](O)[C@@H]1O (cis-trans isomerization)
CN(N=O)/C(O)=N/[C@H]1[C@@H](O)O[C@H](CO)[C@@H](O)[C@@H]1O (3D coordinates assigned)
CN(N=O)/C(O)=N/[C@H]1[C@@H](O)O[C@H](CO)[C@@H](O)[C@@H]1O (nonaromatic ring conformer: 36.18172706735983 kcal/mol)

$$$$
644170
 OpenBabel03032110343D

 30 30  0  0  0  0  0  0  0  0999 V2000
    1.0098   -3.4785   -1.3946 H   0  0  0  0  0  0  0  0  0  0  0  0
    0.7562   -2.6417   -0.8834 O   0  0  0  0  0  0  0  0  0  0  0  0
   -0.5534   -2.1625   -0.8879 C   0  0  0  0  0  0  0  0  0  0  0  0
   -0.8661   -1.0774   -0.2446 N   0  0  0  0  0  0  0  0  0  0  0  0
    0.0772   -0.2568    0.5223 C   0  0  2  0  0  0  0  0  0  0  0  0
    0.8456   -0.9079    0.9975 H   0  0  0  0  0  0  0  0  0  0  0  0
   -0.6916    0.4673    1.6418 C   0  0  1  0  0  0  0  0  0  0  0  0
   -1.2645   -0.3046    2.2047 H   0  0  0  0  0  0  0  0  0  0  0  0
    0.1998    1.0874    2.5349 O   0  0  0  0  0  0  0  0  0  0  0  0
   -0.3524    1.4420    3.2797 H   0  0  0  0  0  0  0  0  0  0  0  0
   -1.6244    1.3985    1.1112 O   0  0  0  0  0  0  0  0  0  0  0  0
   -0.9818    2.4265    0.3703 C   0  0  2  0  0  0  0  0  0  0  0  0
   -0.2561    2.9769    1.0131 H   0  0  0  0  0  0  0  0  0  0  0  0
   -2.0465    3.4414   -0.0723 C   0  0  0  0  0  0  0  0  0  0  0  0
   -2.7891    2.9564   -0.7477 H   0  0  0  0  0  0  0  0  0  0  0  0
   -1.5665    4.2691   -0.6356 H   0  0  0  0  0  0  0  0  0  0  0  0
   -2.6870    3.9961    1.0455 O   0  0  0  0  0  0  0  0  0  0  0  0
   -3.3946    3.3555    1.3187 H   0  0  0  0  0  0  0  0  0  0  0  0
   -0.2402    1.8389   -0.8549 C   0  0  1  0  0  0  0  0  0  0  0  0
   -0.9803    1.3455   -1.5315 H   0  0  0  0  0  0  0  0  0  0  0  0
    0.4537    2.8547   -1.5360 O   0  0  0  0  0  0  0  0  0  0  0  0
   -0.1261    3.1571   -2.2829 H   0  0  0  0  0  0  0  0  0  0  0  0
    0.7693    0.7817   -0.3861 C   0  0  2  0  0  0  0  0  0  0  0  0
    1.5644    1.2984    0.2039 H   0  0  0  0  0  0  0  0  0  0  0  0
    1.3520    0.1622   -1.5033 O   0  0  0  0  0  0  0  0  0  0  0  0
    2.1832   -0.2776   -1.1846 H   0  0  0  0  0  0  0  0  0  0  0  0
   -1.6069   -2.8895   -1.6594 C   0  0  0  0  0  0  0  0  0  0  0  0
   -2.6215   -2.5844   -1.3246 H   0  0  0  0  0  0  0  0  0  0  0  0
   -1.4967   -3.9833   -1.5061 H   0  0  0  0  0  0  0  0  0  0  0  0
   -1.4963   -2.6597   -2.7394 H   0  0  0  0  0  0  0  0  0  0  0  0
  1  2  1  0  0  0  0
  2  3  1  0  0  0  0
  3  4  2  0  0  0  0
  3 27  1  0  0  0  0
  4  5  1  0  0  0  0
  5  6  1  1  0  0  0
  5  7  1  0  0  0  0
  7  8  1  1  0  0  0
  7  9  1  0  0  0  0
  7 11  1  0  0  0  0
  9 10  1  0  0  0  0
 11 12  1  0  0  0  0
 12 13  1  1  0  0  0
 12 14  1  0  0  0  0
 12 19  1  0  0  0  0
 14 15  1  0  0  0  0
 14 16  1  0  0  0  0
 14 17  1  0  0  0  0
 17 18  1  0  0  0  0
 19 20  1  6  0  0  0
 19 21  1  0  0  0  0
 19 23  1  0  0  0  0
 21 22  1  0  0  0  0
 23 24  1  1  0  0  0
 23 25  1  0  0  0  0
 23  5  1  0  0  0  0
 25 26  1  0  0  0  0
 27 28  1  0  0  0  0
 27 29  1  0  0  0  0
 27 30  1  0  0  0  0
M  END
>  <UniqueID>
115

>  <SMILES>
C/C(O)=N\[C@@H]1[C@@H](O)O[C@H](CO)[C@@H](O)[C@@H]1O

>  <Energy>
25.997118411757178

>  <Genealogy>
CC(O)=N[C@@H]1[C@@H](O)O[C@H](CO)[C@@H](O)[C@@H]1O (tautomer)
C/C(O)=N\[C@@H]1[C@@H](O)O[C@H](CO)[C@@H](O)[C@@H]1O (cis-trans isomerization)
C/C(O)=N\[C@@H]1[C@@H](O)O[C@H](CO)[C@@H](O)[C@@H]1O (3D coordinates assigned)
C/C(O)=N\[C@@H]1[C@@H](O)O[C@H](CO)[C@@H](O)[C@@H]1O (nonaromatic ring conformer: 25.997118411757178 kcal/mol)

$$$$
644170
 OpenBabel03032110343D

 30 30  0  0  0  0  0  0  0  0999 V2000
   -3.3019   -2.9523   -1.1164 H   0  0  0  0  0  0  0  0  0  0  0  0
   -2.7327   -2.2259   -0.6989 O   0  0  0  0  0  0  0  0  0  0  0  0
   -2.2995   -1.1304   -1.4450 C   0  0  0  0  0  0  0  0  0  0  0  0
   -1.5537   -0.2125   -0.9062 N   0  0  0  0  0  0  0  0  0  0  0  0
   -1.0900   -0.2195    0.4852 C   0  0  2  0  0  0  0  0  0  0  0  0
   -1.8690   -0.6715    1.1399 H   0  0  0  0  0  0  0  0  0  0  0  0
   -0.8635    1.2367    0.9397 C   0  0  1  0  0  0  0  0  0  0  0  0
   -1.7919    1.8128    0.7197 H   0  0  0  0  0  0  0  0  0  0  0  0
   -0.6125    1.3104    2.3225 O   0  0  0  0  0  0  0  0  0  0  0  0
   -1.4713    1.1179    2.7820 H   0  0  0  0  0  0  0  0  0  0  0  0
    0.1870    1.8463    0.2055 O   0  0  0  0  0  0  0  0  0  0  0  0
    1.4297    1.1905    0.4161 C   0  0  2  0  0  0  0  0  0  0  0  0
    1.7011    1.2031    1.4973 H   0  0  0  0  0  0  0  0  0  0  0  0
    2.5223    1.9718   -0.3295 C   0  0  0  0  0  0  0  0  0  0  0  0
    2.3070    1.9936   -1.4231 H   0  0  0  0  0  0  0  0  0  0  0  0
    3.5045    1.4727   -0.1892 H   0  0  0  0  0  0  0  0  0  0  0  0
    2.6228    3.2757    0.1775 O   0  0  0  0  0  0  0  0  0  0  0  0
    1.9102    3.8099   -0.2610 H   0  0  0  0  0  0  0  0  0  0  0  0
    1.3735   -0.2725   -0.0817 C   0  0  1  0  0  0  0  0  0  0  0  0
    1.1900   -0.2680   -1.1832 H   0  0  0  0  0  0  0  0  0  0  0  0
    2.5915   -0.9139    0.2015 O   0  0  0  0  0  0  0  0  0  0  0  0
    2.6586   -1.6905   -0.4134 H   0  0  0  0  0  0  0  0  0  0  0  0
    0.2256   -1.0145    0.6230 C   0  0  2  0  0  0  0  0  0  0  0  0
    0.4809   -1.0985    1.7068 H   0  0  0  0  0  0  0  0  0  0  0  0
    0.0909   -2.3016    0.0781 O   0  0  0  0  0  0  0  0  0  0  0  0
   -0.4279   -2.8366    0.7342 H   0  0  0  0  0  0  0  0  0  0  0  0
   -2.6759   -1.0193   -2.8871 C   0  0  0  0  0  0  0  0  0  0  0  0
   -2.0420   -1.7051   -3.4866 H   0  0  0  0  0  0  0  0  0  0  0  0
   -2.5334    0.0203   -3.2525 H   0  0  0  0  0  0  0  0  0  0  0  0
   -3.7419   -1.2987   -3.0194 H   0  0  0  0  0  0  0  0  0  0  0  0
  1  2  1  0  0  0  0
  2  3  1  0  0  0  0
  3  4  2  0  0  0  0
  3 27  1  0  0  0  0
  4  5  1  0  0  0  0
  5  6  1  1  0  0  0
  5  7  1  0  0  0  0
  7  8  1  6  0  0  0
  7  9  1  0  0  0  0
  7 11  1  0  0  0  0
  9 10  1  0  0  0  0
 11 12  1  0  0  0  0
 12 13  1  1  0  0  0
 12 14  1  0  0  0  0
 12 19  1  0  0  0  0
 14 15  1  0  0  0  0
 14 16  1  0  0  0  0
 14 17  1  0  0  0  0
 17 18  1  0  0  0  0
 19 20  1  6  0  0  0
 19 21  1  0  0  0  0
 19 23  1  0  0  0  0
 21 22  1  0  0  0  0
 23 24  1  1  0  0  0
 23 25  1  0  0  0  0
 23  5  1  0  0  0  0
 25 26  1  0  0  0  0
 27 28  1  0  0  0  0
 27 29  1  0  0  0  0
 27 30  1  0  0  0  0
M  END
>  <UniqueID>
116

>  <SMILES>
C/C(O)=N/[C@@H]1[C@@H](O)O[C@H](CO)[C@@H](O)[C@@H]1O

>  <Energy>
26.10800706545847

>  <Genealogy>
CC(O)=N[C@@H]1[C@@H](O)O[C@H](CO)[C@@H](O)[C@@H]1O (tautomer)
C/C(O)=N/[C@@H]1[C@@H](O)O[C@H](CO)[C@@H](O)[C@@H]1O (cis-trans isomerization)
C/C(O)=N/[C@@H]1[C@@H](O)O[C@H](CO)[C@@H](O)[C@@H]1O (3D coordinates assigned)
C/C(O)=N/[C@@H]1[C@@H](O)O[C@H](CO)[C@@H](O)[C@@H]1O (nonaromatic ring conformer: 26.10800706545847 kcal/mol)

$$$$
449462
 OpenBabel03032110343D

 25 25  0  0  0  0  0  0  0  0999 V2000
   -2.9963   -0.2775    0.1688 N   0  0  0  0  0  0  0  0  0  0  0  0
   -1.6089   -0.3035   -0.3031 C   0  0  1  0  0  0  0  0  0  0  0  0
   -1.1211    1.1327   -0.6035 C   0  0  2  0  0  0  0  0  0  0  0  0
   -1.8843    1.6669   -1.6513 O   0  0  0  0  0  0  0  0  0  0  0  0
    0.2432    1.1273   -0.9948 O   0  0  0  0  0  0  0  0  0  0  0  0
    1.0685    0.7005    0.0758 C   0  0  2  0  0  0  0  0  0  0  0  0
    2.5345    0.9313   -0.3119 C   0  0  0  0  0  0  0  0  0  0  0  0
    3.3769    0.5970    0.7567 O   0  0  0  0  0  0  0  0  0  0  0  0
    0.7906   -0.7846    0.3987 C   0  0  2  0  0  0  0  0  0  0  0  0
    1.1000   -1.5782   -0.7212 O   0  0  0  0  0  0  0  0  0  0  0  0
   -0.6968   -0.9412    0.7731 C   0  0  2  0  0  0  0  0  0  0  0  0
   -1.0196   -2.2920    1.0002 O   0  0  0  0  0  0  0  0  0  0  0  0
   -3.6031    0.0909   -0.5991 H   0  0  0  0  0  0  0  0  0  0  0  0
   -3.3122   -1.2620    0.3258 H   0  0  0  0  0  0  0  0  0  0  0  0
   -1.5486   -0.9016   -1.2418 H   0  0  0  0  0  0  0  0  0  0  0  0
   -1.2697    1.7707    0.3021 H   0  0  0  0  0  0  0  0  0  0  0  0
   -1.6197    2.6202   -1.7339 H   0  0  0  0  0  0  0  0  0  0  0  0
    0.8779    1.3192    0.9852 H   0  0  0  0  0  0  0  0  0  0  0  0
    2.7960    0.3245   -1.2077 H   0  0  0  0  0  0  0  0  0  0  0  0
    2.6735    2.0059   -0.5672 H   0  0  0  0  0  0  0  0  0  0  0  0
    4.3026    0.7626    0.4397 H   0  0  0  0  0  0  0  0  0  0  0  0
    1.4126   -1.0861    1.2751 H   0  0  0  0  0  0  0  0  0  0  0  0
    1.3834   -2.4661   -0.3795 H   0  0  0  0  0  0  0  0  0  0  0  0
   -0.8622   -0.3974    1.7303 H   0  0  0  0  0  0  0  0  0  0  0  0
   -1.0171   -2.7598    0.1249 H   0  0  0  0  0  0  0  0  0  0  0  0
  1  2  1  0  0  0  0
  1 13  1  0  0  0  0
  1 14  1  0  0  0  0
  2  3  1  0  0  0  0
  2 15  1  6  0  0  0
  3  4  1  0  0  0  0
  3  5  1  0  0  0  0
  3 16  1  1  0  0  0
  4 17  1  0  0  0  0
  5  6  1  0  0  0  0
  6  7  1  0  0  0  0
  6  9  1  0  0  0  0
  6 18  1  1  0  0  0
  7  8  1  0  0  0  0
  7 19  1  0  0  0  0
  7 20  1  0  0  0  0
  8 21  1  0  0  0  0
  9 10  1  0  0  0  0
  9 11  1  0  0  0  0
  9 22  1  1  0  0  0
 10 23  1  0  0  0  0
 11 12  1  0  0  0  0
 11  2  1  0  0  0  0
 11 24  1  1  0  0  0
 12 25  1  0  0  0  0
M  END
>  <UniqueID>
117

>  <SMILES>
N[C@H]1[C@H](O)O[C@H](CO)[C@H](O)[C@@H]1O

>  <Energy>
22.31365276185769

>  <Genealogy>
N[C@H]1[C@H](O)O[C@H](CO)[C@H](O)[C@@H]1O (3D coordinates assigned)
N[C@H]1[C@H](O)O[C@H](CO)[C@H](O)[C@@H]1O (nonaromatic ring conformer: 22.31365276185769 kcal/mol)

$$$$
449462
 OpenBabel03032110343D

 26 26  0  0  0  0  0  0  0  0999 V2000
   -2.7721   -0.6256    0.3848 N   0  3  0  0  0  0  0  0  0  0  0  0
   -1.3456   -0.3328    0.5865 C   0  0  1  0  0  0  0  0  0  0  0  0
   -0.4680   -1.4906    0.0472 C   0  0  2  0  0  0  0  0  0  0  0  0
   -0.7591   -2.6597    0.7643 O   0  0  0  0  0  0  0  0  0  0  0  0
    0.9107   -1.1944    0.2070 O   0  0  0  0  0  0  0  0  0  0  0  0
    1.2718   -0.0703   -0.5771 C   0  0  2  0  0  0  0  0  0  0  0  0
    2.7997    0.0774   -0.5806 C   0  0  0  0  0  0  0  0  0  0  0  0
    3.2989    0.1074    0.7287 O   0  0  0  0  0  0  0  0  0  0  0  0
    0.5694    1.1998   -0.0489 C   0  0  2  0  0  0  0  0  0  0  0  0
    0.9662    1.4532    1.2767 O   0  0  0  0  0  0  0  0  0  0  0  0
   -0.9540    0.9910   -0.1142 C   0  0  2  0  0  0  0  0  0  0  0  0
   -1.6005    2.0791    0.4980 O   0  0  0  0  0  0  0  0  0  0  0  0
   -3.0288   -1.5166    0.8679 H   0  0  0  0  0  0  0  0  0  0  0  0
   -2.9894   -0.7140   -0.6348 H   0  0  0  0  0  0  0  0  0  0  0  0
   -3.3566    0.1367    0.7971 H   0  0  0  0  0  0  0  0  0  0  0  0
   -1.1531   -0.2279    1.6792 H   0  0  0  0  0  0  0  0  0  0  0  0
   -0.7087   -1.6678   -1.0296 H   0  0  0  0  0  0  0  0  0  0  0  0
   -0.2678   -3.3953    0.3137 H   0  0  0  0  0  0  0  0  0  0  0  0
    0.9762   -0.2272   -1.6420 H   0  0  0  0  0  0  0  0  0  0  0  0
    3.0873    1.0082   -1.1196 H   0  0  0  0  0  0  0  0  0  0  0  0
    3.2417   -0.7888   -1.1222 H   0  0  0  0  0  0  0  0  0  0  0  0
    4.2823    0.2122    0.6460 H   0  0  0  0  0  0  0  0  0  0  0  0
    0.8441    2.0596   -0.7055 H   0  0  0  0  0  0  0  0  0  0  0  0
    0.8471    2.4260    1.4345 H   0  0  0  0  0  0  0  0  0  0  0  0
   -1.2405    0.9316   -1.1928 H   0  0  0  0  0  0  0  0  0  0  0  0
   -2.4512    2.2288    0.0088 H   0  0  0  0  0  0  0  0  0  0  0  0
  1  2  1  0  0  0  0
  1 13  1  0  0  0  0
  1 14  1  0  0  0  0
  1 15  1  0  0  0  0
  2  3  1  0  0  0  0
  2 16  1  1  0  0  0
  3  4  1  0  0  0  0
  3  5  1  0  0  0  0
  3 17  1  6  0  0  0
  4 18  1  0  0  0  0
  5  6  1  0  0  0  0
  6  7  1  0  0  0  0
  6  9  1  0  0  0  0
  6 19  1  6  0  0  0
  7  8  1  0  0  0  0
  7 20  1  0  0  0  0
  7 21  1  0  0  0  0
  8 22  1  0  0  0  0
  9 10  1  0  0  0  0
  9 11  1  0  0  0  0
  9 23  1  6  0  0  0
 10 24  1  0  0  0  0
 11 12  1  0  0  0  0
 11  2  1  0  0  0  0
 11 25  1  6  0  0  0
 12 26  1  0  0  0  0
M  CHG  1   1   1
M  END
>  <UniqueID>
118

>  <SMILES>
[NH3+][C@H]1[C@H](O)O[C@H](CO)[C@H](O)[C@@H]1O

>  <Energy>
23.229676877115722

>  <Genealogy>
[NH3+][C@H]1[C@H](O)O[C@H](CO)[C@H](O)[C@@H]1O (protonated)
[NH3+][C@H]1[C@H](O)O[C@H](CO)[C@H](O)[C@@H]1O (3D coordinates assigned)
[NH3+][C@H]1[C@H](O)O[C@H](CO)[C@H](O)[C@@H]1O (nonaromatic ring conformer: 23.229676877115722 kcal/mol)

$$$$
448882
 OpenBabel03032110343D

 33 33  0  0  0  0  0  0  0  0999 V2000
   -2.0511    3.6940    1.9623 H   0  0  0  0  0  0  0  0  0  0  0  0
   -1.5353    2.9026    1.5966 O   0  0  0  0  0  0  0  0  0  0  0  0
   -1.3536    1.7463    2.3548 C   0  0  0  0  0  0  0  0  0  0  0  0
   -0.6702    0.7452    1.8859 N   0  0  0  0  0  0  0  0  0  0  0  0
   -0.0717    0.6953    0.5493 C   0  0  1  0  0  0  0  0  0  0  0  0
    0.3109    1.7041    0.2704 H   0  0  0  0  0  0  0  0  0  0  0  0
    1.1336   -0.2693    0.5692 C   0  0  1  0  0  0  0  0  0  0  0  0
    1.8947    0.2114    1.2284 H   0  0  0  0  0  0  0  0  0  0  0  0
    0.7483   -1.5289    1.0998 O   0  0  0  0  0  0  0  0  0  0  0  0
    1.8913   -2.2751    1.4565 C   0  0  0  0  0  0  0  0  0  0  0  0
    2.5614   -2.4380    0.5835 H   0  0  0  0  0  0  0  0  0  0  0  0
    2.4455   -1.7844    2.2866 H   0  0  0  0  0  0  0  0  0  0  0  0
    1.5635   -3.2718    1.8161 H   0  0  0  0  0  0  0  0  0  0  0  0
    1.7062   -0.4019   -0.7268 O   0  0  0  0  0  0  0  0  0  0  0  0
    0.7780   -0.9461   -1.6532 C   0  0  2  0  0  0  0  0  0  0  0  0
    0.3946   -1.9273   -1.2885 H   0  0  0  0  0  0  0  0  0  0  0  0
    1.4973   -1.2508   -2.9779 C   0  0  0  0  0  0  0  0  0  0  0  0
    2.2415   -2.0649   -2.8186 H   0  0  0  0  0  0  0  0  0  0  0  0
    0.7628   -1.6211   -3.7247 H   0  0  0  0  0  0  0  0  0  0  0  0
    2.1310   -0.1105   -3.4946 O   0  0  0  0  0  0  0  0  0  0  0  0
    2.9865   -0.0093   -3.0014 H   0  0  0  0  0  0  0  0  0  0  0  0
   -0.4224    0.0050   -1.8525 C   0  0  2  0  0  0  0  0  0  0  0  0
   -1.1480   -0.4792   -2.5486 H   0  0  0  0  0  0  0  0  0  0  0  0
    0.0162    1.2313   -2.3837 O   0  0  0  0  0  0  0  0  0  0  0  0
   -0.7607    1.6408   -2.8466 H   0  0  0  0  0  0  0  0  0  0  0  0
   -1.1100    0.2330   -0.4928 C   0  0  2  0  0  0  0  0  0  0  0  0
   -1.5545   -0.7306   -0.1461 H   0  0  0  0  0  0  0  0  0  0  0  0
   -2.1260    1.1940   -0.6183 O   0  0  0  0  0  0  0  0  0  0  0  0
   -2.8786    0.7543   -1.0938 H   0  0  0  0  0  0  0  0  0  0  0  0
   -1.9118    1.6706    3.7392 C   0  0  0  0  0  0  0  0  0  0  0  0
   -1.2381    2.2085    4.4380 H   0  0  0  0  0  0  0  0  0  0  0  0
   -2.0073    0.6131    4.0663 H   0  0  0  0  0  0  0  0  0  0  0  0
   -2.9166    2.1415    3.7662 H   0  0  0  0  0  0  0  0  0  0  0  0
  1  2  1  0  0  0  0
  2  3  1  0  0  0  0
  3  4  2  0  0  0  0
  3 30  1  0  0  0  0
  4  5  1  0  0  0  0
  5  6  1  6  0  0  0
  5  7  1  0  0  0  0
  7  8  1  1  0  0  0
  7  9  1  0  0  0  0
  7 14  1  0  0  0  0
  9 10  1  0  0  0  0
 10 11  1  0  0  0  0
 10 12  1  0  0  0  0
 10 13  1  0  0  0  0
 14 15  1  0  0  0  0
 15 16  1  1  0  0  0
 15 17  1  0  0  0  0
 15 22  1  0  0  0  0
 17 18  1  0  0  0  0
 17 19  1  0  0  0  0
 17 20  1  0  0  0  0
 20 21  1  0  0  0  0
 22 23  1  6  0  0  0
 22 24  1  0  0  0  0
 22 26  1  0  0  0  0
 24 25  1  0  0  0  0
 26 27  1  1  0  0  0
 26 28  1  0  0  0  0
 26  5  1  0  0  0  0
 28 29  1  0  0  0  0
 30 31  1  0  0  0  0
 30 32  1  0  0  0  0
 30 33  1  0  0  0  0
M  END
>  <UniqueID>
119

>  <SMILES>
CO[C@H]1O[C@H](CO)[C@H](O)[C@H](O)[C@H]1/N=C(\C)O

>  <Energy>
30.958163973182206

>  <Genealogy>
CO[C@H]1O[C@H](CO)[C@H](O)[C@H](O)[C@H]1N=C(C)O (tautomer)
CO[C@H]1O[C@H](CO)[C@H](O)[C@H](O)[C@H]1/N=C(\C)O (cis-trans isomerization)
CO[C@H]1O[C@H](CO)[C@H](O)[C@H](O)[C@H]1/N=C(\C)O (3D coordinates assigned)
CO[C@H]1O[C@H](CO)[C@H](O)[C@H](O)[C@H]1/N=C(\C)O (nonaromatic ring conformer: 30.958163973182206 kcal/mol)

$$$$
448882
 OpenBabel03032110343D

 33 33  0  0  0  0  0  0  0  0999 V2000
   -0.2291    1.6270    4.1845 H   0  0  0  0  0  0  0  0  0  0  0  0
   -0.2091    1.5097    3.1786 O   0  0  0  0  0  0  0  0  0  0  0  0
   -1.2480    0.8667    2.5058 C   0  0  0  0  0  0  0  0  0  0  0  0
   -1.2238    0.7403    1.2125 N   0  0  0  0  0  0  0  0  0  0  0  0
   -0.1330    1.1997    0.3460 C   0  0  1  0  0  0  0  0  0  0  0  0
    0.2974    2.1436    0.7517 H   0  0  0  0  0  0  0  0  0  0  0  0
    0.9736    0.1282    0.2471 C   0  0  1  0  0  0  0  0  0  0  0  0
    1.7917    0.5460   -0.3853 H   0  0  0  0  0  0  0  0  0  0  0  0
    1.4719   -0.1347    1.5452 O   0  0  0  0  0  0  0  0  0  0  0  0
    2.6899   -0.8436    1.4665 C   0  0  0  0  0  0  0  0  0  0  0  0
    3.4841   -0.2214    0.9982 H   0  0  0  0  0  0  0  0  0  0  0  0
    2.5717   -1.8021    0.9142 H   0  0  0  0  0  0  0  0  0  0  0  0
    3.0215   -1.0899    2.4959 H   0  0  0  0  0  0  0  0  0  0  0  0
    0.4545   -1.0739   -0.3062 O   0  0  0  0  0  0  0  0  0  0  0  0
   -0.0007   -0.9088   -1.6437 C   0  0  2  0  0  0  0  0  0  0  0  0
   -0.5033   -1.8639   -1.9136 H   0  0  0  0  0  0  0  0  0  0  0  0
    1.1599   -0.7663   -2.6514 C   0  0  0  0  0  0  0  0  0  0  0  0
    0.7644   -0.8939   -3.6839 H   0  0  0  0  0  0  0  0  0  0  0  0
    1.6301    0.2369   -2.5944 H   0  0  0  0  0  0  0  0  0  0  0  0
    2.1231   -1.7531   -2.4042 O   0  0  0  0  0  0  0  0  0  0  0  0
    2.8391   -1.6156   -3.0776 H   0  0  0  0  0  0  0  0  0  0  0  0
   -1.0957    0.1874   -1.7584 C   0  0  2  0  0  0  0  0  0  0  0  0
   -2.0058   -0.1917   -1.2355 H   0  0  0  0  0  0  0  0  0  0  0  0
   -1.4229    0.4424   -3.1008 O   0  0  0  0  0  0  0  0  0  0  0  0
   -1.9161   -0.3533   -3.4317 H   0  0  0  0  0  0  0  0  0  0  0  0
   -0.6895    1.4978   -1.0544 C   0  0  2  0  0  0  0  0  0  0  0  0
   -1.5962    2.1388   -0.9378 H   0  0  0  0  0  0  0  0  0  0  0  0
    0.2745    2.1953   -1.8035 O   0  0  0  0  0  0  0  0  0  0  0  0
   -0.2101    2.6863   -2.5175 H   0  0  0  0  0  0  0  0  0  0  0  0
   -2.4238    0.3534    3.2722 C   0  0  0  0  0  0  0  0  0  0  0  0
   -2.9667   -0.4191    2.6866 H   0  0  0  0  0  0  0  0  0  0  0  0
   -2.0823   -0.1008    4.2258 H   0  0  0  0  0  0  0  0  0  0  0  0
   -3.1139    1.1934    3.4948 H   0  0  0  0  0  0  0  0  0  0  0  0
  1  2  1  0  0  0  0
  2  3  1  0  0  0  0
  3  4  2  0  0  0  0
  3 30  1  0  0  0  0
  4  5  1  0  0  0  0
  5  6  1  1  0  0  0
  5  7  1  0  0  0  0
  7  8  1  6  0  0  0
  7  9  1  0  0  0  0
  7 14  1  0  0  0  0
  9 10  1  0  0  0  0
 10 11  1  0  0  0  0
 10 12  1  0  0  0  0
 10 13  1  0  0  0  0
 14 15  1  0  0  0  0
 15 16  1  6  0  0  0
 15 17  1  0  0  0  0
 15 22  1  0  0  0  0
 17 18  1  0  0  0  0
 17 19  1  0  0  0  0
 17 20  1  0  0  0  0
 20 21  1  0  0  0  0
 22 23  1  1  0  0  0
 22 24  1  0  0  0  0
 22 26  1  0  0  0  0
 24 25  1  0  0  0  0
 26 27  1  1  0  0  0
 26 28  1  0  0  0  0
 26  5  1  0  0  0  0
 28 29  1  0  0  0  0
 30 31  1  0  0  0  0
 30 32  1  0  0  0  0
 30 33  1  0  0  0  0
M  END
>  <UniqueID>
120

>  <SMILES>
CO[C@H]1O[C@H](CO)[C@H](O)[C@H](O)[C@H]1/N=C(\C)O

>  <Energy>
33.94696043309306

>  <Genealogy>
CO[C@H]1O[C@H](CO)[C@H](O)[C@H](O)[C@H]1N=C(C)O (tautomer)
CO[C@H]1O[C@H](CO)[C@H](O)[C@H](O)[C@H]1/N=C(\C)O (cis-trans isomerization)
CO[C@H]1O[C@H](CO)[C@H](O)[C@H](O)[C@H]1/N=C(\C)O (3D coordinates assigned)
CO[C@H]1O[C@H](CO)[C@H](O)[C@H](O)[C@H]1/N=C(\C)O (nonaromatic ring conformer: 33.94696043309306 kcal/mol)

$$$$
447448
 OpenBabel03032110343D

 36 36  0  0  0  0  0  0  0  0999 V2000
   -2.8124    2.2732    2.9044 H   0  0  0  0  0  0  0  0  0  0  0  0
   -2.1813    1.7495    2.3084 O   0  0  0  0  0  0  0  0  0  0  0  0
   -1.1031    2.3507    1.6550 C   0  0  0  0  0  0  0  0  0  0  0  0
   -0.8934    3.6698    1.8163 C   0  0  0  0  0  0  0  0  0  0  0  0
   -1.5875    4.2333    2.4285 H   0  0  0  0  0  0  0  0  0  0  0  0
    0.2475    4.4376    1.2043 C   0  0  0  0  0  0  0  0  0  0  0  0
    0.3109    4.2492    0.1120 H   0  0  0  0  0  0  0  0  0  0  0  0
    0.0507    5.5236    1.3345 H   0  0  0  0  0  0  0  0  0  0  0  0
    1.5735    4.1108    1.8881 C   0  0  0  0  0  0  0  0  0  0  0  0
    2.3827    4.7233    1.4378 H   0  0  0  0  0  0  0  0  0  0  0  0
    1.5132    4.3454    2.9724 H   0  0  0  0  0  0  0  0  0  0  0  0
    1.8343    3.0393    1.7638 H   0  0  0  0  0  0  0  0  0  0  0  0
   -0.2497    1.5424    0.8241 N   0  0  0  0  0  0  0  0  0  0  0  0
    0.3853    1.9934    0.1286 H   0  0  0  0  0  0  0  0  0  0  0  0
   -0.3419    0.0795    0.7978 C   0  0  1  0  0  0  0  0  0  0  0  0
   -0.9107   -0.2896    1.6812 H   0  0  0  0  0  0  0  0  0  0  0  0
   -1.0652   -0.3819   -0.4804 C   0  0  2  0  0  0  0  0  0  0  0  0
   -0.5263    0.0094   -1.3780 H   0  0  0  0  0  0  0  0  0  0  0  0
   -2.3664    0.1392   -0.4806 O   0  0  0  0  0  0  0  0  0  0  0  0
   -2.7598   -0.0890   -1.3630 H   0  0  0  0  0  0  0  0  0  0  0  0
   -1.1397   -1.7970   -0.5147 O   0  0  0  0  0  0  0  0  0  0  0  0
    0.1558   -2.3628   -0.6306 C   0  0  2  0  0  0  0  0  0  0  0  0
    0.6798   -1.9602   -1.5300 H   0  0  0  0  0  0  0  0  0  0  0  0
    0.0074   -3.8755   -0.8306 C   0  0  0  0  0  0  0  0  0  0  0  0
    1.0118   -4.3439   -0.9332 H   0  0  0  0  0  0  0  0  0  0  0  0
   -0.5086   -4.3211    0.0500 H   0  0  0  0  0  0  0  0  0  0  0  0
   -0.7391   -4.1266   -1.9892 O   0  0  0  0  0  0  0  0  0  0  0  0
   -0.8111   -5.1138   -2.0620 H   0  0  0  0  0  0  0  0  0  0  0  0
    0.9913   -2.0570    0.6345 C   0  0  1  0  0  0  0  0  0  0  0  0
    0.4870   -2.5252    1.5144 H   0  0  0  0  0  0  0  0  0  0  0  0
    2.2874   -2.5780    0.4807 O   0  0  0  0  0  0  0  0  0  0  0  0
    2.6468   -2.7335    1.3929 H   0  0  0  0  0  0  0  0  0  0  0  0
    1.0676   -0.5331    0.8489 C   0  0  2  0  0  0  0  0  0  0  0  0
    1.6812   -0.0839    0.0302 H   0  0  0  0  0  0  0  0  0  0  0  0
    1.6471   -0.2499    2.0971 O   0  0  0  0  0  0  0  0  0  0  0  0
    2.6316   -0.2751    1.9720 H   0  0  0  0  0  0  0  0  0  0  0  0
  1  2  1  0  0  0  0
  2  3  1  0  0  0  0
  3  4  2  0  0  0  0
  3 13  1  0  0  0  0
  4  5  1  0  0  0  0
  4  6  1  0  0  0  0
  6  7  1  0  0  0  0
  6  8  1  0  0  0  0
  6  9  1  0  0  0  0
  9 10  1  0  0  0  0
  9 11  1  0  0  0  0
  9 12  1  0  0  0  0
 13 14  1  0  0  0  0
 13 15  1  0  0  0  0
 15 16  1  1  0  0  0
 15 17  1  0  0  0  0
 17 18  1  6  0  0  0
 17 19  1  0  0  0  0
 17 21  1  0  0  0  0
 19 20  1  0  0  0  0
 21 22  1  0  0  0  0
 22 23  1  6  0  0  0
 22 24  1  0  0  0  0
 22 29  1  0  0  0  0
 24 25  1  0  0  0  0
 24 26  1  0  0  0  0
 24 27  1  0  0  0  0
 27 28  1  0  0  0  0
 29 30  1  1  0  0  0
 29 31  1  0  0  0  0
 29 33  1  0  0  0  0
 31 32  1  0  0  0  0
 33 34  1  6  0  0  0
 33 35  1  0  0  0  0
 33 15  1  0  0  0  0
 35 36  1  0  0  0  0
M  END
>  <UniqueID>
121

>  <SMILES>
CC/C=C(\O)N[C@H]1[C@H](O)O[C@H](CO)[C@@H](O)[C@@H]1O

>  <Energy>
26.495796909454963

>  <Genealogy>
CCC=C(O)N[C@H]1[C@H](O)O[C@H](CO)[C@@H](O)[C@@H]1O (tautomer)
CC/C=C(\O)N[C@H]1[C@H](O)O[C@H](CO)[C@@H](O)[C@@H]1O (cis-trans isomerization)
CC/C=C(\O)N[C@H]1[C@H](O)O[C@H](CO)[C@@H](O)[C@@H]1O (3D coordinates assigned)
CC/C=C(\O)N[C@H]1[C@H](O)O[C@H](CO)[C@@H](O)[C@@H]1O (nonaromatic ring conformer: 26.495796909454963 kcal/mol)

$$$$
447448
 OpenBabel03032110343D

 36 36  0  0  0  0  0  0  0  0999 V2000
   -0.5257    1.4934   -4.6304 H   0  0  0  0  0  0  0  0  0  0  0  0
   -0.6359    1.4286   -3.6248 O   0  0  0  0  0  0  0  0  0  0  0  0
   -0.7291    0.2020   -2.9672 C   0  0  0  0  0  0  0  0  0  0  0  0
   -0.6979   -0.9388   -3.6736 C   0  0  0  0  0  0  0  0  0  0  0  0
   -0.5822   -0.8748   -4.7498 H   0  0  0  0  0  0  0  0  0  0  0  0
   -0.9053   -2.2947   -3.0538 C   0  0  0  0  0  0  0  0  0  0  0  0
   -0.0215   -2.5656   -2.4415 H   0  0  0  0  0  0  0  0  0  0  0  0
   -1.8066   -2.2754   -2.4035 H   0  0  0  0  0  0  0  0  0  0  0  0
   -1.0985   -3.3677   -4.1208 C   0  0  0  0  0  0  0  0  0  0  0  0
   -1.2559   -4.3528   -3.6331 H   0  0  0  0  0  0  0  0  0  0  0  0
   -1.9873   -3.1342   -4.7454 H   0  0  0  0  0  0  0  0  0  0  0  0
   -0.1991   -3.4328   -4.7701 H   0  0  0  0  0  0  0  0  0  0  0  0
   -0.8991    0.2028   -1.5442 N   0  0  0  0  0  0  0  0  0  0  0  0
   -1.6240    0.8546   -1.1671 H   0  0  0  0  0  0  0  0  0  0  0  0
    0.1953   -0.1698   -0.6417 C   0  0  1  0  0  0  0  0  0  0  0  0
    0.8670   -0.9056   -1.1354 H   0  0  0  0  0  0  0  0  0  0  0  0
    1.0330    1.0719   -0.2775 C   0  0  2  0  0  0  0  0  0  0  0  0
    0.3706    1.8523    0.1714 H   0  0  0  0  0  0  0  0  0  0  0  0
    1.6078    1.5946   -1.4442 O   0  0  0  0  0  0  0  0  0  0  0  0
    2.0410    2.4494   -1.1851 H   0  0  0  0  0  0  0  0  0  0  0  0
    2.0712    0.7153    0.6197 O   0  0  0  0  0  0  0  0  0  0  0  0
    1.5394    0.3009    1.8673 C   0  0  2  0  0  0  0  0  0  0  0  0
    0.8796    1.0961    2.2888 H   0  0  0  0  0  0  0  0  0  0  0  0
    2.7150    0.1136    2.8413 C   0  0  0  0  0  0  0  0  0  0  0  0
    3.3403   -0.7462    2.5183 H   0  0  0  0  0  0  0  0  0  0  0  0
    3.3640    1.0191    2.8237 H   0  0  0  0  0  0  0  0  0  0  0  0
    2.2627   -0.1194    4.1483 O   0  0  0  0  0  0  0  0  0  0  0  0
    1.9450    0.7532    4.4994 H   0  0  0  0  0  0  0  0  0  0  0  0
    0.7347   -1.0100    1.6931 C   0  0  1  0  0  0  0  0  0  0  0  0
    1.4325   -1.8054    1.3368 H   0  0  0  0  0  0  0  0  0  0  0  0
    0.1581   -1.3848    2.9180 O   0  0  0  0  0  0  0  0  0  0  0  0
   -0.0451   -2.3545    2.8556 H   0  0  0  0  0  0  0  0  0  0  0  0
   -0.3778   -0.7963    0.6454 C   0  0  2  0  0  0  0  0  0  0  0  0
   -1.1244   -0.0921    1.0771 H   0  0  0  0  0  0  0  0  0  0  0  0
   -1.0435   -2.0022    0.3628 O   0  0  0  0  0  0  0  0  0  0  0  0
   -0.3685   -2.6471    0.0253 H   0  0  0  0  0  0  0  0  0  0  0  0
  1  2  1  0  0  0  0
  2  3  1  0  0  0  0
  3  4  2  0  0  0  0
  3 13  1  0  0  0  0
  4  5  1  0  0  0  0
  4  6  1  0  0  0  0
  6  7  1  0  0  0  0
  6  8  1  0  0  0  0
  6  9  1  0  0  0  0
  9 10  1  0  0  0  0
  9 11  1  0  0  0  0
  9 12  1  0  0  0  0
 13 14  1  0  0  0  0
 13 15  1  0  0  0  0
 15 16  1  6  0  0  0
 15 17  1  0  0  0  0
 17 18  1  1  0  0  0
 17 19  1  0  0  0  0
 17 21  1  0  0  0  0
 19 20  1  0  0  0  0
 21 22  1  0  0  0  0
 22 23  1  1  0  0  0
 22 24  1  0  0  0  0
 22 29  1  0  0  0  0
 24 25  1  0  0  0  0
 24 26  1  0  0  0  0
 24 27  1  0  0  0  0
 27 28  1  0  0  0  0
 29 30  1  6  0  0  0
 29 31  1  0  0  0  0
 29 33  1  0  0  0  0
 31 32  1  0  0  0  0
 33 34  1  1  0  0  0
 33 35  1  0  0  0  0
 33 15  1  0  0  0  0
 35 36  1  0  0  0  0
M  END
>  <UniqueID>
122

>  <SMILES>
CC/C=C(/O)N[C@H]1[C@H](O)O[C@H](CO)[C@@H](O)[C@@H]1O

>  <Energy>
32.77218669136228

>  <Genealogy>
CCC=C(O)N[C@H]1[C@H](O)O[C@H](CO)[C@@H](O)[C@@H]1O (tautomer)
CC/C=C(/O)N[C@H]1[C@H](O)O[C@H](CO)[C@@H](O)[C@@H]1O (cis-trans isomerization)
CC/C=C(/O)N[C@H]1[C@H](O)O[C@H](CO)[C@@H](O)[C@@H]1O (3D coordinates assigned)
CC/C=C(/O)N[C@H]1[C@H](O)O[C@H](CO)[C@@H](O)[C@@H]1O (nonaromatic ring conformer: 32.77218669136228 kcal/mol)

$$$$
446101
 OpenBabel03032110343D

 33 33  0  0  0  0  0  0  0  0999 V2000
   -2.7148    1.6074    1.1582 H   0  0  0  0  0  0  0  0  0  0  0  0
   -3.4024    1.0111    1.5973 O   0  0  0  0  0  0  0  0  0  0  0  0
   -3.3624   -0.3856    1.5556 C   0  0  0  0  0  0  0  0  0  0  0  0
   -2.4197   -1.0429    0.9414 N   0  0  0  0  0  0  0  0  0  0  0  0
   -1.2966   -0.4805    0.1861 C   0  0  1  0  0  0  0  0  0  0  0  0
   -0.9217    0.4457    0.6738 H   0  0  0  0  0  0  0  0  0  0  0  0
   -0.1382   -1.4976    0.1890 C   0  0  2  0  0  0  0  0  0  0  0  0
   -0.4988   -2.4743   -0.2182 H   0  0  0  0  0  0  0  0  0  0  0  0
    0.2844   -1.6993    1.5105 O   0  0  0  0  0  0  0  0  0  0  0  0
    0.9512   -2.4343    1.4829 H   0  0  0  0  0  0  0  0  0  0  0  0
    0.9565   -1.0116   -0.5714 O   0  0  0  0  0  0  0  0  0  0  0  0
    0.5951   -0.8880   -1.9369 C   0  0  2  0  0  0  0  0  0  0  0  0
    0.1930   -1.8567   -2.3190 H   0  0  0  0  0  0  0  0  0  0  0  0
    1.8521   -0.6002   -2.7743 C   0  0  0  0  0  0  0  0  0  0  0  0
    1.5650   -0.4411   -3.8354 H   0  0  0  0  0  0  0  0  0  0  0  0
    2.5275   -1.4861   -2.7481 H   0  0  0  0  0  0  0  0  0  0  0  0
    2.5304    0.5378   -2.3121 O   0  0  0  0  0  0  0  0  0  0  0  0
    3.0629    0.2546   -1.5237 H   0  0  0  0  0  0  0  0  0  0  0  0
   -0.4888    0.2025   -2.1148 C   0  0  2  0  0  0  0  0  0  0  0  0
   -0.7978    0.2014   -3.1874 H   0  0  0  0  0  0  0  0  0  0  0  0
    0.0101    1.4498   -1.6619 O   0  0  0  0  0  0  0  0  0  0  0  0
   -0.1857    2.6364   -2.8593 S   0  0  0  0  0  0  0  0  0  0  0  0
    0.3825    3.9321   -2.3550 O   0  0  0  0  0  0  0  0  0  0  0  0
   -1.6439    2.8295   -3.1686 O   0  0  0  0  0  0  0  0  0  0  0  0
    0.6330    2.1920   -4.2581 O   0  5  0  0  0  0  0  0  0  0  0  0
   -1.7174   -0.1907   -1.2732 C   0  0  2  0  0  0  0  0  0  0  0  0
   -2.1502   -1.1215   -1.7158 H   0  0  0  0  0  0  0  0  0  0  0  0
   -2.6660    0.8436   -1.3206 O   0  0  0  0  0  0  0  0  0  0  0  0
   -3.5612    0.4239   -1.2313 H   0  0  0  0  0  0  0  0  0  0  0  0
   -4.4271   -1.1524    2.2651 C   0  0  0  0  0  0  0  0  0  0  0  0
   -5.2453   -0.4712    2.5802 H   0  0  0  0  0  0  0  0  0  0  0  0
   -3.9972   -1.6411    3.1643 H   0  0  0  0  0  0  0  0  0  0  0  0
   -4.8480   -1.9282    1.5912 H   0  0  0  0  0  0  0  0  0  0  0  0
  1  2  1  0  0  0  0
  2  3  1  0  0  0  0
  3  4  2  0  0  0  0
  3 30  1  0  0  0  0
  4  5  1  0  0  0  0
  5  6  1  1  0  0  0
  5  7  1  0  0  0  0
  7  8  1  6  0  0  0
  7  9  1  0  0  0  0
  7 11  1  0  0  0  0
  9 10  1  0  0  0  0
 11 12  1  0  0  0  0
 12 13  1  6  0  0  0
 12 14  1  0  0  0  0
 12 19  1  0  0  0  0
 14 15  1  0  0  0  0
 14 16  1  0  0  0  0
 14 17  1  0  0  0  0
 17 18  1  0  0  0  0
 19 20  1  6  0  0  0
 19 21  1  0  0  0  0
 19 26  1  0  0  0  0
 21 22  1  0  0  0  0
 22 23  2  0  0  0  0
 22 24  2  0  0  0  0
 22 25  1  0  0  0  0
 26 27  1  6  0  0  0
 26 28  1  0  0  0  0
 26  5  1  0  0  0  0
 28 29  1  0  0  0  0
 30 31  1  0  0  0  0
 30 32  1  0  0  0  0
 30 33  1  0  0  0  0
M  CHG  1  25  -1
M  END
>  <UniqueID>
123

>  <SMILES>
C/C(O)=N/[C@H]1[C@H](O)O[C@H](CO)[C@H](OS(=O)(=O)[O-])[C@@H]1O

>  <Energy>
32.15286585518792

>  <Genealogy>
CC(=O)N[C@H]1[C@H](O)O[C@H](CO)[C@H](OS(=O)(=O)[O-])[C@@H]1O (protonated)
CC(O)=N[C@H]1[C@H](O)O[C@H](CO)[C@H](OS(=O)(=O)[O-])[C@@H]1O (tautomer)
C/C(O)=N/[C@H]1[C@H](O)O[C@H](CO)[C@H](OS(=O)(=O)[O-])[C@@H]1O (cis-trans isomerization)
C/C(O)=N/[C@H]1[C@H](O)O[C@H](CO)[C@H](OS(=O)(=O)[O-])[C@@H]1O (3D coordinates assigned)
C/C(O)=N/[C@H]1[C@H](O)O[C@H](CO)[C@H](OS(=O)(=O)[O-])[C@@H]1O (nonaromatic ring conformer: 32.15286585518792 kcal/mol)

$$$$
446101
 OpenBabel03032110343D

 33 33  0  0  0  0  0  0  0  0999 V2000
   -3.9649    0.7578    2.8165 H   0  0  0  0  0  0  0  0  0  0  0  0
   -3.2472    0.3732    2.2140 O   0  0  0  0  0  0  0  0  0  0  0  0
   -3.5732   -0.4607    1.1445 C   0  0  0  0  0  0  0  0  0  0  0  0
   -2.6455   -0.9306    0.3651 N   0  0  0  0  0  0  0  0  0  0  0  0
   -1.2159   -0.6517    0.5219 C   0  0  1  0  0  0  0  0  0  0  0  0
   -0.9455   -0.7528    1.5985 H   0  0  0  0  0  0  0  0  0  0  0  0
   -0.4101   -1.6958   -0.2837 C   0  0  2  0  0  0  0  0  0  0  0  0
   -0.9840   -2.0003   -1.1948 H   0  0  0  0  0  0  0  0  0  0  0  0
   -0.2088   -2.8344    0.5088 O   0  0  0  0  0  0  0  0  0  0  0  0
    0.2312   -3.5073   -0.0736 H   0  0  0  0  0  0  0  0  0  0  0  0
    0.8453   -1.1544   -0.6487 O   0  0  0  0  0  0  0  0  0  0  0  0
    0.7018   -0.1921   -1.6883 C   0  0  2  0  0  0  0  0  0  0  0  0
    0.5095   -0.7303   -2.6445 H   0  0  0  0  0  0  0  0  0  0  0  0
    2.0492    0.5283   -1.8521 C   0  0  0  0  0  0  0  0  0  0  0  0
    2.0086    1.2162   -2.7255 H   0  0  0  0  0  0  0  0  0  0  0  0
    2.2712    1.1191   -0.9354 H   0  0  0  0  0  0  0  0  0  0  0  0
    3.0664   -0.4122   -2.0618 O   0  0  0  0  0  0  0  0  0  0  0  0
    3.9086    0.1062   -2.1447 H   0  0  0  0  0  0  0  0  0  0  0  0
   -0.4906    0.7989   -1.4347 C   0  0  2  0  0  0  0  0  0  0  0  0
   -1.3855    0.4067   -1.9766 H   0  0  0  0  0  0  0  0  0  0  0  0
   -0.1784    2.1256   -1.8202 O   0  0  0  0  0  0  0  0  0  0  0  0
   -0.7554    2.4258   -3.3872 S   0  0  0  0  0  0  0  0  0  0  0  0
   -0.1762    3.7218   -3.8780 O   0  0  0  0  0  0  0  0  0  0  0  0
   -2.2543    2.5352   -3.3639 O   0  0  0  0  0  0  0  0  0  0  0  0
   -0.2961    1.1945   -4.4354 O   0  5  0  0  0  0  0  0  0  0  0  0
   -0.8842    0.7926    0.0519 C   0  0  2  0  0  0  0  0  0  0  0  0
   -1.7767    1.4515    0.1702 H   0  0  0  0  0  0  0  0  0  0  0  0
    0.1731    1.3162    0.8162 O   0  0  0  0  0  0  0  0  0  0  0  0
   -0.2095    1.5779    1.6942 H   0  0  0  0  0  0  0  0  0  0  0  0
   -5.0041   -0.7942    0.8705 C   0  0  0  0  0  0  0  0  0  0  0  0
   -5.5363   -0.9815    1.8264 H   0  0  0  0  0  0  0  0  0  0  0  0
   -5.0813   -1.7040    0.2375 H   0  0  0  0  0  0  0  0  0  0  0  0
   -5.4861    0.0563    0.3453 H   0  0  0  0  0  0  0  0  0  0  0  0
  1  2  1  0  0  0  0
  2  3  1  0  0  0  0
  3  4  2  0  0  0  0
  3 30  1  0  0  0  0
  4  5  1  0  0  0  0
  5  6  1  1  0  0  0
  5  7  1  0  0  0  0
  7  8  1  6  0  0  0
  7  9  1  0  0  0  0
  7 11  1  0  0  0  0
  9 10  1  0  0  0  0
 11 12  1  0  0  0  0
 12 13  1  6  0  0  0
 12 14  1  0  0  0  0
 12 19  1  0  0  0  0
 14 15  1  0  0  0  0
 14 16  1  0  0  0  0
 14 17  1  0  0  0  0
 17 18  1  0  0  0  0
 19 20  1  6  0  0  0
 19 21  1  0  0  0  0
 19 26  1  0  0  0  0
 21 22  1  0  0  0  0
 22 23  2  0  0  0  0
 22 24  2  0  0  0  0
 22 25  1  0  0  0  0
 26 27  1  1  0  0  0
 26 28  1  0  0  0  0
 26  5  1  0  0  0  0
 28 29  1  0  0  0  0
 30 31  1  0  0  0  0
 30 32  1  0  0  0  0
 30 33  1  0  0  0  0
M  CHG  1  25  -1
M  END
>  <UniqueID>
124

>  <SMILES>
C/C(O)=N/[C@H]1[C@H](O)O[C@H](CO)[C@H](OS(=O)(=O)[O-])[C@@H]1O

>  <Energy>
37.58849554295105

>  <Genealogy>
CC(=O)N[C@H]1[C@H](O)O[C@H](CO)[C@H](OS(=O)(=O)[O-])[C@@H]1O (protonated)
CC(O)=N[C@H]1[C@H](O)O[C@H](CO)[C@H](OS(=O)(=O)[O-])[C@@H]1O (tautomer)
C/C(O)=N/[C@H]1[C@H](O)O[C@H](CO)[C@H](OS(=O)(=O)[O-])[C@@H]1O (cis-trans isomerization)
C/C(O)=N/[C@H]1[C@H](O)O[C@H](CO)[C@H](OS(=O)(=O)[O-])[C@@H]1O (3D coordinates assigned)
C/C(O)=N/[C@H]1[C@H](O)O[C@H](CO)[C@H](OS(=O)(=O)[O-])[C@@H]1O (nonaromatic ring conformer: 37.58849554295105 kcal/mol)

$$$$
445621
 OpenBabel03032110343D

 26 26  0  0  0  0  0  0  0  0999 V2000
   -3.7185   -1.5822    1.5602 N   0  3  0  0  0  0  0  0  0  0  0  0
   -2.3051   -1.2089    1.7107 C   0  0  1  0  0  0  0  0  0  0  0  0
   -1.3813   -2.4214    1.4579 C   0  0  1  0  0  0  0  0  0  0  0  0
   -1.6330   -2.9996    0.2007 O   0  0  0  0  0  0  0  0  0  0  0  0
   -0.0151   -2.0587    1.5922 O   0  0  0  0  0  0  0  0  0  0  0  0
    0.3677   -1.0829    0.6340 C   0  0  2  0  0  0  0  0  0  0  0  0
    1.8801   -0.8572    0.7743 C   0  0  0  0  0  0  0  0  0  0  0  0
    2.3708   -0.1280   -0.3170 O   0  0  0  0  0  0  0  0  0  0  0  0
   -0.4237    0.2314    0.8499 C   0  0  1  0  0  0  0  0  0  0  0  0
   -0.0839    1.1730   -0.1375 O   0  0  0  0  0  0  0  0  0  0  0  0
   -1.9333   -0.0501    0.7659 C   0  0  2  0  0  0  0  0  0  0  0  0
   -2.6520    1.0999    1.1337 O   0  0  0  0  0  0  0  0  0  0  0  0
   -3.9426   -2.3864    2.1903 H   0  0  0  0  0  0  0  0  0  0  0  0
   -4.3291   -0.7780    1.8322 H   0  0  0  0  0  0  0  0  0  0  0  0
   -3.9301   -1.8511    0.5718 H   0  0  0  0  0  0  0  0  0  0  0  0
   -2.1393   -0.8717    2.7602 H   0  0  0  0  0  0  0  0  0  0  0  0
   -1.6051   -3.1775    2.2442 H   0  0  0  0  0  0  0  0  0  0  0  0
   -1.0900   -3.8295    0.1611 H   0  0  0  0  0  0  0  0  0  0  0  0
    0.1887   -1.4630   -0.3987 H   0  0  0  0  0  0  0  0  0  0  0  0
    2.3910   -1.8458    0.8066 H   0  0  0  0  0  0  0  0  0  0  0  0
    2.0993   -0.3200    1.7247 H   0  0  0  0  0  0  0  0  0  0  0  0
    3.3412   -0.0029   -0.1508 H   0  0  0  0  0  0  0  0  0  0  0  0
   -0.1998    0.6281    1.8708 H   0  0  0  0  0  0  0  0  0  0  0  0
    0.5725    1.7991    0.2660 H   0  0  0  0  0  0  0  0  0  0  0  0
   -2.1936   -0.3430   -0.2799 H   0  0  0  0  0  0  0  0  0  0  0  0
   -2.6662    1.6977    0.3412 H   0  0  0  0  0  0  0  0  0  0  0  0
  1  2  1  0  0  0  0
  1 13  1  0  0  0  0
  1 14  1  0  0  0  0
  1 15  1  0  0  0  0
  2  3  1  0  0  0  0
  2 16  1  1  0  0  0
  3  4  1  0  0  0  0
  3  5  1  0  0  0  0
  3 17  1  1  0  0  0
  4 18  1  0  0  0  0
  5  6  1  0  0  0  0
  6  7  1  0  0  0  0
  6  9  1  0  0  0  0
  6 19  1  6  0  0  0
  7  8  1  0  0  0  0
  7 20  1  0  0  0  0
  7 21  1  0  0  0  0
  8 22  1  0  0  0  0
  9 10  1  0  0  0  0
  9 11  1  0  0  0  0
  9 23  1  1  0  0  0
 10 24  1  0  0  0  0
 11 12  1  0  0  0  0
 11  2  1  0  0  0  0
 11 25  1  6  0  0  0
 12 26  1  0  0  0  0
M  CHG  1   1   1
M  END
>  <UniqueID>
125

>  <SMILES>
[NH3+][C@H]1[C@@H](O)O[C@H](CO)[C@@H](O)[C@@H]1O

>  <Energy>
24.209519310862365

>  <Genealogy>
[NH3+][C@H]1[C@@H](O)O[C@H](CO)[C@@H](O)[C@@H]1O (protonated)
[NH3+][C@H]1[C@@H](O)O[C@H](CO)[C@@H](O)[C@@H]1O (3D coordinates assigned)
[NH3+][C@H]1[C@@H](O)O[C@H](CO)[C@@H](O)[C@@H]1O (nonaromatic ring conformer: 24.209519310862365 kcal/mol)

$$$$
445621
 OpenBabel03032110343D

 26 26  0  0  0  0  0  0  0  0999 V2000
   -3.5535   -1.7371    0.9487 N   0  3  0  0  0  0  0  0  0  0  0  0
   -2.3148   -1.2139    1.5448 C   0  0  1  0  0  0  0  0  0  0  0  0
   -1.1524   -2.2461    1.4607 C   0  0  1  0  0  0  0  0  0  0  0  0
   -1.6285   -3.5598    1.5907 O   0  0  0  0  0  0  0  0  0  0  0  0
   -0.4852   -2.1271    0.2188 O   0  0  0  0  0  0  0  0  0  0  0  0
    0.2615   -0.9156    0.1220 C   0  0  2  0  0  0  0  0  0  0  0  0
    1.7132   -1.1535    0.5745 C   0  0  0  0  0  0  0  0  0  0  0  0
    2.5092   -0.0283    0.3151 O   0  0  0  0  0  0  0  0  0  0  0  0
   -0.3906    0.2973    0.8517 C   0  0  1  0  0  0  0  0  0  0  0  0
   -0.0414    1.4852    0.1861 O   0  0  0  0  0  0  0  0  0  0  0  0
   -1.9193    0.1239    0.8628 C   0  0  2  0  0  0  0  0  0  0  0  0
   -2.5254    1.1901    1.5493 O   0  0  0  0  0  0  0  0  0  0  0  0
   -3.9208   -2.5328    1.5190 H   0  0  0  0  0  0  0  0  0  0  0  0
   -3.3803   -2.0619   -0.0308 H   0  0  0  0  0  0  0  0  0  0  0  0
   -4.2865   -0.9908    0.9380 H   0  0  0  0  0  0  0  0  0  0  0  0
   -2.5018   -1.0223    2.6268 H   0  0  0  0  0  0  0  0  0  0  0  0
   -0.4333   -2.0580    2.2951 H   0  0  0  0  0  0  0  0  0  0  0  0
   -1.8869   -3.6780    2.5424 H   0  0  0  0  0  0  0  0  0  0  0  0
    0.2964   -0.6687   -0.9624 H   0  0  0  0  0  0  0  0  0  0  0  0
    2.1294   -2.0439    0.0503 H   0  0  0  0  0  0  0  0  0  0  0  0
    1.7448   -1.3656    1.6636 H   0  0  0  0  0  0  0  0  0  0  0  0
    2.6843   -0.0229   -0.6621 H   0  0  0  0  0  0  0  0  0  0  0  0
   -0.0300    0.3332    1.9086 H   0  0  0  0  0  0  0  0  0  0  0  0
   -0.1009    2.2198    0.8512 H   0  0  0  0  0  0  0  0  0  0  0  0
   -2.2685    0.1080   -0.1987 H   0  0  0  0  0  0  0  0  0  0  0  0
   -2.6259    1.9351    0.9009 H   0  0  0  0  0  0  0  0  0  0  0  0
  1  2  1  0  0  0  0
  1 13  1  0  0  0  0
  1 14  1  0  0  0  0
  1 15  1  0  0  0  0
  2  3  1  0  0  0  0
  2 16  1  1  0  0  0
  3  4  1  0  0  0  0
  3  5  1  0  0  0  0
  3 17  1  1  0  0  0
  4 18  1  0  0  0  0
  5  6  1  0  0  0  0
  6  7  1  0  0  0  0
  6  9  1  0  0  0  0
  6 19  1  6  0  0  0
  7  8  1  0  0  0  0
  7 20  1  0  0  0  0
  7 21  1  0  0  0  0
  8 22  1  0  0  0  0
  9 10  1  0  0  0  0
  9 11  1  0  0  0  0
  9 23  1  1  0  0  0
 10 24  1  0  0  0  0
 11 12  1  0  0  0  0
 11  2  1  0  0  0  0
 11 25  1  6  0  0  0
 12 26  1  0  0  0  0
M  CHG  1   1   1
M  END
>  <UniqueID>
126

>  <SMILES>
[NH3+][C@H]1[C@@H](O)O[C@H](CO)[C@@H](O)[C@@H]1O

>  <Energy>
32.479809786932755

>  <Genealogy>
[NH3+][C@H]1[C@@H](O)O[C@H](CO)[C@@H](O)[C@@H]1O (protonated)
[NH3+][C@H]1[C@@H](O)O[C@H](CO)[C@@H](O)[C@@H]1O (3D coordinates assigned)
[NH3+][C@H]1[C@@H](O)O[C@H](CO)[C@@H](O)[C@@H]1O (nonaromatic ring conformer: 32.479809786932755 kcal/mol)

$$$$
441477
 OpenBabel03032110343D

 25 25  0  0  0  0  0  0  0  0999 V2000
   -2.9027   -0.4088    0.0522 N   0  0  0  0  0  0  0  0  0  0  0  0
   -1.4656   -0.3910    0.3418 C   0  0  1  0  0  0  0  0  0  0  0  0
   -0.7158   -1.3437   -0.6218 C   0  0  2  0  0  0  0  0  0  0  0  0
   -1.1703   -2.6616   -0.4565 O   0  0  0  0  0  0  0  0  0  0  0  0
    0.6820   -1.3048   -0.3850 O   0  0  0  0  0  0  0  0  0  0  0  0
    1.2046   -0.0222   -0.6845 C   0  0  2  0  0  0  0  0  0  0  0  0
    2.7386   -0.0833   -0.5983 C   0  0  0  0  0  0  0  0  0  0  0  0
    3.1630   -0.4155    0.6974 O   0  0  0  0  0  0  0  0  0  0  0  0
    0.6241    1.0350    0.2820 C   0  0  1  0  0  0  0  0  0  0  0  0
    1.1236    2.3051   -0.0525 O   0  0  0  0  0  0  0  0  0  0  0  0
   -0.9113    1.0407    0.1835 C   0  0  2  0  0  0  0  0  0  0  0  0
   -1.4303    1.8707    1.1926 O   0  0  0  0  0  0  0  0  0  0  0  0
   -3.3929    0.1779    0.7654 H   0  0  0  0  0  0  0  0  0  0  0  0
   -3.2622   -1.3793    0.2017 H   0  0  0  0  0  0  0  0  0  0  0  0
   -1.2951   -0.7302    1.3901 H   0  0  0  0  0  0  0  0  0  0  0  0
   -0.9365   -1.0534   -1.6752 H   0  0  0  0  0  0  0  0  0  0  0  0
   -0.8769   -2.9618    0.4436 H   0  0  0  0  0  0  0  0  0  0  0  0
    0.9561    0.2616   -1.7347 H   0  0  0  0  0  0  0  0  0  0  0  0
    3.1710    0.9020   -0.8735 H   0  0  0  0  0  0  0  0  0  0  0  0
    3.1256   -0.8253   -1.3339 H   0  0  0  0  0  0  0  0  0  0  0  0
    3.0581   -1.3983    0.7899 H   0  0  0  0  0  0  0  0  0  0  0  0
    0.9196    0.7678    1.3250 H   0  0  0  0  0  0  0  0  0  0  0  0
    1.0248    2.8756    0.7539 H   0  0  0  0  0  0  0  0  0  0  0  0
   -1.1931    1.4301   -0.8259 H   0  0  0  0  0  0  0  0  0  0  0  0
   -2.2386    2.3128    0.8229 H   0  0  0  0  0  0  0  0  0  0  0  0
  1  2  1  0  0  0  0
  1 13  1  0  0  0  0
  1 14  1  0  0  0  0
  2  3  1  0  0  0  0
  2 15  1  1  0  0  0
  3  4  1  0  0  0  0
  3  5  1  0  0  0  0
  3 16  1  6  0  0  0
  4 17  1  0  0  0  0
  5  6  1  0  0  0  0
  6  7  1  0  0  0  0
  6  9  1  0  0  0  0
  6 18  1  6  0  0  0
  7  8  1  0  0  0  0
  7 19  1  0  0  0  0
  7 20  1  0  0  0  0
  8 21  1  0  0  0  0
  9 10  1  0  0  0  0
  9 11  1  0  0  0  0
  9 22  1  1  0  0  0
 10 23  1  0  0  0  0
 11 12  1  0  0  0  0
 11  2  1  0  0  0  0
 11 24  1  6  0  0  0
 12 25  1  0  0  0  0
M  END
>  <UniqueID>
127

>  <SMILES>
N[C@H]1[C@H](O)O[C@H](CO)[C@@H](O)[C@@H]1O

>  <Energy>
21.948587500327633

>  <Genealogy>
N[C@H]1[C@H](O)O[C@H](CO)[C@@H](O)[C@@H]1O (3D coordinates assigned)
N[C@H]1[C@H](O)O[C@H](CO)[C@@H](O)[C@@H]1O (nonaromatic ring conformer: 21.948587500327633 kcal/mol)

$$$$
441477
 OpenBabel03032110343D

 25 25  0  0  0  0  0  0  0  0999 V2000
   -2.3830    0.5348   -1.0595 N   0  0  0  0  0  0  0  0  0  0  0  0
   -1.6643   -0.1463    0.0237 C   0  0  1  0  0  0  0  0  0  0  0  0
   -0.8278   -1.3301   -0.5165 C   0  0  2  0  0  0  0  0  0  0  0  0
   -0.4193   -2.1868    0.5195 O   0  0  0  0  0  0  0  0  0  0  0  0
    0.2856   -0.9049   -1.2894 O   0  0  0  0  0  0  0  0  0  0  0  0
    1.1791   -0.0352   -0.6013 C   0  0  2  0  0  0  0  0  0  0  0  0
    2.0954   -0.7867    0.3862 C   0  0  0  0  0  0  0  0  0  0  0  0
    3.2269   -0.0101    0.6716 O   0  0  0  0  0  0  0  0  0  0  0  0
    0.4869    1.2125    0.0057 C   0  0  1  0  0  0  0  0  0  0  0  0
    0.1687    2.1057   -1.0323 O   0  0  0  0  0  0  0  0  0  0  0  0
   -0.7846    0.8521    0.7979 C   0  0  2  0  0  0  0  0  0  0  0  0
   -0.4237    0.3154    2.0454 O   0  0  0  0  0  0  0  0  0  0  0  0
   -1.7483    0.6789   -1.8776 H   0  0  0  0  0  0  0  0  0  0  0  0
   -3.1559   -0.0894   -1.3872 H   0  0  0  0  0  0  0  0  0  0  0  0
   -2.4278   -0.5475    0.7285 H   0  0  0  0  0  0  0  0  0  0  0  0
   -1.4822   -1.9152   -1.2031 H   0  0  0  0  0  0  0  0  0  0  0  0
   -1.2295   -2.6638    0.8389 H   0  0  0  0  0  0  0  0  0  0  0  0
    1.8690    0.3525   -1.3840 H   0  0  0  0  0  0  0  0  0  0  0  0
    1.5674   -1.0175    1.3337 H   0  0  0  0  0  0  0  0  0  0  0  0
    2.4182   -1.7447   -0.0798 H   0  0  0  0  0  0  0  0  0  0  0  0
    3.7844   -0.5502    1.2901 H   0  0  0  0  0  0  0  0  0  0  0  0
    1.2056    1.7163    0.6950 H   0  0  0  0  0  0  0  0  0  0  0  0
    0.0261    2.9964   -0.6169 H   0  0  0  0  0  0  0  0  0  0  0  0
   -1.3666    1.7885    0.9716 H   0  0  0  0  0  0  0  0  0  0  0  0
   -1.2240    0.3752    2.6303 H   0  0  0  0  0  0  0  0  0  0  0  0
  1  2  1  0  0  0  0
  1 13  1  0  0  0  0
  1 14  1  0  0  0  0
  2  3  1  0  0  0  0
  2 15  1  1  0  0  0
  3  4  1  0  0  0  0
  3  5  1  0  0  0  0
  3 16  1  6  0  0  0
  4 17  1  0  0  0  0
  5  6  1  0  0  0  0
  6  7  1  0  0  0  0
  6  9  1  0  0  0  0
  6 18  1  6  0  0  0
  7  8  1  0  0  0  0
  7 19  1  0  0  0  0
  7 20  1  0  0  0  0
  8 21  1  0  0  0  0
  9 10  1  0  0  0  0
  9 11  1  0  0  0  0
  9 22  1  1  0  0  0
 10 23  1  0  0  0  0
 11 12  1  0  0  0  0
 11  2  1  0  0  0  0
 11 24  1  1  0  0  0
 12 25  1  0  0  0  0
M  END
>  <UniqueID>
128

>  <SMILES>
N[C@H]1[C@H](O)O[C@H](CO)[C@@H](O)[C@@H]1O

>  <Energy>
30.747475378952856

>  <Genealogy>
N[C@H]1[C@H](O)O[C@H](CO)[C@@H](O)[C@@H]1O (3D coordinates assigned)
N[C@H]1[C@H](O)O[C@H](CO)[C@@H](O)[C@@H]1O (nonaromatic ring conformer: 30.747475378952856 kcal/mol)

$$$$
441038
 OpenBabel03032110343D

 33 33  0  0  0  0  0  0  0  0999 V2000
    1.2442    2.8292   -2.7325 C   0  0  0  0  0  0  0  0  0  0  0  0
    0.5121    1.5726   -2.2683 C   0  0  1  0  0  0  0  0  0  0  0  0
   -0.0378    1.8151   -0.9844 O   0  0  0  0  0  0  0  0  0  0  0  0
   -0.2360    0.6123   -0.2540 C   0  0  1  0  0  0  0  0  0  0  0  0
    0.8724    0.4682    0.8055 C   0  0  2  0  0  0  0  0  0  0  0  0
    2.0967    0.2236    0.1595 O   0  0  0  0  0  0  0  0  0  0  0  0
    0.5343   -0.7004    1.7616 C   0  0  1  0  0  0  0  0  0  0  0  0
    1.5964   -0.8321    2.8635 C   0  0  0  0  0  0  0  0  0  0  0  0
    1.2531   -1.8589    3.7547 O   0  0  0  0  0  0  0  0  0  0  0  0
   -0.7237   -0.4808    2.3781 O   0  0  0  0  0  0  0  0  0  0  0  0
   -1.7651   -0.5091    1.4194 C   0  0  1  0  0  0  0  0  0  0  0  0
   -2.9855   -0.3968    2.1042 O   0  0  0  0  0  0  0  0  0  0  0  0
   -1.6104    0.6770    0.4360 C   0  0  2  0  0  0  0  0  0  0  0  0
   -2.6705    0.6812   -0.5764 N   0  0  0  0  0  0  0  0  0  0  0  0
   -0.5779    1.2300   -3.2446 C   0  0  0  0  0  0  0  0  0  0  0  0
   -1.6078    1.9503   -3.3289 O   0  0  0  0  0  0  0  0  0  0  0  0
   -0.4435    0.1249   -4.0753 O   0  5  0  0  0  0  0  0  0  0  0  0
    0.5493    3.6957   -2.7705 H   0  0  0  0  0  0  0  0  0  0  0  0
    1.6835    2.6702   -3.7410 H   0  0  0  0  0  0  0  0  0  0  0  0
    2.0666    3.0655   -2.0241 H   0  0  0  0  0  0  0  0  0  0  0  0
    1.2669    0.7518   -2.2523 H   0  0  0  0  0  0  0  0  0  0  0  0
   -0.2329   -0.3016   -0.8998 H   0  0  0  0  0  0  0  0  0  0  0  0
    0.9186    1.4184    1.3925 H   0  0  0  0  0  0  0  0  0  0  0  0
    2.7991    0.7090    0.6661 H   0  0  0  0  0  0  0  0  0  0  0  0
    0.5297   -1.6589    1.1902 H   0  0  0  0  0  0  0  0  0  0  0  0
    2.5981   -1.0359    2.4215 H   0  0  0  0  0  0  0  0  0  0  0  0
    1.6629    0.1197    3.4330 H   0  0  0  0  0  0  0  0  0  0  0  0
    1.4448   -2.7149    3.2895 H   0  0  0  0  0  0  0  0  0  0  0  0
   -1.7410   -1.4791    0.8613 H   0  0  0  0  0  0  0  0  0  0  0  0
   -3.6712   -0.8712    1.5650 H   0  0  0  0  0  0  0  0  0  0  0  0
   -1.6695    1.6264    1.0165 H   0  0  0  0  0  0  0  0  0  0  0  0
   -3.5821    0.9033   -0.1151 H   0  0  0  0  0  0  0  0  0  0  0  0
   -2.7522   -0.2704   -1.0037 H   0  0  0  0  0  0  0  0  0  0  0  0
  1  2  1  0  0  0  0
  1 18  1  0  0  0  0
  1 19  1  0  0  0  0
  1 20  1  0  0  0  0
  2  3  1  0  0  0  0
  2 15  1  0  0  0  0
  2 21  1  1  0  0  0
  3  4  1  0  0  0  0
  4  5  1  0  0  0  0
  4 22  1  6  0  0  0
  5  6  1  0  0  0  0
  5  7  1  0  0  0  0
  5 23  1  1  0  0  0
  6 24  1  0  0  0  0
  7  8  1  0  0  0  0
  7 10  1  0  0  0  0
  7 25  1  6  0  0  0
  8  9  1  0  0  0  0
  8 26  1  0  0  0  0
  8 27  1  0  0  0  0
  9 28  1  0  0  0  0
 10 11  1  0  0  0  0
 11 12  1  0  0  0  0
 11 13  1  0  0  0  0
 11 29  1  6  0  0  0
 12 30  1  0  0  0  0
 13 14  1  0  0  0  0
 13  4  1  0  0  0  0
 13 31  1  1  0  0  0
 14 32  1  0  0  0  0
 14 33  1  0  0  0  0
 15 16  2  0  0  0  0
 15 17  1  0  0  0  0
M  CHG  1  17  -1
M  END
>  <UniqueID>
129

>  <SMILES>
C[C@@H](O[C@H]1[C@H](O)[C@@H](CO)O[C@@H](O)[C@@H]1N)C(=O)[O-]

>  <Energy>
29.90819376511378

>  <Genealogy>
C[C@@H](O[C@H]1[C@H](O)[C@@H](CO)OC(O)[C@@H]1N)C(=O)[O-] (protonated)
C[C@@H](O[C@H]1[C@H](O)[C@@H](CO)O[C@@H](O)[C@@H]1N)C(=O)[O-] (chirality)
C[C@@H](O[C@H]1[C@H](O)[C@@H](CO)O[C@@H](O)[C@@H]1N)C(=O)[O-] (3D coordinates assigned)
C[C@@H](O[C@H]1[C@H](O)[C@@H](CO)O[C@@H](O)[C@@H]1N)C(=O)[O-] (nonaromatic ring conformer: 29.90819376511378 kcal/mol)

$$$$
441038
 OpenBabel03032110343D

 33 33  0  0  0  0  0  0  0  0999 V2000
    1.2936    2.9259   -1.4751 C   0  0  0  0  0  0  0  0  0  0  0  0
    0.5548    1.6224   -1.7647 C   0  0  1  0  0  0  0  0  0  0  0  0
   -0.2093    1.2708   -0.6234 O   0  0  0  0  0  0  0  0  0  0  0  0
   -0.4298   -0.1315   -0.5442 C   0  0  1  0  0  0  0  0  0  0  0  0
    0.6667   -0.7714    0.3445 C   0  0  2  0  0  0  0  0  0  0  0  0
    0.8538   -2.1114   -0.0348 O   0  0  0  0  0  0  0  0  0  0  0  0
    0.2935   -0.6905    1.8523 C   0  0  1  0  0  0  0  0  0  0  0  0
    1.5314   -0.4622    2.7284 C   0  0  0  0  0  0  0  0  0  0  0  0
    2.0850    0.8000    2.4721 O   0  0  0  0  0  0  0  0  0  0  0  0
   -0.6288    0.3592    2.0807 O   0  0  0  0  0  0  0  0  0  0  0  0
   -1.9043    0.0165    1.5597 C   0  0  1  0  0  0  0  0  0  0  0  0
   -2.7639    1.1122    1.7270 O   0  0  0  0  0  0  0  0  0  0  0  0
   -1.8448   -0.3548    0.0468 C   0  0  2  0  0  0  0  0  0  0  0  0
   -2.3107   -1.7312   -0.1587 N   0  0  0  0  0  0  0  0  0  0  0  0
   -0.3447    1.8042   -2.9545 C   0  0  0  0  0  0  0  0  0  0  0  0
   -1.4495    2.3971   -2.8338 O   0  0  0  0  0  0  0  0  0  0  0  0
    0.0581    1.3509   -4.2042 O   0  5  0  0  0  0  0  0  0  0  0  0
    1.9721    2.7854   -0.6067 H   0  0  0  0  0  0  0  0  0  0  0  0
    1.9039    3.2277   -2.3535 H   0  0  0  0  0  0  0  0  0  0  0  0
    0.5738    3.7381   -1.2353 H   0  0  0  0  0  0  0  0  0  0  0  0
    1.3313    0.8567   -2.0022 H   0  0  0  0  0  0  0  0  0  0  0  0
   -0.4114   -0.6077   -1.5554 H   0  0  0  0  0  0  0  0  0  0  0  0
    1.6148   -0.2163    0.1527 H   0  0  0  0  0  0  0  0  0  0  0  0
    1.7205   -2.4023    0.3523 H   0  0  0  0  0  0  0  0  0  0  0  0
   -0.1428   -1.6648    2.1800 H   0  0  0  0  0  0  0  0  0  0  0  0
    1.2322   -0.5246    3.7987 H   0  0  0  0  0  0  0  0  0  0  0  0
    2.2857   -1.2562    2.5296 H   0  0  0  0  0  0  0  0  0  0  0  0
    2.8797    0.8766    3.0615 H   0  0  0  0  0  0  0  0  0  0  0  0
   -2.3245   -0.8375    2.1448 H   0  0  0  0  0  0  0  0  0  0  0  0
   -2.8634    1.2476    2.7056 H   0  0  0  0  0  0  0  0  0  0  0  0
   -2.5422    0.3083   -0.5152 H   0  0  0  0  0  0  0  0  0  0  0  0
   -1.6577   -2.4041    0.3018 H   0  0  0  0  0  0  0  0  0  0  0  0
   -2.3161   -1.9426   -1.1831 H   0  0  0  0  0  0  0  0  0  0  0  0
  1  2  1  0  0  0  0
  1 18  1  0  0  0  0
  1 19  1  0  0  0  0
  1 20  1  0  0  0  0
  2  3  1  0  0  0  0
  2 15  1  0  0  0  0
  2 21  1  6  0  0  0
  3  4  1  0  0  0  0
  4  5  1  0  0  0  0
  4 22  1  6  0  0  0
  5  6  1  0  0  0  0
  5  7  1  0  0  0  0
  5 23  1  6  0  0  0
  6 24  1  0  0  0  0
  7  8  1  0  0  0  0
  7 10  1  0  0  0  0
  7 25  1  1  0  0  0
  8  9  1  0  0  0  0
  8 26  1  0  0  0  0
  8 27  1  0  0  0  0
  9 28  1  0  0  0  0
 10 11  1  0  0  0  0
 11 12  1  0  0  0  0
 11 13  1  0  0  0  0
 11 29  1  1  0  0  0
 12 30  1  0  0  0  0
 13 14  1  0  0  0  0
 13  4  1  0  0  0  0
 13 31  1  6  0  0  0
 14 32  1  0  0  0  0
 14 33  1  0  0  0  0
 15 16  2  0  0  0  0
 15 17  1  0  0  0  0
M  CHG  1  17  -1
M  END
>  <UniqueID>
130

>  <SMILES>
C[C@@H](O[C@H]1[C@H](O)[C@@H](CO)O[C@@H](O)[C@@H]1N)C(=O)[O-]

>  <Energy>
38.492011688889555

>  <Genealogy>
C[C@@H](O[C@H]1[C@H](O)[C@@H](CO)OC(O)[C@@H]1N)C(=O)[O-] (protonated)
C[C@@H](O[C@H]1[C@H](O)[C@@H](CO)O[C@@H](O)[C@@H]1N)C(=O)[O-] (chirality)
C[C@@H](O[C@H]1[C@H](O)[C@@H](CO)O[C@@H](O)[C@@H]1N)C(=O)[O-] (3D coordinates assigned)
C[C@@H](O[C@H]1[C@H](O)[C@@H](CO)O[C@@H](O)[C@@H]1N)C(=O)[O-] (nonaromatic ring conformer: 38.492011688889555 kcal/mol)

$$$$
440552
 OpenBabel03032110343D

 30 30  0  0  0  0  0  0  0  0999 V2000
    2.7120    1.5918   -0.8975 H   0  0  0  0  0  0  0  0  0  0  0  0
    3.3950    1.0095   -0.4353 O   0  0  0  0  0  0  0  0  0  0  0  0
    3.1219   -0.2660    0.0660 C   0  0  0  0  0  0  0  0  0  0  0  0
    1.9335   -0.7989    0.0257 N   0  0  0  0  0  0  0  0  0  0  0  0
    0.6964   -0.1874   -0.4688 C   0  0  1  0  0  0  0  0  0  0  0  0
    0.9023    0.4614   -1.3461 H   0  0  0  0  0  0  0  0  0  0  0  0
   -0.2555   -1.3120   -0.9359 C   0  0  2  0  0  0  0  0  0  0  0  0
   -0.4012   -2.0426   -0.1062 H   0  0  0  0  0  0  0  0  0  0  0  0
    0.3248   -2.0189   -2.0010 O   0  0  0  0  0  0  0  0  0  0  0  0
    0.3355   -1.4104   -2.7858 H   0  0  0  0  0  0  0  0  0  0  0  0
   -1.5070   -0.7853   -1.3508 O   0  0  0  0  0  0  0  0  0  0  0  0
   -2.1957   -0.2142   -0.2509 C   0  0  2  0  0  0  0  0  0  0  0  0
   -2.2961   -0.9621    0.5712 H   0  0  0  0  0  0  0  0  0  0  0  0
   -3.6222    0.1450   -0.6957 C   0  0  0  0  0  0  0  0  0  0  0  0
   -4.1323   -0.7652   -1.0858 H   0  0  0  0  0  0  0  0  0  0  0  0
   -3.5894    0.8833   -1.5247 H   0  0  0  0  0  0  0  0  0  0  0  0
   -4.3590    0.6890    0.3667 O   0  0  0  0  0  0  0  0  0  0  0  0
   -4.5953   -0.0670    0.9653 H   0  0  0  0  0  0  0  0  0  0  0  0
   -1.4304    1.0239    0.2825 C   0  0  2  0  0  0  0  0  0  0  0  0
   -1.9339    1.3785    1.2083 H   0  0  0  0  0  0  0  0  0  0  0  0
   -1.4492    2.0850   -0.6443 O   0  0  0  0  0  0  0  0  0  0  0  0
   -1.0644    1.7566   -1.4975 H   0  0  0  0  0  0  0  0  0  0  0  0
    0.0142    0.6197    0.6615 C   0  0  2  0  0  0  0  0  0  0  0  0
   -0.0552   -0.0442    1.5527 H   0  0  0  0  0  0  0  0  0  0  0  0
    0.7766    1.7388    1.0400 O   0  0  0  0  0  0  0  0  0  0  0  0
    0.8367    2.3456    0.2580 H   0  0  0  0  0  0  0  0  0  0  0  0
    4.2456   -1.0620    0.6395 C   0  0  0  0  0  0  0  0  0  0  0  0
    5.1286   -0.4109    0.8102 H   0  0  0  0  0  0  0  0  0  0  0  0
    4.5247   -1.8724   -0.0658 H   0  0  0  0  0  0  0  0  0  0  0  0
    3.9390   -1.5084    1.6091 H   0  0  0  0  0  0  0  0  0  0  0  0
  1  2  1  0  0  0  0
  2  3  1  0  0  0  0
  3  4  2  0  0  0  0
  3 27  1  0  0  0  0
  4  5  1  0  0  0  0
  5  6  1  6  0  0  0
  5  7  1  0  0  0  0
  7  8  1  1  0  0  0
  7  9  1  0  0  0  0
  7 11  1  0  0  0  0
  9 10  1  0  0  0  0
 11 12  1  0  0  0  0
 12 13  1  1  0  0  0
 12 14  1  0  0  0  0
 12 19  1  0  0  0  0
 14 15  1  0  0  0  0
 14 16  1  0  0  0  0
 14 17  1  0  0  0  0
 17 18  1  0  0  0  0
 19 20  1  1  0  0  0
 19 21  1  0  0  0  0
 19 23  1  0  0  0  0
 21 22  1  0  0  0  0
 23 24  1  1  0  0  0
 23 25  1  0  0  0  0
 23  5  1  0  0  0  0
 25 26  1  0  0  0  0
 27 28  1  0  0  0  0
 27 29  1  0  0  0  0
 27 30  1  0  0  0  0
M  END
>  <UniqueID>
131

>  <SMILES>
C/C(O)=N/[C@H]1[C@H](O)O[C@H](CO)[C@H](O)[C@@H]1O

>  <Energy>
29.8420090877363

>  <Genealogy>
CC(O)=N[C@H]1[C@H](O)O[C@H](CO)[C@H](O)[C@@H]1O (tautomer)
C/C(O)=N/[C@H]1[C@H](O)O[C@H](CO)[C@H](O)[C@@H]1O (cis-trans isomerization)
C/C(O)=N/[C@H]1[C@H](O)O[C@H](CO)[C@H](O)[C@@H]1O (3D coordinates assigned)
C/C(O)=N/[C@H]1[C@H](O)O[C@H](CO)[C@H](O)[C@@H]1O (nonaromatic ring conformer: 29.8420090877363 kcal/mol)

$$$$
440552
 OpenBabel03032110343D

 30 30  0  0  0  0  0  0  0  0999 V2000
    4.0864   -1.7336   -1.2631 H   0  0  0  0  0  0  0  0  0  0  0  0
    3.2647   -1.1664   -1.0923 O   0  0  0  0  0  0  0  0  0  0  0  0
    2.8776   -0.8294    0.2045 C   0  0  0  0  0  0  0  0  0  0  0  0
    1.8113   -0.1166    0.4140 N   0  0  0  0  0  0  0  0  0  0  0  0
    0.9303    0.3910   -0.6420 C   0  0  1  0  0  0  0  0  0  0  0  0
    1.5546    0.7761   -1.4802 H   0  0  0  0  0  0  0  0  0  0  0  0
    0.0140   -0.7369   -1.1617 C   0  0  2  0  0  0  0  0  0  0  0  0
    0.6699   -1.5976   -1.4220 H   0  0  0  0  0  0  0  0  0  0  0  0
   -0.6437   -0.3406   -2.3364 O   0  0  0  0  0  0  0  0  0  0  0  0
   -1.0935   -1.1500   -2.6942 H   0  0  0  0  0  0  0  0  0  0  0  0
   -0.9058   -1.1975   -0.1786 O   0  0  0  0  0  0  0  0  0  0  0  0
   -1.7375   -0.1783    0.3682 C   0  0  2  0  0  0  0  0  0  0  0  0
   -2.2198   -0.6358    1.2602 H   0  0  0  0  0  0  0  0  0  0  0  0
   -2.9126    0.1971   -0.5634 C   0  0  0  0  0  0  0  0  0  0  0  0
   -3.6693    0.7885    0.0008 H   0  0  0  0  0  0  0  0  0  0  0  0
   -2.5796    0.8351   -1.4032 H   0  0  0  0  0  0  0  0  0  0  0  0
   -3.5122   -0.9564   -1.0891 O   0  0  0  0  0  0  0  0  0  0  0  0
   -4.0328   -1.3682   -0.3508 H   0  0  0  0  0  0  0  0  0  0  0  0
   -0.9366    1.0322    0.9191 C   0  0  2  0  0  0  0  0  0  0  0  0
   -0.3711    0.6833    1.8160 H   0  0  0  0  0  0  0  0  0  0  0  0
   -1.7936    2.0763    1.3060 O   0  0  0  0  0  0  0  0  0  0  0  0
   -2.2599    1.7743    2.1290 H   0  0  0  0  0  0  0  0  0  0  0  0
    0.0962    1.5561   -0.0878 C   0  0  2  0  0  0  0  0  0  0  0  0
    0.7723    2.2622    0.4508 H   0  0  0  0  0  0  0  0  0  0  0  0
   -0.5440    2.2475   -1.1302 O   0  0  0  0  0  0  0  0  0  0  0  0
    0.1515    2.7895   -1.5867 H   0  0  0  0  0  0  0  0  0  0  0  0
    3.6809   -1.3122    1.3688 C   0  0  0  0  0  0  0  0  0  0  0  0
    4.7634   -1.2055    1.1479 H   0  0  0  0  0  0  0  0  0  0  0  0
    3.4450   -0.7236    2.2811 H   0  0  0  0  0  0  0  0  0  0  0  0
    3.4508   -2.3814    1.5565 H   0  0  0  0  0  0  0  0  0  0  0  0
  1  2  1  0  0  0  0
  2  3  1  0  0  0  0
  3  4  2  0  0  0  0
  3 27  1  0  0  0  0
  4  5  1  0  0  0  0
  5  6  1  6  0  0  0
  5  7  1  0  0  0  0
  7  8  1  6  0  0  0
  7  9  1  0  0  0  0
  7 11  1  0  0  0  0
  9 10  1  0  0  0  0
 11 12  1  0  0  0  0
 12 13  1  1  0  0  0
 12 14  1  0  0  0  0
 12 19  1  0  0  0  0
 14 15  1  0  0  0  0
 14 16  1  0  0  0  0
 14 17  1  0  0  0  0
 17 18  1  0  0  0  0
 19 20  1  1  0  0  0
 19 21  1  0  0  0  0
 19 23  1  0  0  0  0
 21 22  1  0  0  0  0
 23 24  1  1  0  0  0
 23 25  1  0  0  0  0
 23  5  1  0  0  0  0
 25 26  1  0  0  0  0
 27 28  1  0  0  0  0
 27 29  1  0  0  0  0
 27 30  1  0  0  0  0
M  END
>  <UniqueID>
132

>  <SMILES>
C/C(O)=N/[C@H]1[C@H](O)O[C@H](CO)[C@H](O)[C@@H]1O

>  <Energy>
31.89218430913147

>  <Genealogy>
CC(O)=N[C@H]1[C@H](O)O[C@H](CO)[C@H](O)[C@@H]1O (tautomer)
C/C(O)=N/[C@H]1[C@H](O)O[C@H](CO)[C@H](O)[C@@H]1O (cis-trans isomerization)
C/C(O)=N/[C@H]1[C@H](O)O[C@H](CO)[C@H](O)[C@@H]1O (3D coordinates assigned)
C/C(O)=N/[C@H]1[C@H](O)O[C@H](CO)[C@H](O)[C@@H]1O (nonaromatic ring conformer: 31.89218430913147 kcal/mol)

$$$$
440271
 OpenBabel03032110343D

 33 33  0  0  0  0  0  0  0  0999 V2000
   -0.0246   -3.0598   -3.1703 C   0  0  0  0  0  0  0  0  0  0  0  0
    0.6122   -1.9626   -2.3817 C   0  0  0  0  0  0  0  0  0  0  0  0
    1.8670   -1.9294   -2.2637 O   0  0  0  0  0  0  0  0  0  0  0  0
   -0.2079   -0.9770   -1.7382 N   0  0  0  0  0  0  0  0  0  0  0  0
    0.3418    0.0736   -0.8755 C   0  0  1  0  0  0  0  0  0  0  0  0
   -0.4112    1.4028   -1.1145 C   0  0  2  0  0  0  0  0  0  0  0  0
   -0.2513    1.8113   -2.4478 O   0  0  0  0  0  0  0  0  0  0  0  0
    0.0714    2.4208   -0.2506 O   0  0  0  0  0  0  0  0  0  0  0  0
   -0.1956    2.0899    1.1028 C   0  0  2  0  0  0  0  0  0  0  0  0
    0.1560    3.2897    1.9895 C   0  0  0  0  0  0  0  0  0  0  0  0
   -0.6648    4.3787    1.6393 O   0  0  0  0  0  0  0  0  0  0  0  0
   -0.2579    5.6991    2.6209 S   0  0  0  0  0  0  0  0  0  0  0  0
   -0.4755    5.3611    4.0697 O   0  0  0  0  0  0  0  0  0  0  0  0
    1.1771    6.0909    2.4017 O   0  0  0  0  0  0  0  0  0  0  0  0
   -1.2427    6.9968    2.2131 O   0  5  0  0  0  0  0  0  0  0  0  0
    0.6053    0.8355    1.5187 C   0  0  2  0  0  0  0  0  0  0  0  0
    1.9842    1.0942    1.4150 O   0  0  0  0  0  0  0  0  0  0  0  0
    0.2133   -0.3403    0.6010 C   0  0  2  0  0  0  0  0  0  0  0  0
    1.0312   -1.4539    0.8520 O   0  0  0  0  0  0  0  0  0  0  0  0
   -0.7842   -2.6341   -3.8590 H   0  0  0  0  0  0  0  0  0  0  0  0
    0.7370   -3.6024   -3.7698 H   0  0  0  0  0  0  0  0  0  0  0  0
   -0.5177   -3.7735   -2.4782 H   0  0  0  0  0  0  0  0  0  0  0  0
   -1.2461   -1.0928   -1.7836 H   0  0  0  0  0  0  0  0  0  0  0  0
    1.4171    0.2402   -1.1112 H   0  0  0  0  0  0  0  0  0  0  0  0
   -1.5030    1.2487   -0.9505 H   0  0  0  0  0  0  0  0  0  0  0  0
    0.7000    2.0724   -2.5622 H   0  0  0  0  0  0  0  0  0  0  0  0
   -1.2842    1.8909    1.2497 H   0  0  0  0  0  0  0  0  0  0  0  0
    1.2286    3.5479    1.8398 H   0  0  0  0  0  0  0  0  0  0  0  0
   -0.0128    3.0066    3.0532 H   0  0  0  0  0  0  0  0  0  0  0  0
    0.3402    0.5762    2.5713 H   0  0  0  0  0  0  0  0  0  0  0  0
    2.4442    0.4607    2.0253 H   0  0  0  0  0  0  0  0  0  0  0  0
   -0.8515   -0.6105    0.8004 H   0  0  0  0  0  0  0  0  0  0  0  0
    0.7395   -1.8319    1.7224 H   0  0  0  0  0  0  0  0  0  0  0  0
  1  2  1  0  0  0  0
  1 20  1  0  0  0  0
  1 21  1  0  0  0  0
  1 22  1  0  0  0  0
  2  3  2  0  0  0  0
  2  4  1  0  0  0  0
  4  5  1  0  0  0  0
  4 23  1  0  0  0  0
  5  6  1  0  0  0  0
  5 24  1  6  0  0  0
  6  7  1  0  0  0  0
  6  8  1  0  0  0  0
  6 25  1  1  0  0  0
  7 26  1  0  0  0  0
  8  9  1  0  0  0  0
  9 10  1  0  0  0  0
  9 16  1  0  0  0  0
  9 27  1  1  0  0  0
 10 11  1  0  0  0  0
 10 28  1  0  0  0  0
 10 29  1  0  0  0  0
 11 12  1  0  0  0  0
 12 13  2  0  0  0  0
 12 14  2  0  0  0  0
 12 15  1  0  0  0  0
 16 17  1  0  0  0  0
 16 18  1  0  0  0  0
 16 30  1  1  0  0  0
 17 31  1  0  0  0  0
 18 19  1  0  0  0  0
 18  5  1  0  0  0  0
 18 32  1  1  0  0  0
 19 33  1  0  0  0  0
M  CHG  1  15  -1
M  END
>  <UniqueID>
133

>  <SMILES>
CC(=O)N[C@H]1[C@H](O)O[C@H](COS(=O)(=O)[O-])[C@H](O)[C@@H]1O

>  <Energy>
27.486473353159326

>  <Genealogy>
CC(=O)N[C@H]1[C@H](O)O[C@H](COS(=O)(=O)[O-])[C@H](O)[C@@H]1O (protonated)
CC(=O)N[C@H]1[C@H](O)O[C@H](COS(=O)(=O)[O-])[C@H](O)[C@@H]1O (3D coordinates assigned)
CC(=O)N[C@H]1[C@H](O)O[C@H](COS(=O)(=O)[O-])[C@H](O)[C@@H]1O (nonaromatic ring conformer: 27.486473353159326 kcal/mol)

$$$$
440271
 OpenBabel03032110343D

 33 33  0  0  0  0  0  0  0  0999 V2000
   -2.3349   -1.8815   -2.1161 C   0  0  0  0  0  0  0  0  0  0  0  0
   -0.9296   -1.3765   -2.0765 C   0  0  0  0  0  0  0  0  0  0  0  0
   -0.2153   -1.4369   -3.1137 O   0  0  0  0  0  0  0  0  0  0  0  0
   -0.4016   -0.8278   -0.8609 N   0  0  0  0  0  0  0  0  0  0  0  0
    0.9762   -0.3258   -0.7632 C   0  0  1  0  0  0  0  0  0  0  0  0
    1.1269    1.0206   -1.5411 C   0  0  2  0  0  0  0  0  0  0  0  0
    2.2485    0.9347   -2.3786 O   0  0  0  0  0  0  0  0  0  0  0  0
    1.2902    2.1415   -0.6806 O   0  0  0  0  0  0  0  0  0  0  0  0
    0.3037    2.1348    0.3336 C   0  0  2  0  0  0  0  0  0  0  0  0
    0.2046    3.5386    0.9449 C   0  0  0  0  0  0  0  0  0  0  0  0
   -0.7850    3.5491    1.9465 O   0  0  0  0  0  0  0  0  0  0  0  0
   -0.8510    5.1035    2.6155 S   0  0  0  0  0  0  0  0  0  0  0  0
   -1.8621    5.1097    3.7263 O   0  0  0  0  0  0  0  0  0  0  0  0
   -1.2674    6.1011    1.5707 O   0  0  0  0  0  0  0  0  0  0  0  0
    0.6476    5.5336    3.2441 O   0  5  0  0  0  0  0  0  0  0  0  0
    0.6293    1.0294    1.3782 C   0  0  2  0  0  0  0  0  0  0  0  0
    1.3844    1.5460    2.4471 O   0  0  0  0  0  0  0  0  0  0  0  0
    1.3887   -0.1512    0.7172 C   0  0  2  0  0  0  0  0  0  0  0  0
    2.7750    0.0781    0.7883 O   0  0  0  0  0  0  0  0  0  0  0  0
   -2.5857   -2.2641   -3.1287 H   0  0  0  0  0  0  0  0  0  0  0  0
   -3.0323   -1.0566   -1.8596 H   0  0  0  0  0  0  0  0  0  0  0  0
   -2.4546   -2.7037   -1.3797 H   0  0  0  0  0  0  0  0  0  0  0  0
   -1.0121   -0.8455   -0.0126 H   0  0  0  0  0  0  0  0  0  0  0  0
    1.6471   -1.0959   -1.2077 H   0  0  0  0  0  0  0  0  0  0  0  0
    0.2303    1.1892   -2.1841 H   0  0  0  0  0  0  0  0  0  0  0  0
    2.2431    1.7508   -2.9441 H   0  0  0  0  0  0  0  0  0  0  0  0
   -0.7011    1.9231   -0.1078 H   0  0  0  0  0  0  0  0  0  0  0  0
    1.1974    3.8286    1.3568 H   0  0  0  0  0  0  0  0  0  0  0  0
   -0.0649    4.2491    0.1310 H   0  0  0  0  0  0  0  0  0  0  0  0
   -0.3437    0.6552    1.7755 H   0  0  0  0  0  0  0  0  0  0  0  0
    1.3290    0.8826    3.1838 H   0  0  0  0  0  0  0  0  0  0  0  0
    1.1445   -1.0823    1.2817 H   0  0  0  0  0  0  0  0  0  0  0  0
    3.2206   -0.7988    0.6522 H   0  0  0  0  0  0  0  0  0  0  0  0
  1  2  1  0  0  0  0
  1 20  1  0  0  0  0
  1 21  1  0  0  0  0
  1 22  1  0  0  0  0
  2  3  2  0  0  0  0
  2  4  1  0  0  0  0
  4  5  1  0  0  0  0
  4 23  1  0  0  0  0
  5  6  1  0  0  0  0
  5 24  1  6  0  0  0
  6  7  1  0  0  0  0
  6  8  1  0  0  0  0
  6 25  1  6  0  0  0
  7 26  1  0  0  0  0
  8  9  1  0  0  0  0
  9 10  1  0  0  0  0
  9 16  1  0  0  0  0
  9 27  1  6  0  0  0
 10 11  1  0  0  0  0
 10 28  1  0  0  0  0
 10 29  1  0  0  0  0
 11 12  1  0  0  0  0
 12 13  2  0  0  0  0
 12 14  2  0  0  0  0
 12 15  1  0  0  0  0
 16 17  1  0  0  0  0
 16 18  1  0  0  0  0
 16 30  1  1  0  0  0
 17 31  1  0  0  0  0
 18 19  1  0  0  0  0
 18  5  1  0  0  0  0
 18 32  1  1  0  0  0
 19 33  1  0  0  0  0
M  CHG  1  15  -1
M  END
>  <UniqueID>
134

>  <SMILES>
CC(=O)N[C@H]1[C@H](O)O[C@H](COS(=O)(=O)[O-])[C@H](O)[C@@H]1O

>  <Energy>
36.88942674154005

>  <Genealogy>
CC(=O)N[C@H]1[C@H](O)O[C@H](COS(=O)(=O)[O-])[C@H](O)[C@@H]1O (protonated)
CC(=O)N[C@H]1[C@H](O)O[C@H](COS(=O)(=O)[O-])[C@H](O)[C@@H]1O (3D coordinates assigned)
CC(=O)N[C@H]1[C@H](O)O[C@H](COS(=O)(=O)[O-])[C@H](O)[C@@H]1O (nonaromatic ring conformer: 36.88942674154005 kcal/mol)

$$$$
440235
 OpenBabel03032110343D

 33 33  0  0  0  0  0  0  0  0999 V2000
   -0.8986   -5.2454    1.7745 C   0  0  0  0  0  0  0  0  0  0  0  0
   -0.2191   -4.0572    1.1762 C   0  0  0  0  0  0  0  0  0  0  0  0
    0.9407   -4.1803    0.6974 O   0  0  0  0  0  0  0  0  0  0  0  0
   -0.8745   -2.7811    1.1840 N   0  0  0  0  0  0  0  0  0  0  0  0
   -0.2383   -1.5554    0.6901 C   0  0  1  0  0  0  0  0  0  0  0  0
   -1.2454   -0.7404   -0.1427 C   0  0  2  0  0  0  0  0  0  0  0  0
   -1.6438   -1.5053   -1.2477 O   0  0  0  0  0  0  0  0  0  0  0  0
   -0.6416    0.4547   -0.6069 O   0  0  0  0  0  0  0  0  0  0  0  0
   -0.3294    1.3102    0.4804 C   0  0  2  0  0  0  0  0  0  0  0  0
    0.1590    2.6500   -0.0829 C   0  0  0  0  0  0  0  0  0  0  0  0
   -0.8545    3.2126   -0.8823 O   0  0  0  0  0  0  0  0  0  0  0  0
   -0.2890    4.6776   -1.5197 S   0  0  0  0  0  0  0  0  0  0  0  0
    0.9194    4.4405   -2.3822 O   0  0  0  0  0  0  0  0  0  0  0  0
    0.0589    5.6317   -0.4109 O   0  0  0  0  0  0  0  0  0  0  0  0
   -1.5016    5.3590   -2.4607 O   0  5  0  0  0  0  0  0  0  0  0  0
    0.7517    0.6636    1.3775 C   0  0  1  0  0  0  0  0  0  0  0  0
    1.0141    1.4973    2.4778 O   0  0  0  0  0  0  0  0  0  0  0  0
    0.2643   -0.7090    1.8746 C   0  0  2  0  0  0  0  0  0  0  0  0
    1.3228   -1.3688    2.5210 O   0  0  0  0  0  0  0  0  0  0  0  0
   -0.3671   -6.1802    1.4960 H   0  0  0  0  0  0  0  0  0  0  0  0
   -1.9436   -5.3053    1.4049 H   0  0  0  0  0  0  0  0  0  0  0  0
   -0.9067   -5.1479    2.8800 H   0  0  0  0  0  0  0  0  0  0  0  0
   -1.7981   -2.7025    1.6680 H   0  0  0  0  0  0  0  0  0  0  0  0
    0.6254   -1.8044    0.0328 H   0  0  0  0  0  0  0  0  0  0  0  0
   -2.1486   -0.5133    0.4754 H   0  0  0  0  0  0  0  0  0  0  0  0
   -2.3649   -0.9927   -1.6981 H   0  0  0  0  0  0  0  0  0  0  0  0
   -1.2416    1.5203    1.0883 H   0  0  0  0  0  0  0  0  0  0  0  0
    1.0776    2.4694   -0.6862 H   0  0  0  0  0  0  0  0  0  0  0  0
    0.3997    3.3312    0.7638 H   0  0  0  0  0  0  0  0  0  0  0  0
    1.6790    0.5247    0.7708 H   0  0  0  0  0  0  0  0  0  0  0  0
    1.9092    1.2439    2.8245 H   0  0  0  0  0  0  0  0  0  0  0  0
   -0.5767   -0.5422    2.5909 H   0  0  0  0  0  0  0  0  0  0  0  0
    0.9166   -2.0290    3.1413 H   0  0  0  0  0  0  0  0  0  0  0  0
  1  2  1  0  0  0  0
  1 20  1  0  0  0  0
  1 21  1  0  0  0  0
  1 22  1  0  0  0  0
  2  3  2  0  0  0  0
  2  4  1  0  0  0  0
  4  5  1  0  0  0  0
  4 23  1  0  0  0  0
  5  6  1  0  0  0  0
  5 24  1  6  0  0  0
  6  7  1  0  0  0  0
  6  8  1  0  0  0  0
  6 25  1  1  0  0  0
  7 26  1  0  0  0  0
  8  9  1  0  0  0  0
  9 10  1  0  0  0  0
  9 16  1  0  0  0  0
  9 27  1  1  0  0  0
 10 11  1  0  0  0  0
 10 28  1  0  0  0  0
 10 29  1  0  0  0  0
 11 12  1  0  0  0  0
 12 13  2  0  0  0  0
 12 14  2  0  0  0  0
 12 15  1  0  0  0  0
 16 17  1  0  0  0  0
 16 18  1  0  0  0  0
 16 30  1  6  0  0  0
 17 31  1  0  0  0  0
 18 19  1  0  0  0  0
 18  5  1  0  0  0  0
 18 32  1  1  0  0  0
 19 33  1  0  0  0  0
M  CHG  1  15  -1
M  END
>  <UniqueID>
135

>  <SMILES>
CC(=O)N[C@H]1[C@H](O)O[C@H](COS(=O)(=O)[O-])[C@@H](O)[C@@H]1O

>  <Energy>
26.363278799047524

>  <Genealogy>
CC(=O)N[C@H]1[C@H](O)O[C@H](COS(=O)(=O)[O-])[C@@H](O)[C@@H]1O (protonated)
CC(=O)N[C@H]1[C@H](O)O[C@H](COS(=O)(=O)[O-])[C@@H](O)[C@@H]1O (3D coordinates assigned)
CC(=O)N[C@H]1[C@H](O)O[C@H](COS(=O)(=O)[O-])[C@@H](O)[C@@H]1O (nonaromatic ring conformer: 26.363278799047524 kcal/mol)

$$$$
440235
 OpenBabel03032110343D

 33 33  0  0  0  0  0  0  0  0999 V2000
    1.9715    1.2004    3.1270 H   0  0  0  0  0  0  0  0  0  0  0  0
    1.3427    0.6708    2.5354 O   0  0  0  0  0  0  0  0  0  0  0  0
    0.0054    1.0396    2.3907 C   0  0  0  0  0  0  0  0  0  0  0  0
   -0.7869    0.3653    1.6119 N   0  0  0  0  0  0  0  0  0  0  0  0
   -0.3815   -0.8090    0.8348 C   0  0  1  0  0  0  0  0  0  0  0  0
    0.2397   -1.4681    1.4840 H   0  0  0  0  0  0  0  0  0  0  0  0
   -1.6486   -1.5885    0.3983 C   0  0  2  0  0  0  0  0  0  0  0  0
   -2.5215   -0.8947    0.3485 H   0  0  0  0  0  0  0  0  0  0  0  0
   -1.9693   -2.5666    1.3528 O   0  0  0  0  0  0  0  0  0  0  0  0
   -1.2904   -3.2872    1.2744 H   0  0  0  0  0  0  0  0  0  0  0  0
   -1.4495   -2.2026   -0.8633 O   0  0  0  0  0  0  0  0  0  0  0  0
   -1.4394   -1.2222   -1.8917 C   0  0  2  0  0  0  0  0  0  0  0  0
   -2.4681   -0.8045   -1.9985 H   0  0  0  0  0  0  0  0  0  0  0  0
   -1.1313   -1.9172   -3.2242 C   0  0  0  0  0  0  0  0  0  0  0  0
   -1.9223   -2.6783   -3.4088 H   0  0  0  0  0  0  0  0  0  0  0  0
   -1.1670   -1.1579   -4.0387 H   0  0  0  0  0  0  0  0  0  0  0  0
    0.1318   -2.5357   -3.1611 O   0  0  0  0  0  0  0  0  0  0  0  0
    0.4733   -3.2090   -4.6766 S   0  0  0  0  0  0  0  0  0  0  0  0
    1.7464   -4.0003   -4.5792 O   0  0  0  0  0  0  0  0  0  0  0  0
    0.6519   -2.1190   -5.6964 O   0  0  0  0  0  0  0  0  0  0  0  0
   -0.7679   -4.2359   -5.1573 O   0  5  0  0  0  0  0  0  0  0  0  0
   -0.4357   -0.0576   -1.6042 C   0  0  1  0  0  0  0  0  0  0  0  0
    0.2201    0.1141   -2.4913 H   0  0  0  0  0  0  0  0  0  0  0  0
   -1.1596    1.1206   -1.3491 O   0  0  0  0  0  0  0  0  0  0  0  0
   -0.5236    1.8781   -1.4375 H   0  0  0  0  0  0  0  0  0  0  0  0
    0.4653   -0.3847   -0.3954 C   0  0  2  0  0  0  0  0  0  0  0  0
    1.0663    0.5238   -0.1554 H   0  0  0  0  0  0  0  0  0  0  0  0
    1.3451   -1.4220   -0.7494 O   0  0  0  0  0  0  0  0  0  0  0  0
    2.0911   -1.4042   -0.0943 H   0  0  0  0  0  0  0  0  0  0  0  0
   -0.5177    2.2391    3.1128 C   0  0  0  0  0  0  0  0  0  0  0  0
   -0.1010    2.2704    4.1412 H   0  0  0  0  0  0  0  0  0  0  0  0
   -0.2146    3.1573    2.5684 H   0  0  0  0  0  0  0  0  0  0  0  0
   -1.6261    2.2048    3.1800 H   0  0  0  0  0  0  0  0  0  0  0  0
  1  2  1  0  0  0  0
  2  3  1  0  0  0  0
  3  4  2  0  0  0  0
  3 30  1  0  0  0  0
  4  5  1  0  0  0  0
  5  6  1  1  0  0  0
  5  7  1  0  0  0  0
  7  8  1  6  0  0  0
  7  9  1  0  0  0  0
  7 11  1  0  0  0  0
  9 10  1  0  0  0  0
 11 12  1  0  0  0  0
 12 13  1  6  0  0  0
 12 14  1  0  0  0  0
 12 22  1  0  0  0  0
 14 15  1  0  0  0  0
 14 16  1  0  0  0  0
 14 17  1  0  0  0  0
 17 18  1  0  0  0  0
 18 19  2  0  0  0  0
 18 20  2  0  0  0  0
 18 21  1  0  0  0  0
 22 23  1  6  0  0  0
 22 24  1  0  0  0  0
 22 26  1  0  0  0  0
 24 25  1  0  0  0  0
 26 27  1  1  0  0  0
 26 28  1  0  0  0  0
 26  5  1  0  0  0  0
 28 29  1  0  0  0  0
 30 31  1  0  0  0  0
 30 32  1  0  0  0  0
 30 33  1  0  0  0  0
M  CHG  1  21  -1
M  END
>  <UniqueID>
136

>  <SMILES>
C/C(O)=N/[C@H]1[C@H](O)O[C@H](COS(=O)(=O)[O-])[C@@H](O)[C@@H]1O

>  <Energy>
36.12599634027815

>  <Genealogy>
CC(=O)N[C@H]1[C@H](O)O[C@H](COS(=O)(=O)[O-])[C@@H](O)[C@@H]1O (protonated)
CC(O)=N[C@H]1[C@H](O)O[C@H](COS(=O)(=O)[O-])[C@@H](O)[C@@H]1O (tautomer)
C/C(O)=N/[C@H]1[C@H](O)O[C@H](COS(=O)(=O)[O-])[C@@H](O)[C@@H]1O (cis-trans isomerization)
C/C(O)=N/[C@H]1[C@H](O)O[C@H](COS(=O)(=O)[O-])[C@@H](O)[C@@H]1O (3D coordinates assigned)
C/C(O)=N/[C@H]1[C@H](O)O[C@H](COS(=O)(=O)[O-])[C@@H](O)[C@@H]1O (nonaromatic ring conformer: 36.12599634027815 kcal/mol)

$$$$
440049
 OpenBabel03032110343D

 25 25  0  0  0  0  0  0  0  0999 V2000
    1.8150    2.6278    0.1209 N   0  0  0  0  0  0  0  0  0  0  0  0
    1.0147    1.7044    0.9355 C   0  0  2  0  0  0  0  0  0  0  0  0
    1.9054    0.5889    1.5132 C   0  0  2  0  0  0  0  0  0  0  0  0
    2.9963    1.1669    2.1777 O   0  0  0  0  0  0  0  0  0  0  0  0
    2.3837   -0.2502    0.4755 O   0  0  0  0  0  0  0  0  0  0  0  0
    1.3133   -0.9678   -0.1180 C   0  0  2  0  0  0  0  0  0  0  0  0
    1.8996   -2.0117   -1.0824 C   0  0  0  0  0  0  0  0  0  0  0  0
    2.5926   -1.3984   -2.1372 O   0  0  0  0  0  0  0  0  0  0  0  0
    0.3406   -0.0016   -0.8417 C   0  0  1  0  0  0  0  0  0  0  0  0
   -0.7694   -0.7114   -1.3326 O   0  0  0  0  0  0  0  0  0  0  0  0
   -0.1567    1.0727    0.1415 C   0  0  2  0  0  0  0  0  0  0  0  0
   -0.8777    2.0539   -0.5585 O   0  0  0  0  0  0  0  0  0  0  0  0
    1.2179    3.4340   -0.1734 H   0  0  0  0  0  0  0  0  0  0  0  0
    2.1580    2.1498   -0.7423 H   0  0  0  0  0  0  0  0  0  0  0  0
    0.5874    2.2777    1.7887 H   0  0  0  0  0  0  0  0  0  0  0  0
    1.3157    0.0017    2.2592 H   0  0  0  0  0  0  0  0  0  0  0  0
    3.4864    0.4214    2.6131 H   0  0  0  0  0  0  0  0  0  0  0  0
    0.7519   -1.5375    0.6601 H   0  0  0  0  0  0  0  0  0  0  0  0
    2.5763   -2.6985   -0.5239 H   0  0  0  0  0  0  0  0  0  0  0  0
    1.0843   -2.6360   -1.5050 H   0  0  0  0  0  0  0  0  0  0  0  0
    3.4775   -1.1267   -1.7787 H   0  0  0  0  0  0  0  0  0  0  0  0
    0.8732    0.5067   -1.6800 H   0  0  0  0  0  0  0  0  0  0  0  0
   -0.5594   -0.9764   -2.2661 H   0  0  0  0  0  0  0  0  0  0  0  0
   -0.8372    0.5732    0.8723 H   0  0  0  0  0  0  0  0  0  0  0  0
   -1.3803    2.5769    0.1196 H   0  0  0  0  0  0  0  0  0  0  0  0
  1  2  1  0  0  0  0
  1 13  1  0  0  0  0
  1 14  1  0  0  0  0
  2  3  1  0  0  0  0
  2 15  1  1  0  0  0
  3  4  1  0  0  0  0
  3  5  1  0  0  0  0
  3 16  1  1  0  0  0
  4 17  1  0  0  0  0
  5  6  1  0  0  0  0
  6  7  1  0  0  0  0
  6  9  1  0  0  0  0
  6 18  1  1  0  0  0
  7  8  1  0  0  0  0
  7 19  1  0  0  0  0
  7 20  1  0  0  0  0
  8 21  1  0  0  0  0
  9 10  1  0  0  0  0
  9 11  1  0  0  0  0
  9 22  1  6  0  0  0
 10 23  1  0  0  0  0
 11 12  1  0  0  0  0
 11  2  1  0  0  0  0
 11 24  1  1  0  0  0
 12 25  1  0  0  0  0
M  END
>  <UniqueID>
137

>  <SMILES>
N[C@@H]1[C@H](O)O[C@H](CO)[C@@H](O)[C@@H]1O

>  <Energy>
22.89310404860826

>  <Genealogy>
N[C@@H]1[C@H](O)O[C@H](CO)[C@@H](O)[C@@H]1O (chirality)
N[C@@H]1[C@H](O)O[C@H](CO)[C@@H](O)[C@@H]1O (3D coordinates assigned)
N[C@@H]1[C@H](O)O[C@H](CO)[C@@H](O)[C@@H]1O (nonaromatic ring conformer: 22.89310404860826 kcal/mol)

$$$$
440049
 OpenBabel03032110343D

 25 25  0  0  0  0  0  0  0  0999 V2000
    0.7690    2.8697    1.3639 N   0  0  0  0  0  0  0  0  0  0  0  0
    0.5733    1.4520    1.0512 C   0  0  2  0  0  0  0  0  0  0  0  0
    1.8338    0.6327    1.4046 C   0  0  2  0  0  0  0  0  0  0  0  0
    2.9867    1.1453    0.7840 O   0  0  0  0  0  0  0  0  0  0  0  0
    1.6750   -0.7478    1.1102 O   0  0  0  0  0  0  0  0  0  0  0  0
    1.3422   -1.0241   -0.2472 C   0  0  2  0  0  0  0  0  0  0  0  0
    2.5682   -0.9564   -1.1804 C   0  0  0  0  0  0  0  0  0  0  0  0
    2.2984   -1.6428   -2.3723 O   0  0  0  0  0  0  0  0  0  0  0  0
    0.1088   -0.2332   -0.7578 C   0  0  1  0  0  0  0  0  0  0  0  0
   -1.0462   -0.7722   -0.1635 O   0  0  0  0  0  0  0  0  0  0  0  0
    0.2022    1.2667   -0.4297 C   0  0  2  0  0  0  0  0  0  0  0  0
    1.1459    1.8836   -1.2693 O   0  0  0  0  0  0  0  0  0  0  0  0
   -0.1291    3.3736    1.1796 H   0  0  0  0  0  0  0  0  0  0  0  0
    0.9432    2.9591    2.3915 H   0  0  0  0  0  0  0  0  0  0  0  0
   -0.2686    1.0657    1.6717 H   0  0  0  0  0  0  0  0  0  0  0  0
    1.9683    0.6987    2.5094 H   0  0  0  0  0  0  0  0  0  0  0  0
    3.2715    1.9416    1.3038 H   0  0  0  0  0  0  0  0  0  0  0  0
    1.0396   -2.0952   -0.2615 H   0  0  0  0  0  0  0  0  0  0  0  0
    3.4337   -1.4362   -0.6707 H   0  0  0  0  0  0  0  0  0  0  0  0
    2.8424    0.0906   -1.4197 H   0  0  0  0  0  0  0  0  0  0  0  0
    3.1251   -1.5847   -2.9185 H   0  0  0  0  0  0  0  0  0  0  0  0
    0.0349   -0.3569   -1.8643 H   0  0  0  0  0  0  0  0  0  0  0  0
   -1.8179   -0.4958   -0.7241 H   0  0  0  0  0  0  0  0  0  0  0  0
   -0.8009    1.7226   -0.6095 H   0  0  0  0  0  0  0  0  0  0  0  0
    0.9121    2.8473   -1.3145 H   0  0  0  0  0  0  0  0  0  0  0  0
  1  2  1  0  0  0  0
  1 13  1  0  0  0  0
  1 14  1  0  0  0  0
  2  3  1  0  0  0  0
  2 15  1  1  0  0  0
  3  4  1  0  0  0  0
  3  5  1  0  0  0  0
  3 16  1  1  0  0  0
  4 17  1  0  0  0  0
  5  6  1  0  0  0  0
  6  7  1  0  0  0  0
  6  9  1  0  0  0  0
  6 18  1  6  0  0  0
  7  8  1  0  0  0  0
  7 19  1  0  0  0  0
  7 20  1  0  0  0  0
  8 21  1  0  0  0  0
  9 10  1  0  0  0  0
  9 11  1  0  0  0  0
  9 22  1  6  0  0  0
 10 23  1  0  0  0  0
 11 12  1  0  0  0  0
 11  2  1  0  0  0  0
 11 24  1  6  0  0  0
 12 25  1  0  0  0  0
M  END
>  <UniqueID>
138

>  <SMILES>
N[C@@H]1[C@H](O)O[C@H](CO)[C@@H](O)[C@@H]1O

>  <Energy>
29.543392224769104

>  <Genealogy>
N[C@@H]1[C@H](O)O[C@H](CO)[C@@H](O)[C@@H]1O (chirality)
N[C@@H]1[C@H](O)O[C@H](CO)[C@@H](O)[C@@H]1O (3D coordinates assigned)
N[C@@H]1[C@H](O)O[C@H](CO)[C@@H](O)[C@@H]1O (nonaromatic ring conformer: 29.543392224769104 kcal/mol)

$$$$
439281
 OpenBabel03032110343D

 30 30  0  0  0  0  0  0  0  0999 V2000
   -0.3898   -1.4272    3.5379 C   0  0  0  0  0  0  0  0  0  0  0  0
    0.6229   -0.6146    2.7993 C   0  0  0  0  0  0  0  0  0  0  0  0
    1.6878   -0.2706    3.3801 O   0  0  0  0  0  0  0  0  0  0  0  0
    0.3907   -0.2587    1.4292 N   0  0  0  0  0  0  0  0  0  0  0  0
    1.3798    0.4628    0.6166 C   0  0  2  0  0  0  0  0  0  0  0  0
    0.6780    1.4666   -0.3169 C   0  0  2  0  0  0  0  0  0  0  0  0
   -0.1183    2.3278    0.4509 O   0  0  0  0  0  0  0  0  0  0  0  0
   -0.1415    0.7845   -1.2514 O   0  0  0  0  0  0  0  0  0  0  0  0
    0.6486    0.0087   -2.1382 C   0  0  2  0  0  0  0  0  0  0  0  0
   -0.2795   -0.5588   -3.2214 C   0  0  0  0  0  0  0  0  0  0  0  0
    0.4683   -1.1462   -4.2505 O   0  0  0  0  0  0  0  0  0  0  0  0
    1.3736   -1.1230   -1.3662 C   0  0  1  0  0  0  0  0  0  0  0  0
    2.2122   -1.8344   -2.2407 O   0  0  0  0  0  0  0  0  0  0  0  0
    2.2168   -0.5212   -0.2260 C   0  0  2  0  0  0  0  0  0  0  0  0
    2.7253   -1.5527    0.5804 O   0  0  0  0  0  0  0  0  0  0  0  0
   -1.3969   -0.9794    3.4064 H   0  0  0  0  0  0  0  0  0  0  0  0
   -0.3950   -2.4625    3.1381 H   0  0  0  0  0  0  0  0  0  0  0  0
   -0.1507   -1.4580    4.6222 H   0  0  0  0  0  0  0  0  0  0  0  0
   -0.4729   -0.6245    0.9672 H   0  0  0  0  0  0  0  0  0  0  0  0
    2.0662    1.0379    1.2771 H   0  0  0  0  0  0  0  0  0  0  0  0
    1.4508    2.0806   -0.8410 H   0  0  0  0  0  0  0  0  0  0  0  0
   -0.4726    3.0132   -0.1737 H   0  0  0  0  0  0  0  0  0  0  0  0
    1.3994    0.6556   -2.6513 H   0  0  0  0  0  0  0  0  0  0  0  0
   -0.9714   -1.3086   -2.7751 H   0  0  0  0  0  0  0  0  0  0  0  0
   -0.8895    0.2710   -3.6442 H   0  0  0  0  0  0  0  0  0  0  0  0
   -0.1909   -1.5016   -4.9017 H   0  0  0  0  0  0  0  0  0  0  0  0
    0.6054   -1.8077   -0.9339 H   0  0  0  0  0  0  0  0  0  0  0  0
    2.3805   -2.7194   -1.8235 H   0  0  0  0  0  0  0  0  0  0  0  0
    3.0656    0.0403   -0.6850 H   0  0  0  0  0  0  0  0  0  0  0  0
    3.4533   -1.1557    1.1266 H   0  0  0  0  0  0  0  0  0  0  0  0
  1  2  1  0  0  0  0
  1 16  1  0  0  0  0
  1 17  1  0  0  0  0
  1 18  1  0  0  0  0
  2  3  2  0  0  0  0
  2  4  1  0  0  0  0
  4  5  1  0  0  0  0
  4 19  1  0  0  0  0
  5  6  1  0  0  0  0
  5 20  1  1  0  0  0
  6  7  1  0  0  0  0
  6  8  1  0  0  0  0
  6 21  1  6  0  0  0
  7 22  1  0  0  0  0
  8  9  1  0  0  0  0
  9 10  1  0  0  0  0
  9 12  1  0  0  0  0
  9 23  1  6  0  0  0
 10 11  1  0  0  0  0
 10 24  1  0  0  0  0
 10 25  1  0  0  0  0
 11 26  1  0  0  0  0
 12 13  1  0  0  0  0
 12 14  1  0  0  0  0
 12 27  1  1  0  0  0
 13 28  1  0  0  0  0
 14 15  1  0  0  0  0
 14  5  1  0  0  0  0
 14 29  1  6  0  0  0
 15 30  1  0  0  0  0
M  END
>  <UniqueID>
139

>  <SMILES>
CC(=O)N[C@@H]1[C@H](O)O[C@H](CO)[C@@H](O)[C@@H]1O

>  <Energy>
23.711077179947303

>  <Genealogy>
CC(=O)N[C@@H]1[C@H](O)O[C@H](CO)[C@@H](O)[C@@H]1O (chirality)
CC(=O)N[C@@H]1[C@H](O)O[C@H](CO)[C@@H](O)[C@@H]1O (3D coordinates assigned)
CC(=O)N[C@@H]1[C@H](O)O[C@H](CO)[C@@H](O)[C@@H]1O (nonaromatic ring conformer: 23.711077179947303 kcal/mol)

$$$$
439281
 OpenBabel03032110343D

 30 30  0  0  0  0  0  0  0  0999 V2000
   -1.4562    2.4313    2.6574 C   0  0  0  0  0  0  0  0  0  0  0  0
   -1.0477    2.6433    1.2363 C   0  0  0  0  0  0  0  0  0  0  0  0
   -0.3596    3.6547    0.9311 O   0  0  0  0  0  0  0  0  0  0  0  0
   -1.4134    1.6809    0.2372 N   0  0  0  0  0  0  0  0  0  0  0  0
   -0.9781    1.7826   -1.1621 C   0  0  2  0  0  0  0  0  0  0  0  0
   -2.0968    1.2721   -2.0973 C   0  0  1  0  0  0  0  0  0  0  0  0
   -1.8192    1.5793   -3.4424 O   0  0  0  0  0  0  0  0  0  0  0  0
   -2.3101   -0.1218   -1.9366 O   0  0  0  0  0  0  0  0  0  0  0  0
   -1.1537   -0.8759   -2.2710 C   0  0  2  0  0  0  0  0  0  0  0  0
   -1.5149   -2.3656   -2.2011 C   0  0  0  0  0  0  0  0  0  0  0  0
   -1.9218   -2.7105   -0.9050 O   0  0  0  0  0  0  0  0  0  0  0  0
    0.0283   -0.5327   -1.3302 C   0  0  1  0  0  0  0  0  0  0  0  0
    1.1817   -1.2297   -1.7313 O   0  0  0  0  0  0  0  0  0  0  0  0
    0.3137    0.9774   -1.3920 C   0  0  2  0  0  0  0  0  0  0  0  0
    1.2732    1.3326   -0.4290 O   0  0  0  0  0  0  0  0  0  0  0  0
   -0.8806    1.5839    3.0843 H   0  0  0  0  0  0  0  0  0  0  0  0
   -2.5403    2.1974    2.7043 H   0  0  0  0  0  0  0  0  0  0  0  0
   -1.2607    3.3435    3.2604 H   0  0  0  0  0  0  0  0  0  0  0  0
   -1.9273    0.8242    0.5458 H   0  0  0  0  0  0  0  0  0  0  0  0
   -0.7817    2.8491   -1.4122 H   0  0  0  0  0  0  0  0  0  0  0  0
   -3.0442    1.7826   -1.8078 H   0  0  0  0  0  0  0  0  0  0  0  0
   -1.9489    2.5580   -3.5475 H   0  0  0  0  0  0  0  0  0  0  0  0
   -0.8514   -0.6750   -3.3248 H   0  0  0  0  0  0  0  0  0  0  0  0
   -0.6428   -2.9864   -2.5050 H   0  0  0  0  0  0  0  0  0  0  0  0
   -2.3440   -2.5682   -2.9158 H   0  0  0  0  0  0  0  0  0  0  0  0
   -2.1338   -3.6795   -0.9317 H   0  0  0  0  0  0  0  0  0  0  0  0
   -0.2411   -0.7953   -0.2788 H   0  0  0  0  0  0  0  0  0  0  0  0
    1.2226   -2.0635   -1.1941 H   0  0  0  0  0  0  0  0  0  0  0  0
    0.6973    1.2322   -2.4094 H   0  0  0  0  0  0  0  0  0  0  0  0
    2.1589    1.0683   -0.7913 H   0  0  0  0  0  0  0  0  0  0  0  0
  1  2  1  0  0  0  0
  1 16  1  0  0  0  0
  1 17  1  0  0  0  0
  1 18  1  0  0  0  0
  2  3  2  0  0  0  0
  2  4  1  0  0  0  0
  4  5  1  0  0  0  0
  4 19  1  0  0  0  0
  5  6  1  0  0  0  0
  5 20  1  6  0  0  0
  6  7  1  0  0  0  0
  6  8  1  0  0  0  0
  6 21  1  1  0  0  0
  7 22  1  0  0  0  0
  8  9  1  0  0  0  0
  9 10  1  0  0  0  0
  9 12  1  0  0  0  0
  9 23  1  6  0  0  0
 10 11  1  0  0  0  0
 10 24  1  0  0  0  0
 10 25  1  0  0  0  0
 11 26  1  0  0  0  0
 12 13  1  0  0  0  0
 12 14  1  0  0  0  0
 12 27  1  1  0  0  0
 13 28  1  0  0  0  0
 14 15  1  0  0  0  0
 14  5  1  0  0  0  0
 14 29  1  6  0  0  0
 15 30  1  0  0  0  0
M  END
>  <UniqueID>
140

>  <SMILES>
CC(=O)N[C@@H]1[C@@H](O)O[C@H](CO)[C@@H](O)[C@@H]1O

>  <Energy>
25.845425354706432

>  <Genealogy>
CC(=O)N[C@@H]1[C@@H](O)O[C@H](CO)[C@@H](O)[C@@H]1O (chirality)
CC(=O)N[C@@H]1[C@@H](O)O[C@H](CO)[C@@H](O)[C@@H]1O (3D coordinates assigned)
CC(=O)N[C@@H]1[C@@H](O)O[C@H](CO)[C@@H](O)[C@@H]1O (nonaromatic ring conformer: 25.845425354706432 kcal/mol)

$$$$
439213
 OpenBabel03032110343D

 26 26  0  0  0  0  0  0  0  0999 V2000
   -1.5451   -1.5323    2.5993 N   0  3  0  0  0  0  0  0  0  0  0  0
   -0.5564   -0.7412    1.8525 C   0  0  1  0  0  0  0  0  0  0  0  0
    0.8365   -1.4097    1.9072 C   0  0  2  0  0  0  0  0  0  0  0  0
    1.2589   -1.4850    3.2419 O   0  0  0  0  0  0  0  0  0  0  0  0
    1.7783   -0.6421    1.1777 O   0  0  0  0  0  0  0  0  0  0  0  0
    1.4593   -0.6396   -0.2034 C   0  0  2  0  0  0  0  0  0  0  0  0
    2.6038    0.0423   -0.9621 C   0  0  0  0  0  0  0  0  0  0  0  0
    3.8044   -0.6352   -0.7122 O   0  0  0  0  0  0  0  0  0  0  0  0
    0.1212    0.0999   -0.4376 C   0  0  1  0  0  0  0  0  0  0  0  0
   -0.2251    0.0564   -1.7997 O   0  0  0  0  0  0  0  0  0  0  0  0
   -0.9941   -0.5732    0.3818 C   0  0  2  0  0  0  0  0  0  0  0  0
   -2.1597    0.2095    0.3282 O   0  0  0  0  0  0  0  0  0  0  0  0
   -1.6209   -2.4973    2.2022 H   0  0  0  0  0  0  0  0  0  0  0  0
   -2.4817   -1.0693    2.5553 H   0  0  0  0  0  0  0  0  0  0  0  0
   -1.2677   -1.5963    3.6053 H   0  0  0  0  0  0  0  0  0  0  0  0
   -0.4784    0.2688    2.3177 H   0  0  0  0  0  0  0  0  0  0  0  0
    0.7699   -2.4476    1.4978 H   0  0  0  0  0  0  0  0  0  0  0  0
    2.0974   -2.0164    3.2414 H   0  0  0  0  0  0  0  0  0  0  0  0
    1.3826   -1.6834   -0.5912 H   0  0  0  0  0  0  0  0  0  0  0  0
    2.3964    0.0249   -2.0552 H   0  0  0  0  0  0  0  0  0  0  0  0
    2.6961    1.1009   -0.6291 H   0  0  0  0  0  0  0  0  0  0  0  0
    4.5065   -0.1465   -1.2153 H   0  0  0  0  0  0  0  0  0  0  0  0
    0.2210    1.1569   -0.0883 H   0  0  0  0  0  0  0  0  0  0  0  0
    0.0947    0.9015   -2.2110 H   0  0  0  0  0  0  0  0  0  0  0  0
   -1.1961   -1.5857   -0.0445 H   0  0  0  0  0  0  0  0  0  0  0  0
   -2.5976    0.0167   -0.5417 H   0  0  0  0  0  0  0  0  0  0  0  0
  1  2  1  0  0  0  0
  1 13  1  0  0  0  0
  1 14  1  0  0  0  0
  1 15  1  0  0  0  0
  2  3  1  0  0  0  0
  2 16  1  1  0  0  0
  3  4  1  0  0  0  0
  3  5  1  0  0  0  0
  3 17  1  6  0  0  0
  4 18  1  0  0  0  0
  5  6  1  0  0  0  0
  6  7  1  0  0  0  0
  6  9  1  0  0  0  0
  6 19  1  6  0  0  0
  7  8  1  0  0  0  0
  7 20  1  0  0  0  0
  7 21  1  0  0  0  0
  8 22  1  0  0  0  0
  9 10  1  0  0  0  0
  9 11  1  0  0  0  0
  9 23  1  1  0  0  0
 10 24  1  0  0  0  0
 11 12  1  0  0  0  0
 11  2  1  0  0  0  0
 11 25  1  6  0  0  0
 12 26  1  0  0  0  0
M  CHG  1   1   1
M  END
>  <UniqueID>
141

>  <SMILES>
[NH3+][C@H]1[C@H](O)O[C@H](CO)[C@@H](O)[C@@H]1O

>  <Energy>
21.746164718352674

>  <Genealogy>
[NH3+][C@H]1C(O)O[C@H](CO)[C@@H](O)[C@@H]1O (protonated)
[NH3+][C@H]1[C@H](O)O[C@H](CO)[C@@H](O)[C@@H]1O (chirality)
[NH3+][C@H]1[C@H](O)O[C@H](CO)[C@@H](O)[C@@H]1O (3D coordinates assigned)
[NH3+][C@H]1[C@H](O)O[C@H](CO)[C@@H](O)[C@@H]1O (nonaromatic ring conformer: 21.746164718352674 kcal/mol)

$$$$
439213
 OpenBabel03032110343D

 25 25  0  0  0  0  0  0  0  0999 V2000
   -2.9790   -0.1029    0.4979 N   0  0  0  0  0  0  0  0  0  0  0  0
   -1.6606   -0.2175   -0.1325 C   0  0  1  0  0  0  0  0  0  0  0  0
   -1.0710    1.1700   -0.4703 C   0  0  2  0  0  0  0  0  0  0  0  0
   -1.9177    1.8196   -1.3792 O   0  0  0  0  0  0  0  0  0  0  0  0
    0.2074    1.0231   -1.0653 O   0  0  0  0  0  0  0  0  0  0  0  0
    1.1364    0.4843   -0.1386 C   0  0  2  0  0  0  0  0  0  0  0  0
    2.5302    0.5330   -0.7874 C   0  0  0  0  0  0  0  0  0  0  0  0
    3.5329    0.1888    0.1310 O   0  0  0  0  0  0  0  0  0  0  0  0
    0.7368   -0.9642    0.2353 C   0  0  1  0  0  0  0  0  0  0  0  0
    1.6245   -1.4728    1.1980 O   0  0  0  0  0  0  0  0  0  0  0  0
   -0.6976   -0.9738    0.8034 C   0  0  2  0  0  0  0  0  0  0  0  0
   -1.1433   -2.2895    1.0234 O   0  0  0  0  0  0  0  0  0  0  0  0
   -3.6529    0.2950   -0.1956 H   0  0  0  0  0  0  0  0  0  0  0  0
   -2.9255    0.5636    1.3027 H   0  0  0  0  0  0  0  0  0  0  0  0
   -1.7664   -0.7939   -1.0798 H   0  0  0  0  0  0  0  0  0  0  0  0
   -1.0059    1.7888    0.4582 H   0  0  0  0  0  0  0  0  0  0  0  0
   -1.5617    2.7402   -1.4857 H   0  0  0  0  0  0  0  0  0  0  0  0
    1.1739    1.1150    0.7812 H   0  0  0  0  0  0  0  0  0  0  0  0
    2.7217    1.5550   -1.1877 H   0  0  0  0  0  0  0  0  0  0  0  0
    2.5722   -0.1704   -1.6464 H   0  0  0  0  0  0  0  0  0  0  0  0
    3.6467    0.9692    0.7341 H   0  0  0  0  0  0  0  0  0  0  0  0
    0.7734   -1.5886   -0.6896 H   0  0  0  0  0  0  0  0  0  0  0  0
    1.5562   -2.4624    1.1582 H   0  0  0  0  0  0  0  0  0  0  0  0
   -0.6819   -0.4528    1.7873 H   0  0  0  0  0  0  0  0  0  0  0  0
   -1.1488   -2.7569    0.1473 H   0  0  0  0  0  0  0  0  0  0  0  0
  1  2  1  0  0  0  0
  1 13  1  0  0  0  0
  1 14  1  0  0  0  0
  2  3  1  0  0  0  0
  2 15  1  6  0  0  0
  3  4  1  0  0  0  0
  3  5  1  0  0  0  0
  3 16  1  1  0  0  0
  4 17  1  0  0  0  0
  5  6  1  0  0  0  0
  6  7  1  0  0  0  0
  6  9  1  0  0  0  0
  6 18  1  1  0  0  0
  7  8  1  0  0  0  0
  7 19  1  0  0  0  0
  7 20  1  0  0  0  0
  8 21  1  0  0  0  0
  9 10  1  0  0  0  0
  9 11  1  0  0  0  0
  9 22  1  6  0  0  0
 10 23  1  0  0  0  0
 11 12  1  0  0  0  0
 11  2  1  0  0  0  0
 11 24  1  1  0  0  0
 12 25  1  0  0  0  0
M  END
>  <UniqueID>
142

>  <SMILES>
N[C@H]1[C@H](O)O[C@H](CO)[C@@H](O)[C@@H]1O

>  <Energy>
22.16745052044813

>  <Genealogy>
N[C@H]1[C@H](O)O[C@H](CO)[C@@H](O)[C@@H]1O (chirality)
N[C@H]1[C@H](O)O[C@H](CO)[C@@H](O)[C@@H]1O (3D coordinates assigned)
N[C@H]1[C@H](O)O[C@H](CO)[C@@H](O)[C@@H]1O (nonaromatic ring conformer: 22.16745052044813 kcal/mol)

$$$$
439174
 OpenBabel03032110343D

 30 30  0  0  0  0  0  0  0  0999 V2000
    2.1680    4.6545   -1.1341 H   0  0  0  0  0  0  0  0  0  0  0  0
    1.2219    4.6122   -1.4944 O   0  0  0  0  0  0  0  0  0  0  0  0
    0.5287    3.4066   -1.5559 C   0  0  0  0  0  0  0  0  0  0  0  0
    1.1188    2.3163   -1.1526 N   0  0  0  0  0  0  0  0  0  0  0  0
    0.5517    0.9632   -1.1228 C   0  0  1  0  0  0  0  0  0  0  0  0
   -0.2933    0.8701   -1.8403 H   0  0  0  0  0  0  0  0  0  0  0  0
    1.6272   -0.0482   -1.5574 C   0  0  1  0  0  0  0  0  0  0  0  0
    1.8720    0.1708   -2.6216 H   0  0  0  0  0  0  0  0  0  0  0  0
    2.7991    0.0984   -0.7931 O   0  0  0  0  0  0  0  0  0  0  0  0
    3.4760   -0.5013   -1.2023 H   0  0  0  0  0  0  0  0  0  0  0  0
    1.1335   -1.3779   -1.4952 O   0  0  0  0  0  0  0  0  0  0  0  0
    0.7820   -1.7486   -0.1700 C   0  0  2  0  0  0  0  0  0  0  0  0
    1.6676   -1.6642    0.5016 H   0  0  0  0  0  0  0  0  0  0  0  0
    0.3683   -3.2303   -0.1937 C   0  0  0  0  0  0  0  0  0  0  0  0
   -0.5819   -3.3483   -0.7573 H   0  0  0  0  0  0  0  0  0  0  0  0
    1.1441   -3.8275   -0.7258 H   0  0  0  0  0  0  0  0  0  0  0  0
    0.1922   -3.7327    1.1039 O   0  0  0  0  0  0  0  0  0  0  0  0
    1.0999   -3.8616    1.4850 H   0  0  0  0  0  0  0  0  0  0  0  0
   -0.3628   -0.8531    0.3641 C   0  0  1  0  0  0  0  0  0  0  0  0
   -1.2631   -1.0082   -0.2788 H   0  0  0  0  0  0  0  0  0  0  0  0
   -0.6500   -1.1936    1.6969 O   0  0  0  0  0  0  0  0  0  0  0  0
   -1.5969   -0.9454    1.8623 H   0  0  0  0  0  0  0  0  0  0  0  0
    0.0562    0.6267    0.2931 C   0  0  2  0  0  0  0  0  0  0  0  0
    0.8922    0.8051    1.0126 H   0  0  0  0  0  0  0  0  0  0  0  0
   -1.0363    1.4483    0.6151 O   0  0  0  0  0  0  0  0  0  0  0  0
   -1.0679    1.5154    1.6050 H   0  0  0  0  0  0  0  0  0  0  0  0
   -0.8651    3.4150   -2.1123 C   0  0  0  0  0  0  0  0  0  0  0  0
   -0.8961    2.8411   -3.0620 H   0  0  0  0  0  0  0  0  0  0  0  0
   -1.1812    4.4578   -2.3247 H   0  0  0  0  0  0  0  0  0  0  0  0
   -1.5796    2.9791   -1.3856 H   0  0  0  0  0  0  0  0  0  0  0  0
  1  2  1  0  0  0  0
  2  3  1  0  0  0  0
  3  4  2  0  0  0  0
  3 27  1  0  0  0  0
  4  5  1  0  0  0  0
  5  6  1  6  0  0  0
  5  7  1  0  0  0  0
  7  8  1  6  0  0  0
  7  9  1  0  0  0  0
  7 11  1  0  0  0  0
  9 10  1  0  0  0  0
 11 12  1  0  0  0  0
 12 13  1  1  0  0  0
 12 14  1  0  0  0  0
 12 19  1  0  0  0  0
 14 15  1  0  0  0  0
 14 16  1  0  0  0  0
 14 17  1  0  0  0  0
 17 18  1  0  0  0  0
 19 20  1  6  0  0  0
 19 21  1  0  0  0  0
 19 23  1  0  0  0  0
 21 22  1  0  0  0  0
 23 24  1  1  0  0  0
 23 25  1  0  0  0  0
 23  5  1  0  0  0  0
 25 26  1  0  0  0  0
 27 28  1  0  0  0  0
 27 29  1  0  0  0  0
 27 30  1  0  0  0  0
M  END
>  <UniqueID>
143

>  <SMILES>
C/C(O)=N/[C@H]1[C@@H](O)O[C@H](CO)[C@@H](O)[C@@H]1O

>  <Energy>
28.510578691744943

>  <Genealogy>
CC(O)=N[C@H]1C(O)O[C@H](CO)[C@@H](O)[C@@H]1O (tautomer)
CC(O)=N[C@H]1[C@@H](O)O[C@H](CO)[C@@H](O)[C@@H]1O (chirality)
C/C(O)=N/[C@H]1[C@@H](O)O[C@H](CO)[C@@H](O)[C@@H]1O (cis-trans isomerization)
C/C(O)=N/[C@H]1[C@@H](O)O[C@H](CO)[C@@H](O)[C@@H]1O (3D coordinates assigned)
C/C(O)=N/[C@H]1[C@@H](O)O[C@H](CO)[C@@H](O)[C@@H]1O (nonaromatic ring conformer: 28.510578691744943 kcal/mol)

$$$$
439174
 OpenBabel03032110343D

 30 30  0  0  0  0  0  0  0  0999 V2000
   -0.5147   -2.8618    0.4958 C   0  0  0  0  0  0  0  0  0  0  0  0
    0.5328   -1.8049    0.3655 C   0  0  0  0  0  0  0  0  0  0  0  0
    1.7249   -2.0657    0.6830 O   0  0  0  0  0  0  0  0  0  0  0  0
    0.1791   -0.5065   -0.1300 N   0  0  0  0  0  0  0  0  0  0  0  0
    1.1525    0.5900   -0.2212 C   0  0  1  0  0  0  0  0  0  0  0  0
    0.6800    1.6763   -1.2099 C   0  0  1  0  0  0  0  0  0  0  0  0
    0.4968    1.1198   -2.4869 O   0  0  0  0  0  0  0  0  0  0  0  0
   -0.5240    2.2927   -0.7746 O   0  0  0  0  0  0  0  0  0  0  0  0
   -0.3721    2.9691    0.4684 C   0  0  2  0  0  0  0  0  0  0  0  0
    0.4173    4.2904    0.3389 C   0  0  0  0  0  0  0  0  0  0  0  0
   -0.1432    5.0986   -0.6605 O   0  0  0  0  0  0  0  0  0  0  0  0
    0.1469    2.0436    1.6010 C   0  0  1  0  0  0  0  0  0  0  0  0
   -0.8917    1.1774    1.9854 O   0  0  0  0  0  0  0  0  0  0  0  0
    1.3785    1.2204    1.1671 C   0  0  2  0  0  0  0  0  0  0  0  0
    2.5147    2.0464    1.1476 O   0  0  0  0  0  0  0  0  0  0  0  0
   -0.0911   -3.7784    0.9587 H   0  0  0  0  0  0  0  0  0  0  0  0
   -0.9124   -3.1148   -0.5090 H   0  0  0  0  0  0  0  0  0  0  0  0
   -1.3427   -2.4873    1.1332 H   0  0  0  0  0  0  0  0  0  0  0  0
   -0.8180   -0.3379   -0.3954 H   0  0  0  0  0  0  0  0  0  0  0  0
    2.1163    0.1826   -0.6013 H   0  0  0  0  0  0  0  0  0  0  0  0
    1.4838    2.4341   -1.3214 H   0  0  0  0  0  0  0  0  0  0  0  0
   -0.3857    0.6662   -2.4965 H   0  0  0  0  0  0  0  0  0  0  0  0
   -1.3954    3.2811    0.7749 H   0  0  0  0  0  0  0  0  0  0  0  0
    1.4973    4.1233    0.1412 H   0  0  0  0  0  0  0  0  0  0  0  0
    0.3544    4.8415    1.3014 H   0  0  0  0  0  0  0  0  0  0  0  0
    0.2157    4.7717   -1.5263 H   0  0  0  0  0  0  0  0  0  0  0  0
    0.4257    2.6756    2.4775 H   0  0  0  0  0  0  0  0  0  0  0  0
   -0.6552    0.8191    2.8808 H   0  0  0  0  0  0  0  0  0  0  0  0
    1.5429    0.4132    1.9192 H   0  0  0  0  0  0  0  0  0  0  0  0
    3.3071    1.4480    1.1352 H   0  0  0  0  0  0  0  0  0  0  0  0
  1  2  1  0  0  0  0
  1 16  1  0  0  0  0
  1 17  1  0  0  0  0
  1 18  1  0  0  0  0
  2  3  2  0  0  0  0
  2  4  1  0  0  0  0
  4  5  1  0  0  0  0
  4 19  1  0  0  0  0
  5  6  1  0  0  0  0
  5 20  1  6  0  0  0
  6  7  1  0  0  0  0
  6  8  1  0  0  0  0
  6 21  1  6  0  0  0
  7 22  1  0  0  0  0
  8  9  1  0  0  0  0
  9 10  1  0  0  0  0
  9 12  1  0  0  0  0
  9 23  1  1  0  0  0
 10 11  1  0  0  0  0
 10 24  1  0  0  0  0
 10 25  1  0  0  0  0
 11 26  1  0  0  0  0
 12 13  1  0  0  0  0
 12 14  1  0  0  0  0
 12 27  1  1  0  0  0
 13 28  1  0  0  0  0
 14 15  1  0  0  0  0
 14  5  1  0  0  0  0
 14 29  1  1  0  0  0
 15 30  1  0  0  0  0
M  END
>  <UniqueID>
144

>  <SMILES>
CC(=O)N[C@H]1[C@@H](O)O[C@H](CO)[C@@H](O)[C@@H]1O

>  <Energy>
29.595072307756528

>  <Genealogy>
CC(=O)N[C@H]1[C@@H](O)O[C@H](CO)[C@@H](O)[C@@H]1O (chirality)
CC(=O)N[C@H]1[C@@H](O)O[C@H](CO)[C@@H](O)[C@@H]1O (3D coordinates assigned)
CC(=O)N[C@H]1[C@@H](O)O[C@H](CO)[C@@H](O)[C@@H]1O (nonaromatic ring conformer: 29.595072307756528 kcal/mol)

$$$$
433580
 OpenBabel03032110343D

 34 34  0  0  0  0  0  0  0  0999 V2000
    1.5037    1.6839    1.6781 C   0  0  0  0  0  0  0  0  0  0  0  0
    0.0048    1.6745    1.3701 C   0  0  2  0  0  0  0  0  0  0  0  0
   -0.2214    1.0842    0.1010 O   0  0  0  0  0  0  0  0  0  0  0  0
   -0.4787   -0.3086    0.2003 C   0  0  2  0  0  0  0  0  0  0  0  0
    0.0621   -1.0122   -1.0663 C   0  0  1  0  0  0  0  0  0  0  0  0
    1.5280   -0.9142   -1.1218 N   0  3  0  0  0  0  0  0  0  0  0  0
   -0.3950   -2.4951   -1.0842 C   0  0  2  0  0  0  0  0  0  0  0  0
    0.0012   -3.0934   -2.2914 O   0  0  0  0  0  0  0  0  0  0  0  0
   -1.8073   -2.5823   -1.0005 O   0  0  0  0  0  0  0  0  0  0  0  0
   -2.2670   -2.0742    0.2403 C   0  0  2  0  0  0  0  0  0  0  0  0
   -3.7594   -2.4054    0.4098 C   0  0  0  0  0  0  0  0  0  0  0  0
   -4.5217   -1.9139   -0.6609 O   0  0  0  0  0  0  0  0  0  0  0  0
   -1.9961   -0.5569    0.3338 C   0  0  2  0  0  0  0  0  0  0  0  0
   -2.6872    0.1207   -0.6866 O   0  0  0  0  0  0  0  0  0  0  0  0
   -0.5061    3.0834    1.3370 C   0  0  0  0  0  0  0  0  0  0  0  0
   -1.1238    3.5574    2.3269 O   0  0  0  0  0  0  0  0  0  0  0  0
   -0.2646    3.8886    0.2302 O   0  5  0  0  0  0  0  0  0  0  0  0
    1.6936    2.1844    2.6519 H   0  0  0  0  0  0  0  0  0  0  0  0
    1.8881    0.6444    1.7412 H   0  0  0  0  0  0  0  0  0  0  0  0
    2.0615    2.2188    0.8795 H   0  0  0  0  0  0  0  0  0  0  0  0
   -0.5288    1.1421    2.1938 H   0  0  0  0  0  0  0  0  0  0  0  0
    0.0357   -0.7726    1.0776 H   0  0  0  0  0  0  0  0  0  0  0  0
   -0.3630   -0.5054   -1.9633 H   0  0  0  0  0  0  0  0  0  0  0  0
    1.8232    0.0882   -1.0873 H   0  0  0  0  0  0  0  0  0  0  0  0
    1.9621   -1.4262   -0.3193 H   0  0  0  0  0  0  0  0  0  0  0  0
    1.8814   -1.3161   -2.0196 H   0  0  0  0  0  0  0  0  0  0  0  0
    0.0686   -3.0457   -0.2268 H   0  0  0  0  0  0  0  0  0  0  0  0
    0.8882   -3.5125   -2.1382 H   0  0  0  0  0  0  0  0  0  0  0  0
   -1.7451   -2.5830    1.0857 H   0  0  0  0  0  0  0  0  0  0  0  0
   -4.1362   -1.9553    1.3531 H   0  0  0  0  0  0  0  0  0  0  0  0
   -3.8885   -3.5086    0.4988 H   0  0  0  0  0  0  0  0  0  0  0  0
   -4.4166   -2.5591   -1.4080 H   0  0  0  0  0  0  0  0  0  0  0  0
   -2.3400   -0.1995    1.3329 H   0  0  0  0  0  0  0  0  0  0  0  0
   -2.8160    1.0554   -0.3777 H   0  0  0  0  0  0  0  0  0  0  0  0
  1  2  1  0  0  0  0
  1 18  1  0  0  0  0
  1 19  1  0  0  0  0
  1 20  1  0  0  0  0
  2  3  1  0  0  0  0
  2 15  1  0  0  0  0
  2 21  1  1  0  0  0
  3  4  1  0  0  0  0
  4  5  1  0  0  0  0
  4 22  1  1  0  0  0
  5  6  1  0  0  0  0
  5  7  1  0  0  0  0
  5 23  1  6  0  0  0
  6 24  1  0  0  0  0
  6 25  1  0  0  0  0
  6 26  1  0  0  0  0
  7  8  1  0  0  0  0
  7  9  1  0  0  0  0
  7 27  1  1  0  0  0
  8 28  1  0  0  0  0
  9 10  1  0  0  0  0
 10 11  1  0  0  0  0
 10 13  1  0  0  0  0
 10 29  1  1  0  0  0
 11 12  1  0  0  0  0
 11 30  1  0  0  0  0
 11 31  1  0  0  0  0
 12 32  1  0  0  0  0
 13 14  1  0  0  0  0
 13  4  1  0  0  0  0
 13 33  1  1  0  0  0
 14 34  1  0  0  0  0
 15 16  2  0  0  0  0
 15 17  1  0  0  0  0
M  CHG  2   6   1  17  -1
M  END
>  <UniqueID>
145

>  <SMILES>
C[C@H](O[C@@H]1[C@@H]([NH3+])[C@H](O)O[C@H](CO)[C@@H]1O)C(=O)[O-]

>  <Energy>
31.86131399089342

>  <Genealogy>
CC(OC1C([NH3+])C(O)OC(CO)C1O)C(=O)[O-] (protonated)
C[C@H](O[C@@H]1[C@@H]([NH3+])[C@H](O)O[C@H](CO)[C@@H]1O)C(=O)[O-] (chirality)
C[C@H](O[C@@H]1[C@@H]([NH3+])[C@H](O)O[C@H](CO)[C@@H]1O)C(=O)[O-] (3D coordinates assigned)
C[C@H](O[C@@H]1[C@@H]([NH3+])[C@H](O)O[C@H](CO)[C@@H]1O)C(=O)[O-] (nonaromatic ring conformer: 31.86131399089342 kcal/mol)

$$$$
433580
 OpenBabel03032110343D

 34 34  0  0  0  0  0  0  0  0999 V2000
    0.2039    2.6178   -1.2271 C   0  0  0  0  0  0  0  0  0  0  0  0
    0.1449    1.8003    0.0600 C   0  0  2  0  0  0  0  0  0  0  0  0
   -0.7535    0.7215   -0.1315 O   0  0  0  0  0  0  0  0  0  0  0  0
   -0.4363   -0.3867    0.6982 C   0  0  2  0  0  0  0  0  0  0  0  0
    0.4752   -1.3754   -0.0635 C   0  0  1  0  0  0  0  0  0  0  0  0
    1.0979   -2.3456    0.8506 N   0  3  0  0  0  0  0  0  0  0  0  0
   -0.3091   -2.1020   -1.1780 C   0  0  2  0  0  0  0  0  0  0  0  0
   -0.6020   -1.2229   -2.2324 O   0  0  0  0  0  0  0  0  0  0  0  0
   -1.4810   -2.7502   -0.6982 O   0  0  0  0  0  0  0  0  0  0  0  0
   -2.3924   -1.8874   -0.0247 C   0  0  2  0  0  0  0  0  0  0  0  0
   -3.2414   -1.0396   -0.9959 C   0  0  0  0  0  0  0  0  0  0  0  0
   -3.7256   -1.8493   -2.0318 O   0  0  0  0  0  0  0  0  0  0  0  0
   -1.7359   -1.0886    1.1305 C   0  0  2  0  0  0  0  0  0  0  0  0
   -2.6464   -0.1559    1.6565 O   0  0  0  0  0  0  0  0  0  0  0  0
   -0.3339    2.6701    1.1872 C   0  0  0  0  0  0  0  0  0  0  0  0
    0.4854    3.1229    2.0291 O   0  0  0  0  0  0  0  0  0  0  0  0
   -1.6783    3.0074    1.2871 O   0  5  0  0  0  0  0  0  0  0  0  0
    0.9001    3.4759   -1.1086 H   0  0  0  0  0  0  0  0  0  0  0  0
   -0.8050    3.0009   -1.4933 H   0  0  0  0  0  0  0  0  0  0  0  0
    0.5709    1.9788   -2.0584 H   0  0  0  0  0  0  0  0  0  0  0  0
    1.1845    1.4513    0.2692 H   0  0  0  0  0  0  0  0  0  0  0  0
    0.0748   -0.0634    1.6380 H   0  0  0  0  0  0  0  0  0  0  0  0
    1.2942   -0.7960   -0.5467 H   0  0  0  0  0  0  0  0  0  0  0  0
    1.5927   -1.8457    1.6247 H   0  0  0  0  0  0  0  0  0  0  0  0
    0.3870   -2.9953    1.2565 H   0  0  0  0  0  0  0  0  0  0  0  0
    1.8079   -2.9112    0.3309 H   0  0  0  0  0  0  0  0  0  0  0  0
    0.3616   -2.8943   -1.5819 H   0  0  0  0  0  0  0  0  0  0  0  0
   -0.9675   -1.7786   -2.9693 H   0  0  0  0  0  0  0  0  0  0  0  0
   -3.1264   -2.5609    0.4711 H   0  0  0  0  0  0  0  0  0  0  0  0
   -2.6617   -0.1949   -1.4194 H   0  0  0  0  0  0  0  0  0  0  0  0
   -4.1043   -0.6056   -0.4426 H   0  0  0  0  0  0  0  0  0  0  0  0
   -4.2583   -1.2548   -2.6217 H   0  0  0  0  0  0  0  0  0  0  0  0
   -1.4844   -1.8228    1.9313 H   0  0  0  0  0  0  0  0  0  0  0  0
   -2.2842    0.1384    2.5331 H   0  0  0  0  0  0  0  0  0  0  0  0
  1  2  1  0  0  0  0
  1 18  1  0  0  0  0
  1 19  1  0  0  0  0
  1 20  1  0  0  0  0
  2  3  1  0  0  0  0
  2 15  1  0  0  0  0
  2 21  1  1  0  0  0
  3  4  1  0  0  0  0
  4  5  1  0  0  0  0
  4 22  1  1  0  0  0
  5  6  1  0  0  0  0
  5  7  1  0  0  0  0
  5 23  1  6  0  0  0
  6 24  1  0  0  0  0
  6 25  1  0  0  0  0
  6 26  1  0  0  0  0
  7  8  1  0  0  0  0
  7  9  1  0  0  0  0
  7 27  1  6  0  0  0
  8 28  1  0  0  0  0
  9 10  1  0  0  0  0
 10 11  1  0  0  0  0
 10 13  1  0  0  0  0
 10 29  1  1  0  0  0
 11 12  1  0  0  0  0
 11 30  1  0  0  0  0
 11 31  1  0  0  0  0
 12 32  1  0  0  0  0
 13 14  1  0  0  0  0
 13  4  1  0  0  0  0
 13 33  1  1  0  0  0
 14 34  1  0  0  0  0
 15 16  2  0  0  0  0
 15 17  1  0  0  0  0
M  CHG  2   6   1  17  -1
M  END
>  <UniqueID>
146

>  <SMILES>
C[C@H](O[C@@H]1[C@@H]([NH3+])[C@H](O)O[C@H](CO)[C@@H]1O)C(=O)[O-]

>  <Energy>
38.30194084181695

>  <Genealogy>
CC(OC1C([NH3+])C(O)OC(CO)C1O)C(=O)[O-] (protonated)
C[C@H](O[C@@H]1[C@@H]([NH3+])[C@H](O)O[C@H](CO)[C@@H]1O)C(=O)[O-] (chirality)
C[C@H](O[C@@H]1[C@@H]([NH3+])[C@H](O)O[C@H](CO)[C@@H]1O)C(=O)[O-] (3D coordinates assigned)
C[C@H](O[C@@H]1[C@@H]([NH3+])[C@H](O)O[C@H](CO)[C@@H]1O)C(=O)[O-] (nonaromatic ring conformer: 38.30194084181695 kcal/mol)

$$$$
408523
 OpenBabel03032110343D

 45 45  0  0  0  0  0  0  0  0999 V2000
    2.3799   -4.3854   -0.0259 C   0  0  0  0  0  0  0  0  0  0  0  0
    1.2063   -3.7067    0.5937 C   0  0  0  0  0  0  0  0  0  0  0  0
    0.0715   -4.2540    0.5449 O   0  0  0  0  0  0  0  0  0  0  0  0
    1.3728   -2.4507    1.1868 O   0  0  0  0  0  0  0  0  0  0  0  0
    0.2917   -1.6630    1.6844 C   0  0  0  0  0  0  0  0  0  0  0  0
   -0.5283   -1.0322    0.5450 C   0  0  1  0  0  0  0  0  0  0  0  0
   -1.6090   -0.3256    1.1328 O   0  0  0  0  0  0  0  0  0  0  0  0
   -2.4834    0.1694    0.1340 C   0  0  1  0  0  0  0  0  0  0  0  0
   -3.6448    0.7174    0.7542 O   0  0  0  0  0  0  0  0  0  0  0  0
   -4.5482   -0.0529    1.4927 C   0  0  0  0  0  0  0  0  0  0  0  0
   -5.7424    0.5995    2.1012 C   0  0  0  0  0  0  0  0  0  0  0  0
   -4.3880   -1.2982    1.6114 O   0  0  0  0  0  0  0  0  0  0  0  0
   -1.7755    1.2603   -0.6920 C   0  0  1  0  0  0  0  0  0  0  0  0
   -1.3847    2.3836    0.1684 N   0  0  0  0  0  0  0  0  0  0  0  0
   -0.5361    0.6301   -1.3647 C   0  0  1  0  0  0  0  0  0  0  0  0
    0.2350    1.6203   -2.0471 O   0  0  0  0  0  0  0  0  0  0  0  0
   -0.1434    2.1905   -3.2672 C   0  0  0  0  0  0  0  0  0  0  0  0
    0.7037    3.2581   -3.8703 C   0  0  0  0  0  0  0  0  0  0  0  0
   -1.2063    1.8359   -3.8456 O   0  0  0  0  0  0  0  0  0  0  0  0
    0.3428   -0.0818   -0.3174 C   0  0  2  0  0  0  0  0  0  0  0  0
    1.3542   -0.8415   -0.9835 O   0  0  0  0  0  0  0  0  0  0  0  0
    2.5768   -0.3119   -1.4096 C   0  0  0  0  0  0  0  0  0  0  0  0
    3.5499   -1.1979   -2.1088 C   0  0  0  0  0  0  0  0  0  0  0  0
    2.8884    0.8839   -1.1586 O   0  0  0  0  0  0  0  0  0  0  0  0
    3.3225   -3.9497    0.3668 H   0  0  0  0  0  0  0  0  0  0  0  0
    2.3593   -5.4703    0.2091 H   0  0  0  0  0  0  0  0  0  0  0  0
    2.3477   -4.2464   -1.1265 H   0  0  0  0  0  0  0  0  0  0  0  0
   -0.3669   -2.2913    2.3236 H   0  0  0  0  0  0  0  0  0  0  0  0
    0.7079   -0.8579    2.3270 H   0  0  0  0  0  0  0  0  0  0  0  0
   -0.9156   -1.8613   -0.0917 H   0  0  0  0  0  0  0  0  0  0  0  0
   -2.8175   -0.6493   -0.5473 H   0  0  0  0  0  0  0  0  0  0  0  0
   -5.5249    1.6684    2.3077 H   0  0  0  0  0  0  0  0  0  0  0  0
   -6.0085    0.0971    3.0550 H   0  0  0  0  0  0  0  0  0  0  0  0
   -6.5988    0.5310    1.3989 H   0  0  0  0  0  0  0  0  0  0  0  0
   -2.4753    1.6237   -1.4779 H   0  0  0  0  0  0  0  0  0  0  0  0
   -0.9669    3.1326   -0.4295 H   0  0  0  0  0  0  0  0  0  0  0  0
   -2.2480    2.8088    0.5772 H   0  0  0  0  0  0  0  0  0  0  0  0
   -0.8760   -0.1341   -2.1014 H   0  0  0  0  0  0  0  0  0  0  0  0
    0.7408    3.1369   -4.9734 H   0  0  0  0  0  0  0  0  0  0  0  0
    0.2765    4.2522   -3.6237 H   0  0  0  0  0  0  0  0  0  0  0  0
    1.7365    3.1953   -3.4677 H   0  0  0  0  0  0  0  0  0  0  0  0
    0.8102    0.6744    0.3538 H   0  0  0  0  0  0  0  0  0  0  0  0
    4.1659   -0.6068   -2.8190 H   0  0  0  0  0  0  0  0  0  0  0  0
    3.0056   -1.9834   -2.6737 H   0  0  0  0  0  0  0  0  0  0  0  0
    4.2122   -1.6810   -1.3608 H   0  0  0  0  0  0  0  0  0  0  0  0
  1  2  1  0  0  0  0
  1 25  1  0  0  0  0
  1 26  1  0  0  0  0
  1 27  1  0  0  0  0
  2  3  2  0  0  0  0
  2  4  1  0  0  0  0
  4  5  1  0  0  0  0
  5  6  1  0  0  0  0
  5 28  1  0  0  0  0
  5 29  1  0  0  0  0
  6  7  1  0  0  0  0
  6 30  1  6  0  0  0
  7  8  1  0  0  0  0
  8  9  1  0  0  0  0
  8 13  1  0  0  0  0
  8 31  1  6  0  0  0
  9 10  1  0  0  0  0
 10 11  1  0  0  0  0
 10 12  2  0  0  0  0
 11 32  1  0  0  0  0
 11 33  1  0  0  0  0
 11 34  1  0  0  0  0
 13 14  1  0  0  0  0
 13 15  1  0  0  0  0
 13 35  1  6  0  0  0
 14 36  1  0  0  0  0
 14 37  1  0  0  0  0
 15 16  1  0  0  0  0
 15 20  1  0  0  0  0
 15 38  1  6  0  0  0
 16 17  1  0  0  0  0
 17 18  1  0  0  0  0
 17 19  2  0  0  0  0
 18 39  1  0  0  0  0
 18 40  1  0  0  0  0
 18 41  1  0  0  0  0
 20 21  1  0  0  0  0
 20  6  1  0  0  0  0
 20 42  1  1  0  0  0
 21 22  1  0  0  0  0
 22 23  1  0  0  0  0
 22 24  2  0  0  0  0
 23 43  1  0  0  0  0
 23 44  1  0  0  0  0
 23 45  1  0  0  0  0
M  END
>  <UniqueID>
147

>  <SMILES>
CC(=O)OC[C@H]1O[C@@H](OC(C)=O)[C@@H](N)[C@@H](OC(C)=O)[C@@H]1OC(C)=O

>  <Energy>
28.09345294530666

>  <Genealogy>
CC(=O)OC[C@H]1O[C@@H](OC(C)=O)[C@@H](N)[C@@H](OC(C)=O)[C@@H]1OC(C)=O (chirality)
CC(=O)OC[C@H]1O[C@@H](OC(C)=O)[C@@H](N)[C@@H](OC(C)=O)[C@@H]1OC(C)=O (3D coordinates assigned)
CC(=O)OC[C@H]1O[C@@H](OC(C)=O)[C@@H](N)[C@@H](OC(C)=O)[C@@H]1OC(C)=O (nonaromatic ring conformer: 28.09345294530666 kcal/mol)

$$$$
408523
 OpenBabel03032110343D

 45 45  0  0  0  0  0  0  0  0999 V2000
    1.9364   -0.5333    2.7340 C   0  0  0  0  0  0  0  0  0  0  0  0
    0.9685   -1.3655    1.9649 C   0  0  0  0  0  0  0  0  0  0  0  0
   -0.1341   -1.6833    2.4877 O   0  0  0  0  0  0  0  0  0  0  0  0
    1.3225   -1.8318    0.6941 O   0  0  0  0  0  0  0  0  0  0  0  0
    0.4286   -2.5294   -0.1746 C   0  0  0  0  0  0  0  0  0  0  0  0
   -0.5258   -1.5652   -0.8988 C   0  0  1  0  0  0  0  0  0  0  0  0
   -1.3962   -0.9847    0.0545 O   0  0  0  0  0  0  0  0  0  0  0  0
   -2.4857   -0.3230   -0.5748 C   0  0  1  0  0  0  0  0  0  0  0  0
   -3.1920    0.4169    0.4213 O   0  0  0  0  0  0  0  0  0  0  0  0
   -3.8261   -0.1843    1.5131 C   0  0  0  0  0  0  0  0  0  0  0  0
   -4.5350    0.6674    2.5100 C   0  0  0  0  0  0  0  0  0  0  0  0
   -3.8409   -1.4389    1.6404 O   0  0  0  0  0  0  0  0  0  0  0  0
   -2.0248    0.6289   -1.7232 C   0  0  1  0  0  0  0  0  0  0  0  0
   -2.7626    1.8953   -1.7077 N   0  0  0  0  0  0  0  0  0  0  0  0
   -0.5114    0.8854   -1.6246 C   0  0  1  0  0  0  0  0  0  0  0  0
   -0.2286    1.5594   -0.3942 O   0  0  0  0  0  0  0  0  0  0  0  0
    0.9819    2.2061   -0.1236 C   0  0  0  0  0  0  0  0  0  0  0  0
    1.1944    2.8332    1.2115 C   0  0  0  0  0  0  0  0  0  0  0  0
    1.8761    2.3011   -1.0075 O   0  0  0  0  0  0  0  0  0  0  0  0
    0.2423   -0.4624   -1.6912 C   0  0  2  0  0  0  0  0  0  0  0  0
    0.3608   -0.8484   -3.0631 O   0  0  0  0  0  0  0  0  0  0  0  0
    1.4031   -1.6343   -3.5672 C   0  0  0  0  0  0  0  0  0  0  0  0
    1.3576   -2.0902   -4.9855 C   0  0  0  0  0  0  0  0  0  0  0  0
    2.3738   -1.9716   -2.8369 O   0  0  0  0  0  0  0  0  0  0  0  0
    1.3928    0.2186    3.3442 H   0  0  0  0  0  0  0  0  0  0  0  0
    2.5361   -1.1852    3.4023 H   0  0  0  0  0  0  0  0  0  0  0  0
    2.6162   -0.0023    2.0351 H   0  0  0  0  0  0  0  0  0  0  0  0
   -0.1524   -3.2858    0.3973 H   0  0  0  0  0  0  0  0  0  0  0  0
    1.0271   -3.0841   -0.9255 H   0  0  0  0  0  0  0  0  0  0  0  0
   -1.1183   -2.1873   -1.6117 H   0  0  0  0  0  0  0  0  0  0  0  0
   -3.1836   -1.0805   -1.0002 H   0  0  0  0  0  0  0  0  0  0  0  0
   -4.1069    1.6917    2.5053 H   0  0  0  0  0  0  0  0  0  0  0  0
   -4.4233    0.2369    3.5275 H   0  0  0  0  0  0  0  0  0  0  0  0
   -5.6126    0.7215    2.2503 H   0  0  0  0  0  0  0  0  0  0  0  0
   -2.2209    0.1209   -2.6967 H   0  0  0  0  0  0  0  0  0  0  0  0
   -2.4578    2.4657   -2.5300 H   0  0  0  0  0  0  0  0  0  0  0  0
   -3.7747    1.6831   -1.8666 H   0  0  0  0  0  0  0  0  0  0  0  0
   -0.1971    1.5312   -2.4759 H   0  0  0  0  0  0  0  0  0  0  0  0
    2.2409    2.6714    1.5452 H   0  0  0  0  0  0  0  0  0  0  0  0
    0.5068    2.3805    1.9565 H   0  0  0  0  0  0  0  0  0  0  0  0
    0.9935    3.9225    1.1452 H   0  0  0  0  0  0  0  0  0  0  0  0
    1.2582   -0.2971   -1.2716 H   0  0  0  0  0  0  0  0  0  0  0  0
    0.5988   -1.5079   -5.5492 H   0  0  0  0  0  0  0  0  0  0  0  0
    1.0887   -3.1664   -5.0198 H   0  0  0  0  0  0  0  0  0  0  0  0
    2.3497   -1.9436   -5.4620 H   0  0  0  0  0  0  0  0  0  0  0  0
  1  2  1  0  0  0  0
  1 25  1  0  0  0  0
  1 26  1  0  0  0  0
  1 27  1  0  0  0  0
  2  3  2  0  0  0  0
  2  4  1  0  0  0  0
  4  5  1  0  0  0  0
  5  6  1  0  0  0  0
  5 28  1  0  0  0  0
  5 29  1  0  0  0  0
  6  7  1  0  0  0  0
  6 30  1  6  0  0  0
  7  8  1  0  0  0  0
  8  9  1  0  0  0  0
  8 13  1  0  0  0  0
  8 31  1  6  0  0  0
  9 10  1  0  0  0  0
 10 11  1  0  0  0  0
 10 12  2  0  0  0  0
 11 32  1  0  0  0  0
 11 33  1  0  0  0  0
 11 34  1  0  0  0  0
 13 14  1  0  0  0  0
 13 15  1  0  0  0  0
 13 35  1  6  0  0  0
 14 36  1  0  0  0  0
 14 37  1  0  0  0  0
 15 16  1  0  0  0  0
 15 20  1  0  0  0  0
 15 38  1  6  0  0  0
 16 17  1  0  0  0  0
 17 18  1  0  0  0  0
 17 19  2  0  0  0  0
 18 39  1  0  0  0  0
 18 40  1  0  0  0  0
 18 41  1  0  0  0  0
 20 21  1  0  0  0  0
 20  6  1  0  0  0  0
 20 42  1  1  0  0  0
 21 22  1  0  0  0  0
 22 23  1  0  0  0  0
 22 24  2  0  0  0  0
 23 43  1  0  0  0  0
 23 44  1  0  0  0  0
 23 45  1  0  0  0  0
M  END
>  <UniqueID>
148

>  <SMILES>
CC(=O)OC[C@H]1O[C@@H](OC(C)=O)[C@@H](N)[C@@H](OC(C)=O)[C@@H]1OC(C)=O

>  <Energy>
36.67142143097192

>  <Genealogy>
CC(=O)OC[C@H]1O[C@@H](OC(C)=O)[C@@H](N)[C@@H](OC(C)=O)[C@@H]1OC(C)=O (chirality)
CC(=O)OC[C@H]1O[C@@H](OC(C)=O)[C@@H](N)[C@@H](OC(C)=O)[C@@H]1OC(C)=O (3D coordinates assigned)
CC(=O)OC[C@H]1O[C@@H](OC(C)=O)[C@@H](N)[C@@H](OC(C)=O)[C@@H]1OC(C)=O (nonaromatic ring conformer: 36.67142143097192 kcal/mol)

$$$$
312829
 OpenBabel03032110343D

 50 50  0  0  0  0  0  0  0  0999 V2000
   -1.8697   -3.2846    4.5280 C   0  0  0  0  0  0  0  0  0  0  0  0
   -2.1731   -2.7389    3.1712 C   0  0  0  0  0  0  0  0  0  0  0  0
   -3.0452   -3.3000    2.4542 O   0  0  0  0  0  0  0  0  0  0  0  0
   -1.4916   -1.5669    2.7042 N   0  0  0  0  0  0  0  0  0  0  0  0
   -1.6745   -1.0406    1.3447 C   0  0  1  0  0  0  0  0  0  0  0  0
   -1.1258    0.3981    1.2362 C   0  0  1  0  0  0  0  0  0  0  0  0
   -1.7427    1.2100    2.2331 O   0  0  0  0  0  0  0  0  0  0  0  0
   -1.5286    2.5882    2.3318 C   0  0  0  0  0  0  0  0  0  0  0  0
   -2.2199    3.3644    3.4002 C   0  0  0  0  0  0  0  0  0  0  0  0
   -0.7910    3.1876    1.5028 O   0  0  0  0  0  0  0  0  0  0  0  0
    0.2801    0.4129    1.4255 O   0  0  0  0  0  0  0  0  0  0  0  0
    0.9275   -0.2762    0.3692 C   0  0  1  0  0  0  0  0  0  0  0  0
    2.4408   -0.0395    0.4873 C   0  0  0  0  0  0  0  0  0  0  0  0
    3.1567   -0.7300   -0.5363 O   0  0  0  0  0  0  0  0  0  0  0  0
    3.1900   -0.3137   -1.8714 C   0  0  0  0  0  0  0  0  0  0  0  0
    3.8746   -1.1627   -2.8873 C   0  0  0  0  0  0  0  0  0  0  0  0
    2.6232    0.7536   -2.2310 O   0  0  0  0  0  0  0  0  0  0  0  0
    0.5658   -1.7830    0.4079 C   0  0  1  0  0  0  0  0  0  0  0  0
    1.0191   -2.3795    1.6274 O   0  0  0  0  0  0  0  0  0  0  0  0
    2.1799   -3.1518    1.7453 C   0  0  0  0  0  0  0  0  0  0  0  0
    2.5548   -3.7034    3.0779 C   0  0  0  0  0  0  0  0  0  0  0  0
    2.8841   -3.4261    0.7360 O   0  0  0  0  0  0  0  0  0  0  0  0
   -0.9615   -1.9481    0.3124 C   0  0  2  0  0  0  0  0  0  0  0  0
   -1.3836   -1.6160   -1.0129 O   0  0  0  0  0  0  0  0  0  0  0  0
   -2.6295   -1.9734   -1.5395 C   0  0  0  0  0  0  0  0  0  0  0  0
   -2.9893   -1.5450   -2.9210 C   0  0  0  0  0  0  0  0  0  0  0  0
   -3.4278   -2.6935   -0.8802 O   0  0  0  0  0  0  0  0  0  0  0  0
   -0.7707   -3.3728    4.6578 H   0  0  0  0  0  0  0  0  0  0  0  0
   -2.2763   -2.6001    5.3010 H   0  0  0  0  0  0  0  0  0  0  0  0
   -2.3254   -4.2894    4.6556 H   0  0  0  0  0  0  0  0  0  0  0  0
   -0.8462   -1.0782    3.3663 H   0  0  0  0  0  0  0  0  0  0  0  0
   -2.7638   -1.0050    1.1237 H   0  0  0  0  0  0  0  0  0  0  0  0
   -1.3971    0.8195    0.2391 H   0  0  0  0  0  0  0  0  0  0  0  0
   -3.1278    3.8446    2.9798 H   0  0  0  0  0  0  0  0  0  0  0  0
   -1.5420    4.1474    3.8008 H   0  0  0  0  0  0  0  0  0  0  0  0
   -2.5160    2.6882    4.2294 H   0  0  0  0  0  0  0  0  0  0  0  0
    0.6144    0.1472   -0.6134 H   0  0  0  0  0  0  0  0  0  0  0  0
    2.8001   -0.3945    1.4759 H   0  0  0  0  0  0  0  0  0  0  0  0
    2.6593    1.0495    0.4317 H   0  0  0  0  0  0  0  0  0  0  0  0
    4.5714   -1.8673   -2.3870 H   0  0  0  0  0  0  0  0  0  0  0  0
    3.1176   -1.7414   -3.4562 H   0  0  0  0  0  0  0  0  0  0  0  0
    4.4523   -0.5241   -3.5881 H   0  0  0  0  0  0  0  0  0  0  0  0
    1.0155   -2.3009   -0.4688 H   0  0  0  0  0  0  0  0  0  0  0  0
    3.6598   -3.7236    3.1860 H   0  0  0  0  0  0  0  0  0  0  0  0
    2.1564   -4.7345    3.1763 H   0  0  0  0  0  0  0  0  0  0  0  0
    2.1270   -3.0696    3.8830 H   0  0  0  0  0  0  0  0  0  0  0  0
   -1.2054   -3.0166    0.5049 H   0  0  0  0  0  0  0  0  0  0  0  0
   -2.6482   -2.3120   -3.6461 H   0  0  0  0  0  0  0  0  0  0  0  0
   -4.0887   -1.4186   -3.0097 H   0  0  0  0  0  0  0  0  0  0  0  0
   -2.4984   -0.5770   -3.1547 H   0  0  0  0  0  0  0  0  0  0  0  0
  1  2  1  0  0  0  0
  1 28  1  0  0  0  0
  1 29  1  0  0  0  0
  1 30  1  0  0  0  0
  2  3  2  0  0  0  0
  2  4  1  0  0  0  0
  4  5  1  0  0  0  0
  4 31  1  0  0  0  0
  5  6  1  0  0  0  0
  5 32  1  6  0  0  0
  6  7  1  0  0  0  0
  6 11  1  0  0  0  0
  6 33  1  6  0  0  0
  7  8  1  0  0  0  0
  8  9  1  0  0  0  0
  8 10  2  0  0  0  0
  9 34  1  0  0  0  0
  9 35  1  0  0  0  0
  9 36  1  0  0  0  0
 11 12  1  0  0  0  0
 12 13  1  0  0  0  0
 12 18  1  0  0  0  0
 12 37  1  6  0  0  0
 13 14  1  0  0  0  0
 13 38  1  0  0  0  0
 13 39  1  0  0  0  0
 14 15  1  0  0  0  0
 15 16  1  0  0  0  0
 15 17  2  0  0  0  0
 16 40  1  0  0  0  0
 16 41  1  0  0  0  0
 16 42  1  0  0  0  0
 18 19  1  0  0  0  0
 18 23  1  0  0  0  0
 18 43  1  6  0  0  0
 19 20  1  0  0  0  0
 20 21  1  0  0  0  0
 20 22  2  0  0  0  0
 21 44  1  0  0  0  0
 21 45  1  0  0  0  0
 21 46  1  0  0  0  0
 23 24  1  0  0  0  0
 23  5  1  0  0  0  0
 23 47  1  1  0  0  0
 24 25  1  0  0  0  0
 25 26  1  0  0  0  0
 25 27  2  0  0  0  0
 26 48  1  0  0  0  0
 26 49  1  0  0  0  0
 26 50  1  0  0  0  0
M  END
>  <UniqueID>
149

>  <SMILES>
CC(=O)N[C@H]1[C@@H](OC(C)=O)O[C@@H](COC(C)=O)[C@@H](OC(C)=O)[C@@H]1OC(C)=O

>  <Energy>
31.140350117020542

>  <Genealogy>
CC(=O)N[C@H]1[C@@H](OC(C)=O)O[C@@H](COC(C)=O)[C@@H](OC(C)=O)[C@@H]1OC(C)=O (chirality)
CC(=O)N[C@H]1[C@@H](OC(C)=O)O[C@@H](COC(C)=O)[C@@H](OC(C)=O)[C@@H]1OC(C)=O (3D coordinates assigned)
CC(=O)N[C@H]1[C@@H](OC(C)=O)O[C@@H](COC(C)=O)[C@@H](OC(C)=O)[C@@H]1OC(C)=O (nonaromatic ring conformer: 31.140350117020542 kcal/mol)

$$$$
312829
 OpenBabel03032110343D

 50 50  0  0  0  0  0  0  0  0999 V2000
   -0.9212    4.6204    2.7304 C   0  0  0  0  0  0  0  0  0  0  0  0
   -0.0289    3.8560    1.8084 C   0  0  0  0  0  0  0  0  0  0  0  0
    0.9947    4.4152    1.3297 O   0  0  0  0  0  0  0  0  0  0  0  0
   -0.3688    2.5123    1.4374 N   0  0  0  0  0  0  0  0  0  0  0  0
    0.3887    1.7416    0.4457 C   0  0  2  0  0  0  0  0  0  0  0  0
   -0.3897    1.6611   -0.8821 C   0  0  1  0  0  0  0  0  0  0  0  0
   -0.5777    2.9777   -1.4046 O   0  0  0  0  0  0  0  0  0  0  0  0
   -1.6841    3.7864   -1.1156 C   0  0  0  0  0  0  0  0  0  0  0  0
   -1.7100    5.1944   -1.6032 C   0  0  0  0  0  0  0  0  0  0  0  0
   -2.6423    3.3518   -0.4204 O   0  0  0  0  0  0  0  0  0  0  0  0
    0.3268    0.9118   -1.8534 O   0  0  0  0  0  0  0  0  0  0  0  0
    0.5880   -0.4278   -1.4502 C   0  0  2  0  0  0  0  0  0  0  0  0
   -0.6688   -1.3280   -1.5152 C   0  0  0  0  0  0  0  0  0  0  0  0
   -1.1530   -1.4099   -2.8560 O   0  0  0  0  0  0  0  0  0  0  0  0
   -2.0986   -0.5378   -3.4064 C   0  0  0  0  0  0  0  0  0  0  0  0
   -2.4234   -0.6289   -4.8583 C   0  0  0  0  0  0  0  0  0  0  0  0
   -2.6816    0.3228   -2.6946 O   0  0  0  0  0  0  0  0  0  0  0  0
    1.3557   -0.4934   -0.1026 C   0  0  2  0  0  0  0  0  0  0  0  0
    1.5117   -1.8429    0.3400 O   0  0  0  0  0  0  0  0  0  0  0  0
    2.4290   -2.7395   -0.2181 C   0  0  0  0  0  0  0  0  0  0  0  0
    2.4965   -4.1331    0.3057 C   0  0  0  0  0  0  0  0  0  0  0  0
    3.2297   -2.3695   -1.1195 O   0  0  0  0  0  0  0  0  0  0  0  0
    0.6397    0.3265    0.9775 C   0  0  1  0  0  0  0  0  0  0  0  0
    1.4508    0.4103    2.1518 O   0  0  0  0  0  0  0  0  0  0  0  0
    1.4846   -0.5751    3.1451 C   0  0  0  0  0  0  0  0  0  0  0  0
    2.4107   -0.4136    4.3017 C   0  0  0  0  0  0  0  0  0  0  0  0
    0.7051   -1.5656    3.1022 O   0  0  0  0  0  0  0  0  0  0  0  0
   -1.1976    3.9854    3.5990 H   0  0  0  0  0  0  0  0  0  0  0  0
   -1.8418    4.9192    2.1867 H   0  0  0  0  0  0  0  0  0  0  0  0
   -0.4078    5.5323    3.1026 H   0  0  0  0  0  0  0  0  0  0  0  0
   -1.2558    2.1046    1.8123 H   0  0  0  0  0  0  0  0  0  0  0  0
    1.3728    2.2242    0.2505 H   0  0  0  0  0  0  0  0  0  0  0  0
   -1.3836    1.2014   -0.7019 H   0  0  0  0  0  0  0  0  0  0  0  0
   -0.9754    5.3262   -2.4249 H   0  0  0  0  0  0  0  0  0  0  0  0
   -2.7227    5.4462   -1.9824 H   0  0  0  0  0  0  0  0  0  0  0  0
   -1.4492    5.8781   -0.7686 H   0  0  0  0  0  0  0  0  0  0  0  0
    1.2845   -0.8436   -2.2101 H   0  0  0  0  0  0  0  0  0  0  0  0
   -0.3886   -2.3574   -1.2100 H   0  0  0  0  0  0  0  0  0  0  0  0
   -1.4692   -1.0056   -0.8183 H   0  0  0  0  0  0  0  0  0  0  0  0
   -3.5229   -0.7087   -4.9932 H   0  0  0  0  0  0  0  0  0  0  0  0
   -1.9400   -1.5239   -5.3038 H   0  0  0  0  0  0  0  0  0  0  0  0
   -2.0543    0.2797   -5.3787 H   0  0  0  0  0  0  0  0  0  0  0  0
    2.3643   -0.0430   -0.2505 H   0  0  0  0  0  0  0  0  0  0  0  0
    2.9359   -4.8118   -0.4553 H   0  0  0  0  0  0  0  0  0  0  0  0
    3.1243   -4.1530    1.2200 H   0  0  0  0  0  0  0  0  0  0  0  0
    1.4756   -4.4884    0.5567 H   0  0  0  0  0  0  0  0  0  0  0  0
   -0.3388   -0.1454    1.2248 H   0  0  0  0  0  0  0  0  0  0  0  0
    1.9340    0.2326    5.0681 H   0  0  0  0  0  0  0  0  0  0  0  0
    2.6434   -1.4028    4.7500 H   0  0  0  0  0  0  0  0  0  0  0  0
    3.3570    0.0586    3.9626 H   0  0  0  0  0  0  0  0  0  0  0  0
  1  2  1  0  0  0  0
  1 28  1  0  0  0  0
  1 29  1  0  0  0  0
  1 30  1  0  0  0  0
  2  3  2  0  0  0  0
  2  4  1  0  0  0  0
  4  5  1  0  0  0  0
  4 31  1  0  0  0  0
  5  6  1  0  0  0  0
  5 32  1  6  0  0  0
  6  7  1  0  0  0  0
  6 11  1  0  0  0  0
  6 33  1  1  0  0  0
  7  8  1  0  0  0  0
  8  9  1  0  0  0  0
  8 10  2  0  0  0  0
  9 34  1  0  0  0  0
  9 35  1  0  0  0  0
  9 36  1  0  0  0  0
 11 12  1  0  0  0  0
 12 13  1  0  0  0  0
 12 18  1  0  0  0  0
 12 37  1  6  0  0  0
 13 14  1  0  0  0  0
 13 38  1  0  0  0  0
 13 39  1  0  0  0  0
 14 15  1  0  0  0  0
 15 16  1  0  0  0  0
 15 17  2  0  0  0  0
 16 40  1  0  0  0  0
 16 41  1  0  0  0  0
 16 42  1  0  0  0  0
 18 19  1  0  0  0  0
 18 23  1  0  0  0  0
 18 43  1  6  0  0  0
 19 20  1  0  0  0  0
 20 21  1  0  0  0  0
 20 22  2  0  0  0  0
 21 44  1  0  0  0  0
 21 45  1  0  0  0  0
 21 46  1  0  0  0  0
 23 24  1  0  0  0  0
 23  5  1  0  0  0  0
 23 47  1  1  0  0  0
 24 25  1  0  0  0  0
 25 26  1  0  0  0  0
 25 27  2  0  0  0  0
 26 48  1  0  0  0  0
 26 49  1  0  0  0  0
 26 50  1  0  0  0  0
M  END
>  <UniqueID>
150

>  <SMILES>
CC(=O)N[C@H]1[C@H](OC(C)=O)[C@@H](OC(C)=O)[C@@H](COC(C)=O)O[C@@H]1OC(C)=O

>  <Energy>
36.39276908032853

>  <Genealogy>
CC(=O)N[C@H]1[C@H](OC(C)=O)[C@@H](OC(C)=O)[C@@H](COC(C)=O)O[C@@H]1OC(C)=O (chirality)
CC(=O)N[C@H]1[C@H](OC(C)=O)[C@@H](OC(C)=O)[C@@H](COC(C)=O)O[C@@H]1OC(C)=O (3D coordinates assigned)
CC(=O)N[C@H]1[C@H](OC(C)=O)[C@@H](OC(C)=O)[C@@H](COC(C)=O)O[C@@H]1OC(C)=O (nonaromatic ring conformer: 36.39276908032853 kcal/mol)

$$$$
254124
 OpenBabel03032110343D

 33 33  0  0  0  0  0  0  0  0999 V2000
   -1.3706    2.6854    1.9700 C   0  0  0  0  0  0  0  0  0  0  0  0
   -0.2578    2.1775    1.2660 O   0  0  0  0  0  0  0  0  0  0  0  0
   -0.6751    1.1894    0.3424 C   0  0  2  0  0  0  0  0  0  0  0  0
   -1.0076   -0.0006    1.0414 O   0  0  0  0  0  0  0  0  0  0  0  0
   -1.5427   -0.9699    0.1549 C   0  0  2  0  0  0  0  0  0  0  0  0
   -2.0349   -2.1651    0.9841 C   0  0  0  0  0  0  0  0  0  0  0  0
   -2.9920   -1.7499    1.9211 O   0  0  0  0  0  0  0  0  0  0  0  0
   -0.4680   -1.4166   -0.8637 C   0  0  1  0  0  0  0  0  0  0  0  0
   -1.0152   -2.3487   -1.7612 O   0  0  0  0  0  0  0  0  0  0  0  0
    0.0765   -0.1924   -1.6320 C   0  0  1  0  0  0  0  0  0  0  0  0
   -0.9008    0.3087   -2.5109 O   0  0  0  0  0  0  0  0  0  0  0  0
    0.4834    0.9185   -0.6436 C   0  0  2  0  0  0  0  0  0  0  0  0
    1.7050    0.5366    0.0785 N   0  0  0  0  0  0  0  0  0  0  0  0
    3.0045    0.5998   -0.5251 C   0  0  0  0  0  0  0  0  0  0  0  0
    4.2071    0.1708    0.2502 C   0  0  0  0  0  0  0  0  0  0  0  0
    3.1447    1.0438   -1.6968 O   0  0  0  0  0  0  0  0  0  0  0  0
   -2.0604    3.2291    1.2875 H   0  0  0  0  0  0  0  0  0  0  0  0
   -1.0081    3.4113    2.7264 H   0  0  0  0  0  0  0  0  0  0  0  0
   -1.9148    1.8805    2.5120 H   0  0  0  0  0  0  0  0  0  0  0  0
   -1.5486    1.5644   -0.2487 H   0  0  0  0  0  0  0  0  0  0  0  0
   -2.4255   -0.5586   -0.3894 H   0  0  0  0  0  0  0  0  0  0  0  0
   -2.4676   -2.9501    0.3228 H   0  0  0  0  0  0  0  0  0  0  0  0
   -1.1798   -2.6161    1.5320 H   0  0  0  0  0  0  0  0  0  0  0  0
   -3.8332   -1.5927    1.4176 H   0  0  0  0  0  0  0  0  0  0  0  0
    0.3733   -1.8894   -0.3029 H   0  0  0  0  0  0  0  0  0  0  0  0
   -0.2508   -2.7855   -2.2201 H   0  0  0  0  0  0  0  0  0  0  0  0
    0.9752   -0.5020   -2.2157 H   0  0  0  0  0  0  0  0  0  0  0  0
   -0.8647   -0.2454   -3.3339 H   0  0  0  0  0  0  0  0  0  0  0  0
    0.6784    1.8577   -1.2087 H   0  0  0  0  0  0  0  0  0  0  0  0
    1.6408    0.2238    1.0742 H   0  0  0  0  0  0  0  0  0  0  0  0
    4.4160    0.9129    1.0485 H   0  0  0  0  0  0  0  0  0  0  0  0
    4.0200   -0.8209    0.7124 H   0  0  0  0  0  0  0  0  0  0  0  0
    5.0933    0.0936   -0.4151 H   0  0  0  0  0  0  0  0  0  0  0  0
  1  2  1  0  0  0  0
  1 17  1  0  0  0  0
  1 18  1  0  0  0  0
  1 19  1  0  0  0  0
  2  3  1  0  0  0  0
  3  4  1  0  0  0  0
  3 20  1  6  0  0  0
  4  5  1  0  0  0  0
  5  6  1  0  0  0  0
  5  8  1  0  0  0  0
  5 21  1  6  0  0  0
  6  7  1  0  0  0  0
  6 22  1  0  0  0  0
  6 23  1  0  0  0  0
  7 24  1  0  0  0  0
  8  9  1  0  0  0  0
  8 10  1  0  0  0  0
  8 25  1  1  0  0  0
  9 26  1  0  0  0  0
 10 11  1  0  0  0  0
 10 12  1  0  0  0  0
 10 27  1  6  0  0  0
 11 28  1  0  0  0  0
 12 13  1  0  0  0  0
 12  3  1  0  0  0  0
 12 29  1  6  0  0  0
 13 14  1  0  0  0  0
 13 30  1  0  0  0  0
 14 15  1  0  0  0  0
 14 16  2  0  0  0  0
 15 31  1  0  0  0  0
 15 32  1  0  0  0  0
 15 33  1  0  0  0  0
M  END
>  <UniqueID>
151

>  <SMILES>
CO[C@@H]1O[C@H](CO)[C@@H](O)[C@@H](O)[C@@H]1NC(C)=O

>  <Energy>
28.212309169137836

>  <Genealogy>
CO[C@@H]1O[C@H](CO)[C@@H](O)[C@@H](O)[C@@H]1NC(C)=O (chirality)
CO[C@@H]1O[C@H](CO)[C@@H](O)[C@@H](O)[C@@H]1NC(C)=O (3D coordinates assigned)
CO[C@@H]1O[C@H](CO)[C@@H](O)[C@@H](O)[C@@H]1NC(C)=O (nonaromatic ring conformer: 28.212309169137836 kcal/mol)

$$$$
254124
 OpenBabel03032110343D

 33 33  0  0  0  0  0  0  0  0999 V2000
    2.3008    0.9281   -2.6848 C   0  0  0  0  0  0  0  0  0  0  0  0
    0.9724    0.9629   -2.2102 O   0  0  0  0  0  0  0  0  0  0  0  0
    0.3106   -0.2736   -2.4505 C   0  0  2  0  0  0  0  0  0  0  0  0
   -1.0334   -0.0433   -2.8492 O   0  0  0  0  0  0  0  0  0  0  0  0
   -1.7685    0.6517   -1.8535 C   0  0  1  0  0  0  0  0  0  0  0  0
   -3.1451    1.0213   -2.4290 C   0  0  0  0  0  0  0  0  0  0  0  0
   -3.9060    1.7395   -1.4948 O   0  0  0  0  0  0  0  0  0  0  0  0
   -1.8951   -0.1978   -0.5614 C   0  0  1  0  0  0  0  0  0  0  0  0
   -2.7337   -1.3171   -0.7295 O   0  0  0  0  0  0  0  0  0  0  0  0
   -0.5042   -0.6247   -0.0541 C   0  0  2  0  0  0  0  0  0  0  0  0
    0.1292    0.4877    0.5269 O   0  0  0  0  0  0  0  0  0  0  0  0
    0.3749   -1.1870   -1.1988 C   0  0  1  0  0  0  0  0  0  0  0  0
   -0.0280   -2.5575   -1.5411 N   0  0  0  0  0  0  0  0  0  0  0  0
    0.2551   -3.6777   -0.6908 C   0  0  0  0  0  0  0  0  0  0  0  0
   -0.2052   -5.0440   -1.0816 C   0  0  0  0  0  0  0  0  0  0  0  0
    0.9222   -3.5249    0.3682 O   0  0  0  0  0  0  0  0  0  0  0  0
    2.3189    0.8708   -3.7953 H   0  0  0  0  0  0  0  0  0  0  0  0
    2.8716    0.0817   -2.2438 H   0  0  0  0  0  0  0  0  0  0  0  0
    2.8080    1.8684   -2.3867 H   0  0  0  0  0  0  0  0  0  0  0  0
    0.7829   -0.8335   -3.2943 H   0  0  0  0  0  0  0  0  0  0  0  0
   -1.2680    1.6153   -1.6032 H   0  0  0  0  0  0  0  0  0  0  0  0
   -3.7008    0.1031   -2.7139 H   0  0  0  0  0  0  0  0  0  0  0  0
   -3.0124    1.6249   -3.3559 H   0  0  0  0  0  0  0  0  0  0  0  0
   -3.5274    2.6568   -1.4646 H   0  0  0  0  0  0  0  0  0  0  0  0
   -2.3588    0.4369    0.2257 H   0  0  0  0  0  0  0  0  0  0  0  0
   -2.4893   -1.7684   -1.5768 H   0  0  0  0  0  0  0  0  0  0  0  0
   -0.6487   -1.4019    0.7319 H   0  0  0  0  0  0  0  0  0  0  0  0
    0.8653    0.1376    1.0940 H   0  0  0  0  0  0  0  0  0  0  0  0
    1.4321   -1.2217   -0.8551 H   0  0  0  0  0  0  0  0  0  0  0  0
   -0.4829   -2.7475   -2.4633 H   0  0  0  0  0  0  0  0  0  0  0  0
    0.4184   -5.4182   -1.9197 H   0  0  0  0  0  0  0  0  0  0  0  0
   -0.1198   -5.7442   -0.2235 H   0  0  0  0  0  0  0  0  0  0  0  0
   -1.2665   -5.0035   -1.4047 H   0  0  0  0  0  0  0  0  0  0  0  0
  1  2  1  0  0  0  0
  1 17  1  0  0  0  0
  1 18  1  0  0  0  0
  1 19  1  0  0  0  0
  2  3  1  0  0  0  0
  3  4  1  0  0  0  0
  3 20  1  6  0  0  0
  4  5  1  0  0  0  0
  5  6  1  0  0  0  0
  5  8  1  0  0  0  0
  5 21  1  1  0  0  0
  6  7  1  0  0  0  0
  6 22  1  0  0  0  0
  6 23  1  0  0  0  0
  7 24  1  0  0  0  0
  8  9  1  0  0  0  0
  8 10  1  0  0  0  0
  8 25  1  1  0  0  0
  9 26  1  0  0  0  0
 10 11  1  0  0  0  0
 10 12  1  0  0  0  0
 10 27  1  1  0  0  0
 11 28  1  0  0  0  0
 12 13  1  0  0  0  0
 12  3  1  0  0  0  0
 12 29  1  1  0  0  0
 13 14  1  0  0  0  0
 13 30  1  0  0  0  0
 14 15  1  0  0  0  0
 14 16  2  0  0  0  0
 15 31  1  0  0  0  0
 15 32  1  0  0  0  0
 15 33  1  0  0  0  0
M  END
>  <UniqueID>
152

>  <SMILES>
CO[C@@H]1O[C@@H](CO)[C@@H](O)[C@H](O)[C@H]1NC(C)=O

>  <Energy>
33.977078260210206

>  <Genealogy>
CO[C@@H]1O[C@@H](CO)[C@@H](O)[C@H](O)[C@H]1NC(C)=O (chirality)
CO[C@@H]1O[C@@H](CO)[C@@H](O)[C@H](O)[C@H]1NC(C)=O (3D coordinates assigned)
CO[C@@H]1O[C@@H](CO)[C@@H](O)[C@H](O)[C@H]1NC(C)=O (nonaromatic ring conformer: 33.977078260210206 kcal/mol)

$$$$
202260
 OpenBabel03032110343D

 45 45  0  0  0  0  0  0  0  0999 V2000
   -3.7108   -2.4081    1.7072 C   0  0  0  0  0  0  0  0  0  0  0  0
   -2.3130   -1.9318    1.9106 C   0  0  0  0  0  0  0  0  0  0  0  0
   -1.3642   -2.7624    1.9086 O   0  0  0  0  0  0  0  0  0  0  0  0
   -2.0680   -0.5623    2.0593 O   0  0  0  0  0  0  0  0  0  0  0  0
   -0.7586   -0.0025    2.1512 C   0  0  0  0  0  0  0  0  0  0  0  0
   -0.0769    0.0087    0.7748 C   0  0  1  0  0  0  0  0  0  0  0  0
   -0.9209    0.6899   -0.1368 O   0  0  0  0  0  0  0  0  0  0  0  0
   -0.4166    0.5783   -1.4554 C   0  0  1  0  0  0  0  0  0  0  0  0
   -1.3539    1.1617   -2.3577 O   0  0  0  0  0  0  0  0  0  0  0  0
   -2.6368    0.6429   -2.5602 C   0  0  0  0  0  0  0  0  0  0  0  0
   -3.5674    1.3310   -3.4995 C   0  0  0  0  0  0  0  0  0  0  0  0
   -3.0283   -0.3757   -1.9276 O   0  0  0  0  0  0  0  0  0  0  0  0
    0.9248    1.3236   -1.5746 C   0  0  2  0  0  0  0  0  0  0  0  0
    1.4245    1.2224   -2.9483 N   0  0  0  0  0  0  0  0  0  0  0  0
    1.9356    0.7522   -0.5519 C   0  0  1  0  0  0  0  0  0  0  0  0
    3.1046    1.5732   -0.5050 O   0  0  0  0  0  0  0  0  0  0  0  0
    4.2706    1.3194   -1.2363 C   0  0  0  0  0  0  0  0  0  0  0  0
    5.4331    2.2418   -1.0993 C   0  0  0  0  0  0  0  0  0  0  0  0
    4.3689    0.2967   -1.9673 O   0  0  0  0  0  0  0  0  0  0  0  0
    1.2992    0.7060    0.8507 C   0  0  2  0  0  0  0  0  0  0  0  0
    2.1471   -0.0201    1.7446 O   0  0  0  0  0  0  0  0  0  0  0  0
    3.2444    0.5419    2.4066 C   0  0  0  0  0  0  0  0  0  0  0  0
    4.1056   -0.3240    3.2608 C   0  0  0  0  0  0  0  0  0  0  0  0
    3.4822    1.7780    2.3331 O   0  0  0  0  0  0  0  0  0  0  0  0
   -3.9135   -2.5030    0.6202 H   0  0  0  0  0  0  0  0  0  0  0  0
   -4.4260   -1.6833    2.1492 H   0  0  0  0  0  0  0  0  0  0  0  0
   -3.8531   -3.3955    2.1952 H   0  0  0  0  0  0  0  0  0  0  0  0
   -0.1541   -0.5746    2.8888 H   0  0  0  0  0  0  0  0  0  0  0  0
   -0.8533    1.0401    2.5235 H   0  0  0  0  0  0  0  0  0  0  0  0
    0.0647   -1.0522    0.4618 H   0  0  0  0  0  0  0  0  0  0  0  0
   -0.2791   -0.4921   -1.7408 H   0  0  0  0  0  0  0  0  0  0  0  0
   -4.1818    0.5829   -4.0436 H   0  0  0  0  0  0  0  0  0  0  0  0
   -2.9899    1.9257   -4.2379 H   0  0  0  0  0  0  0  0  0  0  0  0
   -4.2351    2.0087   -2.9281 H   0  0  0  0  0  0  0  0  0  0  0  0
    0.7460    2.3975   -1.3388 H   0  0  0  0  0  0  0  0  0  0  0  0
    1.7624    0.2491   -3.1303 H   0  0  0  0  0  0  0  0  0  0  0  0
    2.2345    1.8726   -3.0651 H   0  0  0  0  0  0  0  0  0  0  0  0
    2.2047   -0.2918   -0.8333 H   0  0  0  0  0  0  0  0  0  0  0  0
    6.1123    1.8640   -0.3071 H   0  0  0  0  0  0  0  0  0  0  0  0
    5.0793    3.2569   -0.8221 H   0  0  0  0  0  0  0  0  0  0  0  0
    5.9869    2.3048   -2.0597 H   0  0  0  0  0  0  0  0  0  0  0  0
    1.1474    1.7448    1.2244 H   0  0  0  0  0  0  0  0  0  0  0  0
    3.7629   -0.2618    4.3144 H   0  0  0  0  0  0  0  0  0  0  0  0
    5.1630    0.0091    3.1975 H   0  0  0  0  0  0  0  0  0  0  0  0
    4.0410   -1.3779    2.9178 H   0  0  0  0  0  0  0  0  0  0  0  0
  1  2  1  0  0  0  0
  1 25  1  0  0  0  0
  1 26  1  0  0  0  0
  1 27  1  0  0  0  0
  2  3  2  0  0  0  0
  2  4  1  0  0  0  0
  4  5  1  0  0  0  0
  5  6  1  0  0  0  0
  5 28  1  0  0  0  0
  5 29  1  0  0  0  0
  6  7  1  0  0  0  0
  6 30  1  6  0  0  0
  7  8  1  0  0  0  0
  8  9  1  0  0  0  0
  8 13  1  0  0  0  0
  8 31  1  6  0  0  0
  9 10  1  0  0  0  0
 10 11  1  0  0  0  0
 10 12  2  0  0  0  0
 11 32  1  0  0  0  0
 11 33  1  0  0  0  0
 11 34  1  0  0  0  0
 13 14  1  0  0  0  0
 13 15  1  0  0  0  0
 13 35  1  1  0  0  0
 14 36  1  0  0  0  0
 14 37  1  0  0  0  0
 15 16  1  0  0  0  0
 15 20  1  0  0  0  0
 15 38  1  6  0  0  0
 16 17  1  0  0  0  0
 17 18  1  0  0  0  0
 17 19  2  0  0  0  0
 18 39  1  0  0  0  0
 18 40  1  0  0  0  0
 18 41  1  0  0  0  0
 20 21  1  0  0  0  0
 20  6  1  0  0  0  0
 20 42  1  1  0  0  0
 21 22  1  0  0  0  0
 22 23  1  0  0  0  0
 22 24  2  0  0  0  0
 23 43  1  0  0  0  0
 23 44  1  0  0  0  0
 23 45  1  0  0  0  0
M  END
>  <UniqueID>
153

>  <SMILES>
CC(=O)OC[C@H]1O[C@@H](OC(C)=O)[C@H](N)[C@@H](OC(C)=O)[C@@H]1OC(C)=O

>  <Energy>
28.452521604784017

>  <Genealogy>
CC(=O)OC[C@H]1O[C@@H](OC(C)=O)[C@H](N)[C@@H](OC(C)=O)[C@@H]1OC(C)=O (3D coordinates assigned)
CC(=O)OC[C@H]1O[C@@H](OC(C)=O)[C@H](N)[C@@H](OC(C)=O)[C@@H]1OC(C)=O (nonaromatic ring conformer: 28.452521604784017 kcal/mol)

$$$$
202260
 OpenBabel03032110343D

 46 46  0  0  0  0  0  0  0  0999 V2000
    0.4203   -4.6035   -2.4981 C   0  0  0  0  0  0  0  0  0  0  0  0
   -0.1006   -4.3086   -1.1329 C   0  0  0  0  0  0  0  0  0  0  0  0
   -0.8664   -5.1336   -0.5644 O   0  0  0  0  0  0  0  0  0  0  0  0
    0.2281   -3.0979   -0.5178 O   0  0  0  0  0  0  0  0  0  0  0  0
   -0.2542   -2.7352    0.7734 C   0  0  0  0  0  0  0  0  0  0  0  0
    0.2695   -1.3492    1.1691 C   0  0  1  0  0  0  0  0  0  0  0  0
    1.6856   -1.3895    1.1805 O   0  0  0  0  0  0  0  0  0  0  0  0
    2.2179   -0.1924    1.7176 C   0  0  1  0  0  0  0  0  0  0  0  0
    3.6342   -0.3568    1.8154 O   0  0  0  0  0  0  0  0  0  0  0  0
    4.4132    0.1382    2.8689 C   0  0  0  0  0  0  0  0  0  0  0  0
    5.8909   -0.0555    2.8394 C   0  0  0  0  0  0  0  0  0  0  0  0
    3.8888    0.7819    3.8180 O   0  0  0  0  0  0  0  0  0  0  0  0
    1.8860    1.0016    0.7849 C   0  0  2  0  0  0  0  0  0  0  0  0
    2.4331    2.2580    1.3160 N   0  3  0  0  0  0  0  0  0  0  0  0
    0.3528    1.1034    0.6031 C   0  0  1  0  0  0  0  0  0  0  0  0
    0.0399    2.0624   -0.4103 O   0  0  0  0  0  0  0  0  0  0  0  0
   -0.3964    3.3665   -0.1483 C   0  0  0  0  0  0  0  0  0  0  0  0
   -0.6898    4.2808   -1.2880 C   0  0  0  0  0  0  0  0  0  0  0  0
   -0.5050    3.7899    1.0345 O   0  0  0  0  0  0  0  0  0  0  0  0
   -0.2270   -0.2615    0.1920 C   0  0  2  0  0  0  0  0  0  0  0  0
   -1.6558   -0.2120    0.2255 O   0  0  0  0  0  0  0  0  0  0  0  0
   -2.4431    0.2695   -0.8265 C   0  0  0  0  0  0  0  0  0  0  0  0
   -3.9223    0.3401   -0.6603 C   0  0  0  0  0  0  0  0  0  0  0  0
   -1.9240    0.5930   -1.9292 O   0  0  0  0  0  0  0  0  0  0  0  0
    1.3471   -4.0213   -2.6841 H   0  0  0  0  0  0  0  0  0  0  0  0
   -0.3431   -4.3238   -3.2534 H   0  0  0  0  0  0  0  0  0  0  0  0
    0.6516   -5.6855   -2.5926 H   0  0  0  0  0  0  0  0  0  0  0  0
   -1.3662   -2.7381    0.7746 H   0  0  0  0  0  0  0  0  0  0  0  0
    0.0953   -3.4815    1.5200 H   0  0  0  0  0  0  0  0  0  0  0  0
   -0.1247   -1.1380    2.1914 H   0  0  0  0  0  0  0  0  0  0  0  0
    1.7941   -0.0154    2.7346 H   0  0  0  0  0  0  0  0  0  0  0  0
    6.2751   -0.2188    3.8684 H   0  0  0  0  0  0  0  0  0  0  0  0
    6.3725    0.8455    2.4062 H   0  0  0  0  0  0  0  0  0  0  0  0
    6.1450   -0.9393    2.2175 H   0  0  0  0  0  0  0  0  0  0  0  0
    2.3466    0.8042   -0.2104 H   0  0  0  0  0  0  0  0  0  0  0  0
    3.4746    2.2021    1.3722 H   0  0  0  0  0  0  0  0  0  0  0  0
    2.0417    2.4590    2.2651 H   0  0  0  0  0  0  0  0  0  0  0  0
    2.2066    3.0498    0.6734 H   0  0  0  0  0  0  0  0  0  0  0  0
   -0.1147    1.3913    1.5727 H   0  0  0  0  0  0  0  0  0  0  0  0
   -0.9698    3.6892   -2.1847 H   0  0  0  0  0  0  0  0  0  0  0  0
   -1.5313    4.9573   -1.0283 H   0  0  0  0  0  0  0  0  0  0  0  0
    0.2114    4.8863   -1.5170 H   0  0  0  0  0  0  0  0  0  0  0  0
    0.1248   -0.5169   -0.8337 H   0  0  0  0  0  0  0  0  0  0  0  0
   -4.1784    0.4268    0.4164 H   0  0  0  0  0  0  0  0  0  0  0  0
   -4.3850   -0.5806   -1.0723 H   0  0  0  0  0  0  0  0  0  0  0  0
   -4.3243    1.2256   -1.1965 H   0  0  0  0  0  0  0  0  0  0  0  0
  1  2  1  0  0  0  0
  1 25  1  0  0  0  0
  1 26  1  0  0  0  0
  1 27  1  0  0  0  0
  2  3  2  0  0  0  0
  2  4  1  0  0  0  0
  4  5  1  0  0  0  0
  5  6  1  0  0  0  0
  5 28  1  0  0  0  0
  5 29  1  0  0  0  0
  6  7  1  0  0  0  0
  6 30  1  1  0  0  0
  7  8  1  0  0  0  0
  8  9  1  0  0  0  0
  8 13  1  0  0  0  0
  8 31  1  1  0  0  0
  9 10  1  0  0  0  0
 10 11  1  0  0  0  0
 10 12  2  0  0  0  0
 11 32  1  0  0  0  0
 11 33  1  0  0  0  0
 11 34  1  0  0  0  0
 13 14  1  0  0  0  0
 13 15  1  0  0  0  0
 13 35  1  6  0  0  0
 14 36  1  0  0  0  0
 14 37  1  0  0  0  0
 14 38  1  0  0  0  0
 15 16  1  0  0  0  0
 15 20  1  0  0  0  0
 15 39  1  1  0  0  0
 16 17  1  0  0  0  0
 17 18  1  0  0  0  0
 17 19  2  0  0  0  0
 18 40  1  0  0  0  0
 18 41  1  0  0  0  0
 18 42  1  0  0  0  0
 20 21  1  0  0  0  0
 20  6  1  0  0  0  0
 20 43  1  6  0  0  0
 21 22  1  0  0  0  0
 22 23  1  0  0  0  0
 22 24  2  0  0  0  0
 23 44  1  0  0  0  0
 23 45  1  0  0  0  0
 23 46  1  0  0  0  0
M  CHG  1  14   1
M  END
>  <UniqueID>
154

>  <SMILES>
CC(=O)OC[C@H]1O[C@@H](OC(C)=O)[C@H]([NH3+])[C@@H](OC(C)=O)[C@@H]1OC(C)=O

>  <Energy>
31.902340112568133

>  <Genealogy>
CC(=O)OC[C@H]1O[C@@H](OC(C)=O)[C@H]([NH3+])[C@@H](OC(C)=O)[C@@H]1OC(C)=O (protonated)
CC(=O)OC[C@H]1O[C@@H](OC(C)=O)[C@H]([NH3+])[C@@H](OC(C)=O)[C@@H]1OC(C)=O (3D coordinates assigned)
CC(=O)OC[C@H]1O[C@@H](OC(C)=O)[C@H]([NH3+])[C@@H](OC(C)=O)[C@@H]1OC(C)=O (nonaromatic ring conformer: 31.902340112568133 kcal/mol)

$$$$
198515
 OpenBabel03032110343D

 50 50  0  0  0  0  0  0  0  0999 V2000
   -2.7189    4.0328    2.4870 C   0  0  0  0  0  0  0  0  0  0  0  0
   -1.5030    3.9206    1.6321 C   0  0  0  0  0  0  0  0  0  0  0  0
   -1.5008    4.4328    0.4798 O   0  0  0  0  0  0  0  0  0  0  0  0
   -0.3934    3.2117    2.1049 O   0  0  0  0  0  0  0  0  0  0  0  0
    0.7770    2.9689    1.3244 C   0  0  0  0  0  0  0  0  0  0  0  0
    0.5308    1.8779    0.2695 C   0  0  1  0  0  0  0  0  0  0  0  0
    1.7334    1.6705   -0.4526 O   0  0  0  0  0  0  0  0  0  0  0  0
    1.5134    0.8175   -1.5632 C   0  0  1  0  0  0  0  0  0  0  0  0
    2.7409    0.7222   -2.2878 O   0  0  0  0  0  0  0  0  0  0  0  0
    2.8243    0.4816   -3.6645 C   0  0  0  0  0  0  0  0  0  0  0  0
    4.1593    0.2643   -4.2905 C   0  0  0  0  0  0  0  0  0  0  0  0
    1.7866    0.4241   -4.3781 O   0  0  0  0  0  0  0  0  0  0  0  0
    1.0899   -0.5897   -1.0814 C   0  0  2  0  0  0  0  0  0  0  0  0
    0.8001   -1.4575   -2.2267 N   0  0  0  0  0  0  0  0  0  0  0  0
    1.3411   -2.7796   -2.3635 C   0  0  0  0  0  0  0  0  0  0  0  0
    2.1806   -3.2186   -1.5316 O   0  0  0  0  0  0  0  0  0  0  0  0
    0.9466   -3.6319   -3.5260 C   0  0  0  0  0  0  0  0  0  0  0  0
    2.0220   -3.1686   -5.0658 Br  0  0  0  0  0  0  0  0  0  0  0  0
   -0.1572   -0.4897   -0.1873 C   0  0  1  0  0  0  0  0  0  0  0  0
   -0.4401   -1.7736    0.3709 O   0  0  0  0  0  0  0  0  0  0  0  0
   -1.6888   -2.1324    0.8890 C   0  0  0  0  0  0  0  0  0  0  0  0
   -1.8696   -3.4822    1.4940 C   0  0  0  0  0  0  0  0  0  0  0  0
   -2.6493   -1.3155    0.8869 O   0  0  0  0  0  0  0  0  0  0  0  0
    0.0679    0.5563    0.9216 C   0  0  1  0  0  0  0  0  0  0  0  0
    1.0698    0.1007    1.8367 O   0  0  0  0  0  0  0  0  0  0  0  0
    0.7938   -0.6216    3.0025 C   0  0  0  0  0  0  0  0  0  0  0  0
    1.9237   -1.1267    3.8322 C   0  0  0  0  0  0  0  0  0  0  0  0
   -0.3924   -0.7995    3.3901 O   0  0  0  0  0  0  0  0  0  0  0  0
   -3.2131    5.0136    2.3228 H   0  0  0  0  0  0  0  0  0  0  0  0
   -3.4266    3.2174    2.2304 H   0  0  0  0  0  0  0  0  0  0  0  0
   -2.4380    3.9478    3.5576 H   0  0  0  0  0  0  0  0  0  0  0  0
    1.1038    3.9097    0.8294 H   0  0  0  0  0  0  0  0  0  0  0  0
    1.5962    2.6524    2.0048 H   0  0  0  0  0  0  0  0  0  0  0  0
   -0.2690    2.2532   -0.4107 H   0  0  0  0  0  0  0  0  0  0  0  0
    0.7297    1.2572   -2.2249 H   0  0  0  0  0  0  0  0  0  0  0  0
    4.3066   -0.8189   -4.4806 H   0  0  0  0  0  0  0  0  0  0  0  0
    4.2225    0.8181   -5.2508 H   0  0  0  0  0  0  0  0  0  0  0  0
    4.9613    0.6263   -3.6135 H   0  0  0  0  0  0  0  0  0  0  0  0
    1.9278   -1.0078   -0.4798 H   0  0  0  0  0  0  0  0  0  0  0  0
    0.0889   -1.1376   -2.9232 H   0  0  0  0  0  0  0  0  0  0  0  0
   -0.1254   -3.4747   -3.7672 H   0  0  0  0  0  0  0  0  0  0  0  0
    1.1005   -4.7052   -3.2854 H   0  0  0  0  0  0  0  0  0  0  0  0
   -1.0158   -0.1660   -0.8201 H   0  0  0  0  0  0  0  0  0  0  0  0
   -1.7683   -3.4092    2.5966 H   0  0  0  0  0  0  0  0  0  0  0  0
   -2.8751   -3.8806    1.2428 H   0  0  0  0  0  0  0  0  0  0  0  0
   -1.0993   -4.1794    1.1030 H   0  0  0  0  0  0  0  0  0  0  0  0
   -0.8924    0.7399    1.4523 H   0  0  0  0  0  0  0  0  0  0  0  0
    2.2047   -0.3573    4.5807 H   0  0  0  0  0  0  0  0  0  0  0  0
    2.7991   -1.3428    3.1846 H   0  0  0  0  0  0  0  0  0  0  0  0
    1.6274   -2.0593    4.3571 H   0  0  0  0  0  0  0  0  0  0  0  0
  1  2  1  0  0  0  0
  1 29  1  0  0  0  0
  1 30  1  0  0  0  0
  1 31  1  0  0  0  0
  2  3  2  0  0  0  0
  2  4  1  0  0  0  0
  4  5  1  0  0  0  0
  5  6  1  0  0  0  0
  5 32  1  0  0  0  0
  5 33  1  0  0  0  0
  6  7  1  0  0  0  0
  6 34  1  6  0  0  0
  7  8  1  0  0  0  0
  8  9  1  0  0  0  0
  8 13  1  0  0  0  0
  8 35  1  6  0  0  0
  9 10  1  0  0  0  0
 10 11  1  0  0  0  0
 10 12  2  0  0  0  0
 11 36  1  0  0  0  0
 11 37  1  0  0  0  0
 11 38  1  0  0  0  0
 13 14  1  0  0  0  0
 13 19  1  0  0  0  0
 13 39  1  1  0  0  0
 14 15  1  0  0  0  0
 14 40  1  0  0  0  0
 15 16  2  0  0  0  0
 15 17  1  0  0  0  0
 17 18  1  0  0  0  0
 17 41  1  0  0  0  0
 17 42  1  0  0  0  0
 19 20  1  0  0  0  0
 19 24  1  0  0  0  0
 19 43  1  6  0  0  0
 20 21  1  0  0  0  0
 21 22  1  0  0  0  0
 21 23  2  0  0  0  0
 22 44  1  0  0  0  0
 22 45  1  0  0  0  0
 22 46  1  0  0  0  0
 24 25  1  0  0  0  0
 24  6  1  0  0  0  0
 24 47  1  1  0  0  0
 25 26  1  0  0  0  0
 26 27  1  0  0  0  0
 26 28  2  0  0  0  0
 27 48  1  0  0  0  0
 27 49  1  0  0  0  0
 27 50  1  0  0  0  0
M  END
>  <UniqueID>
155

>  <SMILES>
CC(=O)OC[C@H]1O[C@@H](OC(C)=O)[C@H](NC(=O)CBr)[C@@H](OC(C)=O)[C@H]1OC(C)=O

>  <Energy>
30.668851904107207

>  <Genealogy>
CC(=O)OC[C@H]1O[C@@H](OC(C)=O)[C@H](NC(=O)CBr)[C@@H](OC(C)=O)[C@H]1OC(C)=O (3D coordinates assigned)
CC(=O)OC[C@H]1O[C@@H](OC(C)=O)[C@H](NC(=O)CBr)[C@@H](OC(C)=O)[C@H]1OC(C)=O (nonaromatic ring conformer: 30.668851904107207 kcal/mol)

$$$$
198515
 OpenBabel03032110343D

 50 50  0  0  0  0  0  0  0  0999 V2000
   -1.3150    3.2790    3.4673 C   0  0  0  0  0  0  0  0  0  0  0  0
   -0.4722    3.1763    2.2423 C   0  0  0  0  0  0  0  0  0  0  0  0
    0.5728    3.8748    2.1406 O   0  0  0  0  0  0  0  0  0  0  0  0
   -0.8222    2.2645    1.2436 O   0  0  0  0  0  0  0  0  0  0  0  0
   -0.0405    2.0676    0.0692 C   0  0  0  0  0  0  0  0  0  0  0  0
   -0.6435    0.9306   -0.7854 C   0  0  1  0  0  0  0  0  0  0  0  0
   -0.2566    1.0232   -2.1532 O   0  0  0  0  0  0  0  0  0  0  0  0
    1.0622    0.5630   -2.4160 C   0  0  1  0  0  0  0  0  0  0  0  0
    2.0261    1.4369   -1.8240 O   0  0  0  0  0  0  0  0  0  0  0  0
    3.3799    1.4602   -2.1751 C   0  0  0  0  0  0  0  0  0  0  0  0
    4.3139    2.3424   -1.4200 C   0  0  0  0  0  0  0  0  0  0  0  0
    3.8087    0.7819   -3.1476 O   0  0  0  0  0  0  0  0  0  0  0  0
    1.2697   -0.9057   -1.9754 C   0  0  2  0  0  0  0  0  0  0  0  0
    0.4349   -1.8018   -2.7860 N   0  0  0  0  0  0  0  0  0  0  0  0
    0.6656   -3.2162   -2.8535 C   0  0  0  0  0  0  0  0  0  0  0  0
    1.6646   -3.7291   -2.2802 O   0  0  0  0  0  0  0  0  0  0  0  0
   -0.3048   -4.0973   -3.5710 C   0  0  0  0  0  0  0  0  0  0  0  0
   -1.8770   -4.3537   -2.4718 Br  0  0  0  0  0  0  0  0  0  0  0  0
    0.9391   -1.0693   -0.4843 C   0  0  1  0  0  0  0  0  0  0  0  0
    1.9400   -0.4093    0.2945 O   0  0  0  0  0  0  0  0  0  0  0  0
    2.2306   -0.7192    1.6272 C   0  0  0  0  0  0  0  0  0  0  0  0
    3.1697    0.1513    2.3892 C   0  0  0  0  0  0  0  0  0  0  0  0
    1.6807   -1.6983    2.2007 O   0  0  0  0  0  0  0  0  0  0  0  0
   -0.4629   -0.5000   -0.2028 C   0  0  1  0  0  0  0  0  0  0  0  0
   -0.7321   -0.5344    1.1998 O   0  0  0  0  0  0  0  0  0  0  0  0
   -2.0195   -0.4810    1.7455 C   0  0  0  0  0  0  0  0  0  0  0  0
   -2.1859   -0.4586    3.2262 C   0  0  0  0  0  0  0  0  0  0  0  0
   -3.0383   -0.4827    1.0028 O   0  0  0  0  0  0  0  0  0  0  0  0
   -2.3579    2.9776    3.2347 H   0  0  0  0  0  0  0  0  0  0  0  0
   -0.9090    2.6071    4.2517 H   0  0  0  0  0  0  0  0  0  0  0  0
   -1.3184    4.3239    3.8432 H   0  0  0  0  0  0  0  0  0  0  0  0
    1.0028    1.8461    0.3654 H   0  0  0  0  0  0  0  0  0  0  0  0
   -0.0427    3.0085   -0.5229 H   0  0  0  0  0  0  0  0  0  0  0  0
   -1.7396    1.1174   -0.7821 H   0  0  0  0  0  0  0  0  0  0  0  0
    1.1991    0.6061   -3.5190 H   0  0  0  0  0  0  0  0  0  0  0  0
    3.9170    2.5261   -0.3994 H   0  0  0  0  0  0  0  0  0  0  0  0
    4.4176    3.3119   -1.9503 H   0  0  0  0  0  0  0  0  0  0  0  0
    5.3105    1.8597   -1.3354 H   0  0  0  0  0  0  0  0  0  0  0  0
    2.3355   -1.1765   -2.1400 H   0  0  0  0  0  0  0  0  0  0  0  0
   -0.3639   -1.4069   -3.3333 H   0  0  0  0  0  0  0  0  0  0  0  0
    0.1543   -5.0858   -3.7854 H   0  0  0  0  0  0  0  0  0  0  0  0
   -0.6020   -3.6280   -4.5321 H   0  0  0  0  0  0  0  0  0  0  0  0
    0.9467   -2.1537   -0.2352 H   0  0  0  0  0  0  0  0  0  0  0  0
    2.5905    0.9110    2.9538 H   0  0  0  0  0  0  0  0  0  0  0  0
    3.7672   -0.4589    3.0985 H   0  0  0  0  0  0  0  0  0  0  0  0
    3.8595    0.6671    1.6890 H   0  0  0  0  0  0  0  0  0  0  0  0
   -1.1893   -1.1710   -0.7160 H   0  0  0  0  0  0  0  0  0  0  0  0
   -1.2335   -0.1563    3.7104 H   0  0  0  0  0  0  0  0  0  0  0  0
   -2.4717   -1.4697    3.5827 H   0  0  0  0  0  0  0  0  0  0  0  0
   -2.9760    0.2688    3.5074 H   0  0  0  0  0  0  0  0  0  0  0  0
  1  2  1  0  0  0  0
  1 29  1  0  0  0  0
  1 30  1  0  0  0  0
  1 31  1  0  0  0  0
  2  3  2  0  0  0  0
  2  4  1  0  0  0  0
  4  5  1  0  0  0  0
  5  6  1  0  0  0  0
  5 32  1  0  0  0  0
  5 33  1  0  0  0  0
  6  7  1  0  0  0  0
  6 34  1  1  0  0  0
  7  8  1  0  0  0  0
  8  9  1  0  0  0  0
  8 13  1  0  0  0  0
  8 35  1  6  0  0  0
  9 10  1  0  0  0  0
 10 11  1  0  0  0  0
 10 12  2  0  0  0  0
 11 36  1  0  0  0  0
 11 37  1  0  0  0  0
 11 38  1  0  0  0  0
 13 14  1  0  0  0  0
 13 19  1  0  0  0  0
 13 39  1  6  0  0  0
 14 15  1  0  0  0  0
 14 40  1  0  0  0  0
 15 16  2  0  0  0  0
 15 17  1  0  0  0  0
 17 18  1  0  0  0  0
 17 41  1  0  0  0  0
 17 42  1  0  0  0  0
 19 20  1  0  0  0  0
 19 24  1  0  0  0  0
 19 43  1  1  0  0  0
 20 21  1  0  0  0  0
 21 22  1  0  0  0  0
 21 23  2  0  0  0  0
 22 44  1  0  0  0  0
 22 45  1  0  0  0  0
 22 46  1  0  0  0  0
 24 25  1  0  0  0  0
 24  6  1  0  0  0  0
 24 47  1  6  0  0  0
 25 26  1  0  0  0  0
 26 27  1  0  0  0  0
 26 28  2  0  0  0  0
 27 48  1  0  0  0  0
 27 49  1  0  0  0  0
 27 50  1  0  0  0  0
M  END
>  <UniqueID>
156

>  <SMILES>
CC(=O)OC[C@H]1O[C@@H](OC(C)=O)[C@H](NC(=O)CBr)[C@@H](OC(C)=O)[C@H]1OC(C)=O

>  <Energy>
35.430941685935565

>  <Genealogy>
CC(=O)OC[C@H]1O[C@@H](OC(C)=O)[C@H](NC(=O)CBr)[C@@H](OC(C)=O)[C@H]1OC(C)=O (3D coordinates assigned)
CC(=O)OC[C@H]1O[C@@H](OC(C)=O)[C@H](NC(=O)CBr)[C@@H](OC(C)=O)[C@H]1OC(C)=O (nonaromatic ring conformer: 35.430941685935565 kcal/mol)

$$$$
198514
 OpenBabel03032110343D

 50 50  0  0  0  0  0  0  0  0999 V2000
    5.7718    2.1189   -1.1919 C   0  0  0  0  0  0  0  0  0  0  0  0
    4.8181    1.6047   -0.1682 C   0  0  0  0  0  0  0  0  0  0  0  0
    4.9831    0.4507    0.3126 O   0  0  0  0  0  0  0  0  0  0  0  0
    3.7856    2.4324    0.2876 O   0  0  0  0  0  0  0  0  0  0  0  0
    2.7839    2.0121    1.2138 C   0  0  0  0  0  0  0  0  0  0  0  0
    1.6406    1.2878    0.4852 C   0  0  1  0  0  0  0  0  0  0  0  0
    2.1565    0.1152   -0.1207 O   0  0  0  0  0  0  0  0  0  0  0  0
    1.1817   -0.4947   -0.9454 C   0  0  1  0  0  0  0  0  0  0  0  0
    1.8026   -1.5936   -1.6146 O   0  0  0  0  0  0  0  0  0  0  0  0
    1.4010   -2.0786   -2.8653 C   0  0  0  0  0  0  0  0  0  0  0  0
    2.0218   -3.3227   -3.4017 C   0  0  0  0  0  0  0  0  0  0  0  0
    0.4981   -1.4986   -3.5273 O   0  0  0  0  0  0  0  0  0  0  0  0
    0.0119   -1.0094   -0.0798 C   0  0  2  0  0  0  0  0  0  0  0  0
   -1.0145   -1.6217   -0.9284 N   0  0  0  0  0  0  0  0  0  0  0  0
   -1.2910   -3.0301   -0.9318 C   0  0  0  0  0  0  0  0  0  0  0  0
   -0.7104   -3.8001   -0.1200 O   0  0  0  0  0  0  0  0  0  0  0  0
   -2.3062   -3.5901   -1.8743 C   0  0  0  0  0  0  0  0  0  0  0  0
   -4.0720   -3.4214   -1.1019 Br  0  0  0  0  0  0  0  0  0  0  0  0
   -0.5972    0.1526    0.7285 C   0  0  1  0  0  0  0  0  0  0  0  0
   -1.5340   -0.3577    1.6795 O   0  0  0  0  0  0  0  0  0  0  0  0
   -2.8893   -0.5704    1.4040 C   0  0  0  0  0  0  0  0  0  0  0  0
   -3.7592   -1.1840    2.4467 C   0  0  0  0  0  0  0  0  0  0  0  0
   -3.3948   -0.1993    0.3102 O   0  0  0  0  0  0  0  0  0  0  0  0
    0.5103    0.9211    1.4726 C   0  0  2  0  0  0  0  0  0  0  0  0
   -0.0299    2.1172    2.0407 O   0  0  0  0  0  0  0  0  0  0  0  0
   -0.7019    2.1622    3.2674 C   0  0  0  0  0  0  0  0  0  0  0  0
   -1.2845    3.4516    3.7353 C   0  0  0  0  0  0  0  0  0  0  0  0
   -0.7733    1.1420    4.0052 O   0  0  0  0  0  0  0  0  0  0  0  0
    5.2935    2.9281   -1.7827 H   0  0  0  0  0  0  0  0  0  0  0  0
    6.0690    1.3003   -1.8809 H   0  0  0  0  0  0  0  0  0  0  0  0
    6.6750    2.5205   -0.6876 H   0  0  0  0  0  0  0  0  0  0  0  0
    3.2273    1.3636    2.0013 H   0  0  0  0  0  0  0  0  0  0  0  0
    2.3848    2.9203    1.7129 H   0  0  0  0  0  0  0  0  0  0  0  0
    1.2475    1.9904   -0.2876 H   0  0  0  0  0  0  0  0  0  0  0  0
    0.8153    0.2368   -1.7046 H   0  0  0  0  0  0  0  0  0  0  0  0
    2.1620   -3.2359   -4.4999 H   0  0  0  0  0  0  0  0  0  0  0  0
    3.0107   -3.4895   -2.9256 H   0  0  0  0  0  0  0  0  0  0  0  0
    1.3615   -4.1875   -3.1827 H   0  0  0  0  0  0  0  0  0  0  0  0
    0.4174   -1.7543    0.6408 H   0  0  0  0  0  0  0  0  0  0  0  0
   -1.5213   -1.0128   -1.6107 H   0  0  0  0  0  0  0  0  0  0  0  0
   -2.0963   -4.6630   -2.0707 H   0  0  0  0  0  0  0  0  0  0  0  0
   -2.2733   -3.0422   -2.8394 H   0  0  0  0  0  0  0  0  0  0  0  0
   -1.1016    0.8668    0.0373 H   0  0  0  0  0  0  0  0  0  0  0  0
   -4.2421   -0.3825    3.0431 H   0  0  0  0  0  0  0  0  0  0  0  0
   -4.5422   -1.8111    1.9704 H   0  0  0  0  0  0  0  0  0  0  0  0
   -3.1493   -1.8224    3.1195 H   0  0  0  0  0  0  0  0  0  0  0  0
    0.9394    0.2755    2.2732 H   0  0  0  0  0  0  0  0  0  0  0  0
   -2.2165    3.2638    4.3090 H   0  0  0  0  0  0  0  0  0  0  0  0
   -0.5521    3.9737    4.3853 H   0  0  0  0  0  0  0  0  0  0  0  0
   -1.5239    4.0967    2.8641 H   0  0  0  0  0  0  0  0  0  0  0  0
  1  2  1  0  0  0  0
  1 29  1  0  0  0  0
  1 30  1  0  0  0  0
  1 31  1  0  0  0  0
  2  3  2  0  0  0  0
  2  4  1  0  0  0  0
  4  5  1  0  0  0  0
  5  6  1  0  0  0  0
  5 32  1  0  0  0  0
  5 33  1  0  0  0  0
  6  7  1  0  0  0  0
  6 34  1  6  0  0  0
  7  8  1  0  0  0  0
  8  9  1  0  0  0  0
  8 13  1  0  0  0  0
  8 35  1  6  0  0  0
  9 10  1  0  0  0  0
 10 11  1  0  0  0  0
 10 12  2  0  0  0  0
 11 36  1  0  0  0  0
 11 37  1  0  0  0  0
 11 38  1  0  0  0  0
 13 14  1  0  0  0  0
 13 19  1  0  0  0  0
 13 39  1  1  0  0  0
 14 15  1  0  0  0  0
 14 40  1  0  0  0  0
 15 16  2  0  0  0  0
 15 17  1  0  0  0  0
 17 18  1  0  0  0  0
 17 41  1  0  0  0  0
 17 42  1  0  0  0  0
 19 20  1  0  0  0  0
 19 24  1  0  0  0  0
 19 43  1  6  0  0  0
 20 21  1  0  0  0  0
 21 22  1  0  0  0  0
 21 23  2  0  0  0  0
 22 44  1  0  0  0  0
 22 45  1  0  0  0  0
 22 46  1  0  0  0  0
 24 25  1  0  0  0  0
 24  6  1  0  0  0  0
 24 47  1  1  0  0  0
 25 26  1  0  0  0  0
 26 27  1  0  0  0  0
 26 28  2  0  0  0  0
 27 48  1  0  0  0  0
 27 49  1  0  0  0  0
 27 50  1  0  0  0  0
M  END
>  <UniqueID>
157

>  <SMILES>
CC(=O)OC[C@H]1O[C@@H](OC(C)=O)[C@H](NC(=O)CBr)[C@@H](OC(C)=O)[C@@H]1OC(C)=O

>  <Energy>
30.814690817344417

>  <Genealogy>
CC(=O)OC[C@H]1O[C@@H](OC(C)=O)[C@H](NC(=O)CBr)[C@@H](OC(C)=O)[C@@H]1OC(C)=O (3D coordinates assigned)
CC(=O)OC[C@H]1O[C@@H](OC(C)=O)[C@H](NC(=O)CBr)[C@@H](OC(C)=O)[C@@H]1OC(C)=O (nonaromatic ring conformer: 30.814690817344417 kcal/mol)

$$$$
198514
 OpenBabel03032110343D

 50 50  0  0  0  0  0  0  0  0999 V2000
   -0.4152   -4.3040   -3.4620 H   0  0  0  0  0  0  0  0  0  0  0  0
   -0.2679   -3.4991   -4.0586 O   0  0  0  0  0  0  0  0  0  0  0  0
   -0.3913   -2.2014   -3.5656 C   0  0  0  0  0  0  0  0  0  0  0  0
   -0.1794   -1.1742   -4.3955 C   0  0  0  0  0  0  0  0  0  0  0  0
   -0.2794   -0.1502   -4.0722 H   0  0  0  0  0  0  0  0  0  0  0  0
    0.3121   -1.4552   -6.2223 Br  0  0  0  0  0  0  0  0  0  0  0  0
   -0.7521   -2.0146   -2.1820 N   0  0  0  0  0  0  0  0  0  0  0  0
   -1.0297   -2.8736   -1.6547 H   0  0  0  0  0  0  0  0  0  0  0  0
   -0.7288   -0.7308   -1.4602 C   0  0  1  0  0  0  0  0  0  0  0  0
   -1.2780    0.0200   -2.0646 H   0  0  0  0  0  0  0  0  0  0  0  0
   -1.4613   -0.8677   -0.1062 C   0  0  2  0  0  0  0  0  0  0  0  0
   -2.4481   -1.3407   -0.3065 H   0  0  0  0  0  0  0  0  0  0  0  0
   -1.7093    0.4084    0.4852 O   0  0  0  0  0  0  0  0  0  0  0  0
   -2.6757    1.3096    0.0249 C   0  0  0  0  0  0  0  0  0  0  0  0
   -3.4464    1.0044   -0.9251 O   0  0  0  0  0  0  0  0  0  0  0  0
   -2.8143    2.6370    0.6877 C   0  0  0  0  0  0  0  0  0  0  0  0
   -3.7768    2.6788    1.2386 H   0  0  0  0  0  0  0  0  0  0  0  0
   -2.7914    3.4421   -0.0763 H   0  0  0  0  0  0  0  0  0  0  0  0
   -1.9800    2.7954    1.4030 H   0  0  0  0  0  0  0  0  0  0  0  0
   -0.7870   -1.7257    0.8082 O   0  0  0  0  0  0  0  0  0  0  0  0
    0.5755   -1.3882    1.0578 C   0  0  2  0  0  0  0  0  0  0  0  0
    1.0201   -2.2833    1.5473 H   0  0  0  0  0  0  0  0  0  0  0  0
    0.7440   -0.2635    2.1066 C   0  0  0  0  0  0  0  0  0  0  0  0
    0.2136    0.6716    1.8447 H   0  0  0  0  0  0  0  0  0  0  0  0
    1.8199    0.0036    2.1698 H   0  0  0  0  0  0  0  0  0  0  0  0
    0.3554   -0.7200    3.4026 O   0  0  0  0  0  0  0  0  0  0  0  0
   -0.9629   -0.7338    3.8705 C   0  0  0  0  0  0  0  0  0  0  0  0
   -1.9025   -0.2562    3.1808 O   0  0  0  0  0  0  0  0  0  0  0  0
   -1.2630   -1.3417    5.1980 C   0  0  0  0  0  0  0  0  0  0  0  0
   -1.9620   -0.6902    5.7634 H   0  0  0  0  0  0  0  0  0  0  0  0
   -1.7275   -2.3390    5.0516 H   0  0  0  0  0  0  0  0  0  0  0  0
   -0.3277   -1.4589    5.7844 H   0  0  0  0  0  0  0  0  0  0  0  0
    1.4204   -1.1838   -0.2261 C   0  0  1  0  0  0  0  0  0  0  0  0
    2.4014   -0.7381    0.0542 H   0  0  0  0  0  0  0  0  0  0  0  0
    1.6664   -2.4609   -0.8223 O   0  0  0  0  0  0  0  0  0  0  0  0
    2.6618   -2.6941   -1.7783 C   0  0  0  0  0  0  0  0  0  0  0  0
    3.4700   -1.7838   -2.1068 O   0  0  0  0  0  0  0  0  0  0  0  0
    2.7775   -4.0411   -2.4051 C   0  0  0  0  0  0  0  0  0  0  0  0
    3.7378   -4.5102   -2.1061 H   0  0  0  0  0  0  0  0  0  0  0  0
    2.7436   -3.9429   -3.5104 H   0  0  0  0  0  0  0  0  0  0  0  0
    1.9383   -4.6894   -2.0761 H   0  0  0  0  0  0  0  0  0  0  0  0
    0.7180   -0.2543   -1.2264 C   0  0  2  0  0  0  0  0  0  0  0  0
    1.2846   -0.2690   -2.1816 H   0  0  0  0  0  0  0  0  0  0  0  0
    0.7377    1.0805   -0.7147 O   0  0  0  0  0  0  0  0  0  0  0  0
    0.4718    2.2164   -1.4864 C   0  0  0  0  0  0  0  0  0  0  0  0
    0.2815    2.1255   -2.7292 O   0  0  0  0  0  0  0  0  0  0  0  0
    0.4609    3.5569   -0.8358 C   0  0  0  0  0  0  0  0  0  0  0  0
    0.3468    3.4448    0.2628 H   0  0  0  0  0  0  0  0  0  0  0  0
   -0.3864    4.1597   -1.2247 H   0  0  0  0  0  0  0  0  0  0  0  0
    1.4151    4.0808   -1.0506 H   0  0  0  0  0  0  0  0  0  0  0  0
  1  2  1  0  0  0  0
  2  3  1  0  0  0  0
  3  4  2  0  0  0  0
  3  7  1  0  0  0  0
  4  5  1  0  0  0  0
  4  6  1  0  0  0  0
  7  8  1  0  0  0  0
  7  9  1  0  0  0  0
  9 10  1  6  0  0  0
  9 11  1  0  0  0  0
 11 12  1  6  0  0  0
 11 13  1  0  0  0  0
 11 20  1  0  0  0  0
 13 14  1  0  0  0  0
 14 15  2  0  0  0  0
 14 16  1  0  0  0  0
 16 17  1  0  0  0  0
 16 18  1  0  0  0  0
 16 19  1  0  0  0  0
 20 21  1  0  0  0  0
 21 22  1  1  0  0  0
 21 23  1  0  0  0  0
 21 33  1  0  0  0  0
 23 24  1  0  0  0  0
 23 25  1  0  0  0  0
 23 26  1  0  0  0  0
 26 27  1  0  0  0  0
 27 28  2  0  0  0  0
 27 29  1  0  0  0  0
 29 30  1  0  0  0  0
 29 31  1  0  0  0  0
 29 32  1  0  0  0  0
 33 34  1  1  0  0  0
 33 35  1  0  0  0  0
 33 42  1  0  0  0  0
 35 36  1  0  0  0  0
 36 37  2  0  0  0  0
 36 38  1  0  0  0  0
 38 39  1  0  0  0  0
 38 40  1  0  0  0  0
 38 41  1  0  0  0  0
 42 43  1  6  0  0  0
 42 44  1  0  0  0  0
 42  9  1  0  0  0  0
 44 45  1  0  0  0  0
 45 46  2  0  0  0  0
 45 47  1  0  0  0  0
 47 48  1  0  0  0  0
 47 49  1  0  0  0  0
 47 50  1  0  0  0  0
M  END
>  <UniqueID>
158

>  <SMILES>
CC(=O)OC[C@H]1O[C@@H](OC(C)=O)[C@H](N/C(O)=C/Br)[C@@H](OC(C)=O)[C@@H]1OC(C)=O

>  <Energy>
39.732460937053254

>  <Genealogy>
CC(=O)OC[C@H]1O[C@@H](OC(C)=O)[C@H](NC(O)=CBr)[C@@H](OC(C)=O)[C@@H]1OC(C)=O (tautomer)
CC(=O)OC[C@H]1O[C@@H](OC(C)=O)[C@H](N/C(O)=C/Br)[C@@H](OC(C)=O)[C@@H]1OC(C)=O (cis-trans isomerization)
CC(=O)OC[C@H]1O[C@@H](OC(C)=O)[C@H](N/C(O)=C/Br)[C@@H](OC(C)=O)[C@@H]1OC(C)=O (3D coordinates assigned)
CC(=O)OC[C@H]1O[C@@H](OC(C)=O)[C@H](N/C(O)=C/Br)[C@@H](OC(C)=O)[C@@H]1OC(C)=O (nonaromatic ring conformer: 39.732460937053254 kcal/mol)

$$$$
193108
 OpenBabel03032110343D

 30 30  0  0  0  0  0  0  0  0999 V2000
    2.8622   -2.5814    2.0973 H   0  0  0  0  0  0  0  0  0  0  0  0
    2.3551   -2.0079    1.4328 O   0  0  0  0  0  0  0  0  0  0  0  0
    2.9829   -1.3884    0.3511 C   0  0  0  0  0  0  0  0  0  0  0  0
    4.3028   -1.5579    0.1845 C   0  0  0  0  0  0  0  0  0  0  0  0
    4.8551   -2.1684    0.8874 H   0  0  0  0  0  0  0  0  0  0  0  0
    5.3177   -0.7788   -1.2425 Br  0  0  0  0  0  0  0  0  0  0  0  0
    2.2098   -0.5832   -0.5631 N   0  0  0  0  0  0  0  0  0  0  0  0
    2.6839   -0.1313   -1.3758 H   0  0  0  0  0  0  0  0  0  0  0  0
    0.7651   -0.3347   -0.4501 C   0  0  1  0  0  0  0  0  0  0  0  0
    0.4623    0.3088   -1.3079 H   0  0  0  0  0  0  0  0  0  0  0  0
   -0.0593   -1.6407   -0.5552 C   0  0  2  0  0  0  0  0  0  0  0  0
    0.2236   -2.3477    0.2539 H   0  0  0  0  0  0  0  0  0  0  0  0
    0.2161   -2.2841   -1.7718 O   0  0  0  0  0  0  0  0  0  0  0  0
   -0.1690   -1.7225   -2.4947 H   0  0  0  0  0  0  0  0  0  0  0  0
   -1.4501   -1.3621   -0.4752 O   0  0  0  0  0  0  0  0  0  0  0  0
   -1.7772   -0.8108    0.7921 C   0  0  2  0  0  0  0  0  0  0  0  0
   -1.4171   -1.4814    1.6085 H   0  0  0  0  0  0  0  0  0  0  0  0
   -3.3061   -0.7510    0.9459 C   0  0  0  0  0  0  0  0  0  0  0  0
   -3.5662   -0.2366    1.8957 H   0  0  0  0  0  0  0  0  0  0  0  0
   -3.7144   -1.7859    1.0115 H   0  0  0  0  0  0  0  0  0  0  0  0
   -3.9045   -0.0624   -0.1203 O   0  0  0  0  0  0  0  0  0  0  0  0
   -3.9678   -0.7024   -0.8765 H   0  0  0  0  0  0  0  0  0  0  0  0
   -1.1178    0.5798    0.9736 C   0  0  2  0  0  0  0  0  0  0  0  0
   -1.3415    0.9633    1.9986 H   0  0  0  0  0  0  0  0  0  0  0  0
   -1.5855    1.4749   -0.0065 O   0  0  0  0  0  0  0  0  0  0  0  0
   -2.2931    2.0291    0.4150 H   0  0  0  0  0  0  0  0  0  0  0  0
    0.4106    0.4238    0.8493 C   0  0  2  0  0  0  0  0  0  0  0  0
    0.7502   -0.1678    1.7244 H   0  0  0  0  0  0  0  0  0  0  0  0
    1.0579    1.6715    0.9140 O   0  0  0  0  0  0  0  0  0  0  0  0
    0.8342    2.1779    0.0901 H   0  0  0  0  0  0  0  0  0  0  0  0
  1  2  1  0  0  0  0
  2  3  1  0  0  0  0
  3  4  2  0  0  0  0
  3  7  1  0  0  0  0
  4  5  1  0  0  0  0
  4  6  1  0  0  0  0
  7  8  1  0  0  0  0
  7  9  1  0  0  0  0
  9 10  1  6  0  0  0
  9 11  1  0  0  0  0
 11 12  1  1  0  0  0
 11 13  1  0  0  0  0
 11 15  1  0  0  0  0
 13 14  1  0  0  0  0
 15 16  1  0  0  0  0
 16 17  1  1  0  0  0
 16 18  1  0  0  0  0
 16 23  1  0  0  0  0
 18 19  1  0  0  0  0
 18 20  1  0  0  0  0
 18 21  1  0  0  0  0
 21 22  1  0  0  0  0
 23 24  1  1  0  0  0
 23 25  1  0  0  0  0
 23 27  1  0  0  0  0
 25 26  1  0  0  0  0
 27 28  1  1  0  0  0
 27 29  1  0  0  0  0
 27  9  1  0  0  0  0
 29 30  1  0  0  0  0
M  END
>  <UniqueID>
159

>  <SMILES>
OC[C@H]1O[C@@H](O)[C@H](N/C(O)=C\Br)[C@@H](O)[C@H]1O

>  <Energy>
29.99736626791655

>  <Genealogy>
OC[C@H]1O[C@@H](O)[C@H](NC(O)=CBr)[C@@H](O)[C@H]1O (tautomer)
OC[C@H]1O[C@@H](O)[C@H](N/C(O)=C\Br)[C@@H](O)[C@H]1O (cis-trans isomerization)
OC[C@H]1O[C@@H](O)[C@H](N/C(O)=C\Br)[C@@H](O)[C@H]1O (3D coordinates assigned)
OC[C@H]1O[C@@H](O)[C@H](N/C(O)=C\Br)[C@@H](O)[C@H]1O (nonaromatic ring conformer: 29.99736626791655 kcal/mol)

$$$$
193108
 OpenBabel03032110343D

 30 30  0  0  0  0  0  0  0  0999 V2000
   -2.9344    1.5898    2.9484 O   0  0  0  0  0  0  0  0  0  0  0  0
   -2.0172    0.9660    3.5483 C   0  0  0  0  0  0  0  0  0  0  0  0
   -2.1617    0.6687    5.0058 C   0  0  0  0  0  0  0  0  0  0  0  0
   -1.2115    2.0014    6.0378 Br  0  0  0  0  0  0  0  0  0  0  0  0
   -0.8227    0.5828    2.8511 N   0  0  0  0  0  0  0  0  0  0  0  0
   -0.6242    0.8713    1.4246 C   0  0  1  0  0  0  0  0  0  0  0  0
    0.8751    0.7606    1.0496 C   0  0  2  0  0  0  0  0  0  0  0  0
    1.5167    1.9686    1.3564 O   0  0  0  0  0  0  0  0  0  0  0  0
    0.9975    0.5067   -0.3371 O   0  0  0  0  0  0  0  0  0  0  0  0
    0.6456   -0.8392   -0.6388 C   0  0  2  0  0  0  0  0  0  0  0  0
    0.5633   -0.9661   -2.1687 C   0  0  0  0  0  0  0  0  0  0  0  0
    0.5646   -2.3159   -2.5463 O   0  0  0  0  0  0  0  0  0  0  0  0
   -0.6671   -1.2953    0.0908 C   0  0  2  0  0  0  0  0  0  0  0  0
   -1.4513   -2.1390   -0.7158 O   0  0  0  0  0  0  0  0  0  0  0  0
   -1.4912   -0.0780    0.5509 C   0  0  2  0  0  0  0  0  0  0  0  0
   -1.9693    0.6092   -0.5783 O   0  0  0  0  0  0  0  0  0  0  0  0
   -3.2335    0.6793    5.2971 H   0  0  0  0  0  0  0  0  0  0  0  0
   -1.7443   -0.3351    5.2308 H   0  0  0  0  0  0  0  0  0  0  0  0
   -0.0621    0.1235    3.4018 H   0  0  0  0  0  0  0  0  0  0  0  0
   -0.9453    1.9210    1.2343 H   0  0  0  0  0  0  0  0  0  0  0  0
    1.3658   -0.0552    1.6366 H   0  0  0  0  0  0  0  0  0  0  0  0
    2.4830    1.8260    1.1792 H   0  0  0  0  0  0  0  0  0  0  0  0
    1.4797   -1.5005   -0.3081 H   0  0  0  0  0  0  0  0  0  0  0  0
   -0.3546   -0.4611   -2.5448 H   0  0  0  0  0  0  0  0  0  0  0  0
    1.4474   -0.4644   -2.6228 H   0  0  0  0  0  0  0  0  0  0  0  0
    0.4875   -2.3252   -3.5356 H   0  0  0  0  0  0  0  0  0  0  0  0
   -0.3605   -1.8593    1.0044 H   0  0  0  0  0  0  0  0  0  0  0  0
   -2.0941   -2.5987   -0.1145 H   0  0  0  0  0  0  0  0  0  0  0  0
   -2.3600   -0.4555    1.1401 H   0  0  0  0  0  0  0  0  0  0  0  0
   -2.7222    1.1786   -0.2703 H   0  0  0  0  0  0  0  0  0  0  0  0
  1  2  2  0  0  0  0
  2  3  1  0  0  0  0
  2  5  1  0  0  0  0
  3  4  1  0  0  0  0
  3 17  1  0  0  0  0
  3 18  1  0  0  0  0
  5  6  1  0  0  0  0
  5 19  1  0  0  0  0
  6  7  1  0  0  0  0
  6 20  1  6  0  0  0
  7  8  1  0  0  0  0
  7  9  1  0  0  0  0
  7 21  1  1  0  0  0
  8 22  1  0  0  0  0
  9 10  1  0  0  0  0
 10 11  1  0  0  0  0
 10 13  1  0  0  0  0
 10 23  1  1  0  0  0
 11 12  1  0  0  0  0
 11 24  1  0  0  0  0
 11 25  1  0  0  0  0
 12 26  1  0  0  0  0
 13 14  1  0  0  0  0
 13 15  1  0  0  0  0
 13 27  1  1  0  0  0
 14 28  1  0  0  0  0
 15 16  1  0  0  0  0
 15  6  1  0  0  0  0
 15 29  1  1  0  0  0
 16 30  1  0  0  0  0
M  END
>  <UniqueID>
160

>  <SMILES>
O=C(CBr)N[C@H]1[C@H](O)O[C@H](CO)[C@H](O)[C@@H]1O

>  <Energy>
33.39660730096021

>  <Genealogy>
O=C(CBr)N[C@H]1[C@H](O)O[C@H](CO)[C@H](O)[C@@H]1O (3D coordinates assigned)
O=C(CBr)N[C@H]1[C@H](O)O[C@H](CO)[C@H](O)[C@@H]1O (nonaromatic ring conformer: 33.39660730096021 kcal/mol)

$$$$
129618
 OpenBabel03032110343D

 50 50  0  0  0  0  0  0  0  0999 V2000
    1.8492   -1.1882   -3.7397 H   0  0  0  0  0  0  0  0  0  0  0  0
    1.4832   -1.0958   -2.7989 O   0  0  0  0  0  0  0  0  0  0  0  0
    2.1745   -1.5707   -1.6824 C   0  0  0  0  0  0  0  0  0  0  0  0
    3.3607   -2.1702   -1.8529 C   0  0  0  0  0  0  0  0  0  0  0  0
    3.7675   -2.2781   -2.8501 H   0  0  0  0  0  0  0  0  0  0  0  0
    4.3137   -2.8232   -0.5271 Cl  0  0  0  0  0  0  0  0  0  0  0  0
    1.6027   -1.4032   -0.3722 N   0  0  0  0  0  0  0  0  0  0  0  0
    2.1623   -1.6370    0.4784 H   0  0  0  0  0  0  0  0  0  0  0  0
    0.2717   -0.8281   -0.1590 C   0  0  1  0  0  0  0  0  0  0  0  0
   -0.2525   -0.6832   -1.1296 H   0  0  0  0  0  0  0  0  0  0  0  0
   -0.5894   -1.7832    0.6976 C   0  0  2  0  0  0  0  0  0  0  0  0
   -0.0872   -1.9975    1.6709 H   0  0  0  0  0  0  0  0  0  0  0  0
   -0.7867   -3.0097   -0.0082 O   0  0  0  0  0  0  0  0  0  0  0  0
    0.0964   -4.0952    0.0411 C   0  0  0  0  0  0  0  0  0  0  0  0
    1.0667   -4.1065    0.8462 O   0  0  0  0  0  0  0  0  0  0  0  0
   -0.1508   -5.2796   -0.8289 C   0  0  0  0  0  0  0  0  0  0  0  0
   -0.7485   -4.9802   -1.7152 H   0  0  0  0  0  0  0  0  0  0  0  0
   -0.7078   -6.0498   -0.2562 H   0  0  0  0  0  0  0  0  0  0  0  0
    0.8145   -5.7053   -1.1756 H   0  0  0  0  0  0  0  0  0  0  0  0
   -1.8631   -1.2104    0.9313 O   0  0  0  0  0  0  0  0  0  0  0  0
   -1.7489   -0.0368    1.7176 C   0  0  2  0  0  0  0  0  0  0  0  0
   -1.2069   -0.2544    2.6684 H   0  0  0  0  0  0  0  0  0  0  0  0
   -3.1575    0.4258    2.1095 C   0  0  0  0  0  0  0  0  0  0  0  0
   -3.6520   -0.3771    2.6988 H   0  0  0  0  0  0  0  0  0  0  0  0
   -3.0976    1.3359    2.7456 H   0  0  0  0  0  0  0  0  0  0  0  0
   -3.9312    0.7011    0.9447 O   0  0  0  0  0  0  0  0  0  0  0  0
   -5.2530    1.1497    1.0058 C   0  0  0  0  0  0  0  0  0  0  0  0
   -5.8152    1.3496    2.1168 O   0  0  0  0  0  0  0  0  0  0  0  0
   -5.9878    1.4431   -0.2576 C   0  0  0  0  0  0  0  0  0  0  0  0
   -5.9126    2.5265   -0.4856 H   0  0  0  0  0  0  0  0  0  0  0  0
   -7.0571    1.1633   -0.1508 H   0  0  0  0  0  0  0  0  0  0  0  0
   -5.5474    0.8630   -1.0955 H   0  0  0  0  0  0  0  0  0  0  0  0
   -0.9942    1.0619    0.9360 C   0  0  1  0  0  0  0  0  0  0  0  0
   -1.5746    1.3080    0.0174 H   0  0  0  0  0  0  0  0  0  0  0  0
   -0.8600    2.2225    1.7604 O   0  0  0  0  0  0  0  0  0  0  0  0
   -0.6965    3.5189    1.2592 C   0  0  0  0  0  0  0  0  0  0  0  0
   -0.7166    3.7421    0.0184 O   0  0  0  0  0  0  0  0  0  0  0  0
   -0.4620    4.6457    2.2061 C   0  0  0  0  0  0  0  0  0  0  0  0
    0.6261    4.8544    2.2689 H   0  0  0  0  0  0  0  0  0  0  0  0
   -0.8408    4.3787    3.2149 H   0  0  0  0  0  0  0  0  0  0  0  0
   -0.9912    5.5560    1.8536 H   0  0  0  0  0  0  0  0  0  0  0  0
    0.3974    0.5425    0.5351 C   0  0  2  0  0  0  0  0  0  0  0  0
    1.0045    0.4387    1.4640 H   0  0  0  0  0  0  0  0  0  0  0  0
    1.0103    1.4815   -0.3510 O   0  0  0  0  0  0  0  0  0  0  0  0
    2.3928    1.6714   -0.4547 C   0  0  0  0  0  0  0  0  0  0  0  0
    3.1917    1.0522    0.2992 O   0  0  0  0  0  0  0  0  0  0  0  0
    2.9276    2.5886   -1.5002 C   0  0  0  0  0  0  0  0  0  0  0  0
    3.8321    3.1114   -1.1238 H   0  0  0  0  0  0  0  0  0  0  0  0
    3.1915    2.0019   -2.4045 H   0  0  0  0  0  0  0  0  0  0  0  0
    2.1608    3.3457   -1.7673 H   0  0  0  0  0  0  0  0  0  0  0  0
  1  2  1  0  0  0  0
  2  3  1  0  0  0  0
  3  4  2  0  0  0  0
  3  7  1  0  0  0  0
  4  5  1  0  0  0  0
  4  6  1  0  0  0  0
  7  8  1  0  0  0  0
  7  9  1  0  0  0  0
  9 10  1  6  0  0  0
  9 11  1  0  0  0  0
 11 12  1  1  0  0  0
 11 13  1  0  0  0  0
 11 20  1  0  0  0  0
 13 14  1  0  0  0  0
 14 15  2  0  0  0  0
 14 16  1  0  0  0  0
 16 17  1  0  0  0  0
 16 18  1  0  0  0  0
 16 19  1  0  0  0  0
 20 21  1  0  0  0  0
 21 22  1  1  0  0  0
 21 23  1  0  0  0  0
 21 33  1  0  0  0  0
 23 24  1  0  0  0  0
 23 25  1  0  0  0  0
 23 26  1  0  0  0  0
 26 27  1  0  0  0  0
 27 28  2  0  0  0  0
 27 29  1  0  0  0  0
 29 30  1  0  0  0  0
 29 31  1  0  0  0  0
 29 32  1  0  0  0  0
 33 34  1  6  0  0  0
 33 35  1  0  0  0  0
 33 42  1  0  0  0  0
 35 36  1  0  0  0  0
 36 37  2  0  0  0  0
 36 38  1  0  0  0  0
 38 39  1  0  0  0  0
 38 40  1  0  0  0  0
 38 41  1  0  0  0  0
 42 43  1  1  0  0  0
 42 44  1  0  0  0  0
 42  9  1  0  0  0  0
 44 45  1  0  0  0  0
 45 46  2  0  0  0  0
 45 47  1  0  0  0  0
 47 48  1  0  0  0  0
 47 49  1  0  0  0  0
 47 50  1  0  0  0  0
M  END
>  <UniqueID>
161

>  <SMILES>
CC(=O)OC[C@H]1O[C@@H](OC(C)=O)[C@H](N/C(O)=C/Cl)[C@@H](OC(C)=O)[C@@H]1OC(C)=O

>  <Energy>
32.01097436848456

>  <Genealogy>
CC(=O)OC[C@H]1O[C@@H](OC(C)=O)[C@H](NC(O)=CCl)[C@@H](OC(C)=O)[C@@H]1OC(C)=O (tautomer)
CC(=O)OC[C@H]1O[C@@H](OC(C)=O)[C@H](N/C(O)=C/Cl)[C@@H](OC(C)=O)[C@@H]1OC(C)=O (cis-trans isomerization)
CC(=O)OC[C@H]1O[C@@H](OC(C)=O)[C@H](N/C(O)=C/Cl)[C@@H](OC(C)=O)[C@@H]1OC(C)=O (3D coordinates assigned)
CC(=O)OC[C@H]1O[C@@H](OC(C)=O)[C@H](N/C(O)=C/Cl)[C@@H](OC(C)=O)[C@@H]1OC(C)=O (nonaromatic ring conformer: 32.01097436848456 kcal/mol)

$$$$
129618
 OpenBabel03032110343D

 50 50  0  0  0  0  0  0  0  0999 V2000
   -2.4255    1.0085    3.3276 H   0  0  0  0  0  0  0  0  0  0  0  0
   -2.2261    0.9817    2.3340 O   0  0  0  0  0  0  0  0  0  0  0  0
   -3.2246    0.7848    1.3789 C   0  0  0  0  0  0  0  0  0  0  0  0
   -4.4916    0.6286    1.7875 C   0  0  0  0  0  0  0  0  0  0  0  0
   -4.7194    0.6558    2.8451 H   0  0  0  0  0  0  0  0  0  0  0  0
   -5.8401    0.3637    0.6905 Cl  0  0  0  0  0  0  0  0  0  0  0  0
   -2.8820    0.7628   -0.0225 N   0  0  0  0  0  0  0  0  0  0  0  0
   -3.6433    0.7194   -0.7358 H   0  0  0  0  0  0  0  0  0  0  0  0
   -1.5096    0.7565   -0.5491 C   0  0  1  0  0  0  0  0  0  0  0  0
   -1.5709    0.6695   -1.6587 H   0  0  0  0  0  0  0  0  0  0  0  0
   -0.7580    2.0735   -0.2461 C   0  0  2  0  0  0  0  0  0  0  0  0
   -0.6709    2.2504    0.8494 H   0  0  0  0  0  0  0  0  0  0  0  0
   -1.4556    3.1652   -0.8486 O   0  0  0  0  0  0  0  0  0  0  0  0
   -2.4420    3.9224   -0.2052 C   0  0  0  0  0  0  0  0  0  0  0  0
   -2.6690    3.7818    1.0267 O   0  0  0  0  0  0  0  0  0  0  0  0
   -3.1880    4.9573   -0.9757 C   0  0  0  0  0  0  0  0  0  0  0  0
   -2.7146    5.9485   -0.8191 H   0  0  0  0  0  0  0  0  0  0  0  0
   -4.2449    4.9963   -0.6363 H   0  0  0  0  0  0  0  0  0  0  0  0
   -3.1688    4.7105   -2.0579 H   0  0  0  0  0  0  0  0  0  0  0  0
    0.5375    2.0258   -0.8168 O   0  0  0  0  0  0  0  0  0  0  0  0
    1.3220    1.0094   -0.2140 C   0  0  2  0  0  0  0  0  0  0  0  0
    1.3584    1.1502    0.8924 H   0  0  0  0  0  0  0  0  0  0  0  0
    2.7577    1.1472   -0.7377 C   0  0  0  0  0  0  0  0  0  0  0  0
    3.1011    2.1948   -0.5916 H   0  0  0  0  0  0  0  0  0  0  0  0
    2.7882    0.9144   -1.8253 H   0  0  0  0  0  0  0  0  0  0  0  0
    3.6297    0.2712   -0.0292 O   0  0  0  0  0  0  0  0  0  0  0  0
    4.9852    0.1381   -0.3374 C   0  0  0  0  0  0  0  0  0  0  0  0
    5.5056    0.8172   -1.2637 O   0  0  0  0  0  0  0  0  0  0  0  0
    5.8081   -0.8613    0.4016 C   0  0  0  0  0  0  0  0  0  0  0  0
    6.8580   -0.5090    0.4835 H   0  0  0  0  0  0  0  0  0  0  0  0
    5.3975   -1.0073    1.4226 H   0  0  0  0  0  0  0  0  0  0  0  0
    5.7861   -1.8297   -0.1402 H   0  0  0  0  0  0  0  0  0  0  0  0
    0.7350   -0.3841   -0.5469 C   0  0  1  0  0  0  0  0  0  0  0  0
    0.7454   -0.5098   -1.6539 H   0  0  0  0  0  0  0  0  0  0  0  0
    1.5213   -1.3985    0.0831 O   0  0  0  0  0  0  0  0  0  0  0  0
    1.8199   -2.6330   -0.5045 C   0  0  0  0  0  0  0  0  0  0  0  0
    1.3690   -2.9368   -1.6422 O   0  0  0  0  0  0  0  0  0  0  0  0
    2.6533   -3.6162    0.2433 C   0  0  0  0  0  0  0  0  0  0  0  0
    2.0001   -4.4070    0.6679 H   0  0  0  0  0  0  0  0  0  0  0  0
    3.1933   -3.1066    1.0692 H   0  0  0  0  0  0  0  0  0  0  0  0
    3.3974   -4.0787   -0.4394 H   0  0  0  0  0  0  0  0  0  0  0  0
   -0.7164   -0.4606   -0.0396 C   0  0  2  0  0  0  0  0  0  0  0  0
   -0.6986   -0.4475    1.0706 H   0  0  0  0  0  0  0  0  0  0  0  0
   -1.3470   -1.6542   -0.5093 O   0  0  0  0  0  0  0  0  0  0  0  0
   -1.3763   -2.8549    0.2099 C   0  0  0  0  0  0  0  0  0  0  0  0
   -0.8622   -2.9362    1.3584 O   0  0  0  0  0  0  0  0  0  0  0  0
   -1.9906   -4.0642   -0.4070 C   0  0  0  0  0  0  0  0  0  0  0  0
   -2.6450   -4.5737    0.3312 H   0  0  0  0  0  0  0  0  0  0  0  0
   -2.5997   -3.7752   -1.2891 H   0  0  0  0  0  0  0  0  0  0  0  0
   -1.1893   -4.7608   -0.7309 H   0  0  0  0  0  0  0  0  0  0  0  0
  1  2  1  0  0  0  0
  2  3  1  0  0  0  0
  3  4  2  0  0  0  0
  3  7  1  0  0  0  0
  4  5  1  0  0  0  0
  4  6  1  0  0  0  0
  7  8  1  0  0  0  0
  7  9  1  0  0  0  0
  9 10  1  6  0  0  0
  9 11  1  0  0  0  0
 11 12  1  1  0  0  0
 11 13  1  0  0  0  0
 11 20  1  0  0  0  0
 13 14  1  0  0  0  0
 14 15  2  0  0  0  0
 14 16  1  0  0  0  0
 16 17  1  0  0  0  0
 16 18  1  0  0  0  0
 16 19  1  0  0  0  0
 20 21  1  0  0  0  0
 21 22  1  1  0  0  0
 21 23  1  0  0  0  0
 21 33  1  0  0  0  0
 23 24  1  0  0  0  0
 23 25  1  0  0  0  0
 23 26  1  0  0  0  0
 26 27  1  0  0  0  0
 27 28  2  0  0  0  0
 27 29  1  0  0  0  0
 29 30  1  0  0  0  0
 29 31  1  0  0  0  0
 29 32  1  0  0  0  0
 33 34  1  6  0  0  0
 33 35  1  0  0  0  0
 33 42  1  0  0  0  0
 35 36  1  0  0  0  0
 36 37  2  0  0  0  0
 36 38  1  0  0  0  0
 38 39  1  0  0  0  0
 38 40  1  0  0  0  0
 38 41  1  0  0  0  0
 42 43  1  1  0  0  0
 42 44  1  0  0  0  0
 42  9  1  0  0  0  0
 44 45  1  0  0  0  0
 45 46  2  0  0  0  0
 45 47  1  0  0  0  0
 47 48  1  0  0  0  0
 47 49  1  0  0  0  0
 47 50  1  0  0  0  0
M  END
>  <UniqueID>
162

>  <SMILES>
CC(=O)OC[C@H]1O[C@@H](OC(C)=O)[C@H](N/C(O)=C\Cl)[C@@H](OC(C)=O)[C@@H]1OC(C)=O

>  <Energy>
34.55793289347701

>  <Genealogy>
CC(=O)OC[C@H]1O[C@@H](OC(C)=O)[C@H](NC(O)=CCl)[C@@H](OC(C)=O)[C@@H]1OC(C)=O (tautomer)
CC(=O)OC[C@H]1O[C@@H](OC(C)=O)[C@H](N/C(O)=C\Cl)[C@@H](OC(C)=O)[C@@H]1OC(C)=O (cis-trans isomerization)
CC(=O)OC[C@H]1O[C@@H](OC(C)=O)[C@H](N/C(O)=C\Cl)[C@@H](OC(C)=O)[C@@H]1OC(C)=O (3D coordinates assigned)
CC(=O)OC[C@H]1O[C@@H](OC(C)=O)[C@H](N/C(O)=C\Cl)[C@@H](OC(C)=O)[C@@H]1OC(C)=O (nonaromatic ring conformer: 34.55793289347701 kcal/mol)

$$$$
127132
 OpenBabel03032110343D

 50 50  0  0  0  0  0  0  0  0999 V2000
   -3.5857    0.4678    3.2225 C   0  0  0  0  0  0  0  0  0  0  0  0
   -3.2382   -0.0631    1.8704 C   0  0  0  0  0  0  0  0  0  0  0  0
   -4.1582   -0.3188    1.0473 O   0  0  0  0  0  0  0  0  0  0  0  0
   -1.8630   -0.2691    1.5178 N   0  0  0  0  0  0  0  0  0  0  0  0
   -1.4322   -0.6459    0.1651 C   0  0  2  0  0  0  0  0  0  0  0  0
   -0.3322   -1.7198    0.2484 C   0  0  1  0  0  0  0  0  0  0  0  0
   -0.0923   -2.2944   -1.0390 O   0  0  0  0  0  0  0  0  0  0  0  0
    0.7640   -3.3820   -1.2378 C   0  0  0  0  0  0  0  0  0  0  0  0
    0.9770   -3.9059   -2.6166 C   0  0  0  0  0  0  0  0  0  0  0  0
    1.3264   -3.9474   -0.2608 O   0  0  0  0  0  0  0  0  0  0  0  0
    0.8611   -1.1961    0.8104 O   0  0  0  0  0  0  0  0  0  0  0  0
    1.4076   -0.1594    0.0098 C   0  0  2  0  0  0  0  0  0  0  0  0
    2.7623    0.2563    0.6045 C   0  0  0  0  0  0  0  0  0  0  0  0
    3.6951   -0.8217    0.5300 O   0  0  0  0  0  0  0  0  0  0  0  0
    3.7763   -1.8470    1.4792 C   0  0  0  0  0  0  0  0  0  0  0  0
    4.6967   -2.9950    1.2407 C   0  0  0  0  0  0  0  0  0  0  0  0
    3.0600   -1.8280    2.5168 O   0  0  0  0  0  0  0  0  0  0  0  0
    0.4445    1.0470   -0.0521 C   0  0  1  0  0  0  0  0  0  0  0  0
    0.9968    2.0500   -0.9091 O   0  0  0  0  0  0  0  0  0  0  0  0
    0.6634    3.4071   -0.8342 C   0  0  0  0  0  0  0  0  0  0  0  0
    1.2506    4.3593   -1.8189 C   0  0  0  0  0  0  0  0  0  0  0  0
   -0.0811    3.8417    0.0861 O   0  0  0  0  0  0  0  0  0  0  0  0
   -0.9181    0.5889   -0.6034 C   0  0  2  0  0  0  0  0  0  0  0  0
   -1.8571    1.6614   -0.5136 O   0  0  0  0  0  0  0  0  0  0  0  0
   -3.0549    1.7029   -1.2344 C   0  0  0  0  0  0  0  0  0  0  0  0
   -3.9877    2.8479   -1.0361 C   0  0  0  0  0  0  0  0  0  0  0  0
   -3.3333    0.8088   -2.0788 O   0  0  0  0  0  0  0  0  0  0  0  0
   -4.6877    0.5155    3.3534 H   0  0  0  0  0  0  0  0  0  0  0  0
   -3.1641    1.4881    3.3385 H   0  0  0  0  0  0  0  0  0  0  0  0
   -3.1589   -0.1953    4.0037 H   0  0  0  0  0  0  0  0  0  0  0  0
   -1.1345   -0.0337    2.2297 H   0  0  0  0  0  0  0  0  0  0  0  0
   -2.2871   -1.0850   -0.3943 H   0  0  0  0  0  0  0  0  0  0  0  0
   -0.7021   -2.5258    0.9199 H   0  0  0  0  0  0  0  0  0  0  0  0
    0.2868   -4.7551   -2.8003 H   0  0  0  0  0  0  0  0  0  0  0  0
    2.0256   -4.2518   -2.7352 H   0  0  0  0  0  0  0  0  0  0  0  0
    0.7776   -3.1059   -3.3602 H   0  0  0  0  0  0  0  0  0  0  0  0
    1.6086   -0.5224   -1.0246 H   0  0  0  0  0  0  0  0  0  0  0  0
    2.6454    0.6013    1.6557 H   0  0  0  0  0  0  0  0  0  0  0  0
    3.1798    1.1020    0.0183 H   0  0  0  0  0  0  0  0  0  0  0  0
    5.5050   -2.6946    0.5415 H   0  0  0  0  0  0  0  0  0  0  0  0
    5.1540   -3.3224    2.1981 H   0  0  0  0  0  0  0  0  0  0  0  0
    4.1278   -3.8387    0.7982 H   0  0  0  0  0  0  0  0  0  0  0  0
    0.3204    1.4536    0.9772 H   0  0  0  0  0  0  0  0  0  0  0  0
    0.5438    5.1937   -2.0130 H   0  0  0  0  0  0  0  0  0  0  0  0
    1.4561    3.8343   -2.7753 H   0  0  0  0  0  0  0  0  0  0  0  0
    2.2002    4.7684   -1.4160 H   0  0  0  0  0  0  0  0  0  0  0  0
   -0.7782    0.3150   -1.6745 H   0  0  0  0  0  0  0  0  0  0  0  0
   -5.0391    2.5077   -1.1459 H   0  0  0  0  0  0  0  0  0  0  0  0
   -3.7742    3.6334   -1.7902 H   0  0  0  0  0  0  0  0  0  0  0  0
   -3.8532    3.2721   -0.0189 H   0  0  0  0  0  0  0  0  0  0  0  0
  1  2  1  0  0  0  0
  1 28  1  0  0  0  0
  1 29  1  0  0  0  0
  1 30  1  0  0  0  0
  2  3  2  0  0  0  0
  2  4  1  0  0  0  0
  4  5  1  0  0  0  0
  4 31  1  0  0  0  0
  5  6  1  0  0  0  0
  5 32  1  6  0  0  0
  6  7  1  0  0  0  0
  6 11  1  0  0  0  0
  6 33  1  1  0  0  0
  7  8  1  0  0  0  0
  8  9  1  0  0  0  0
  8 10  2  0  0  0  0
  9 34  1  0  0  0  0
  9 35  1  0  0  0  0
  9 36  1  0  0  0  0
 11 12  1  0  0  0  0
 12 13  1  0  0  0  0
 12 18  1  0  0  0  0
 12 37  1  6  0  0  0
 13 14  1  0  0  0  0
 13 38  1  0  0  0  0
 13 39  1  0  0  0  0
 14 15  1  0  0  0  0
 15 16  1  0  0  0  0
 15 17  2  0  0  0  0
 16 40  1  0  0  0  0
 16 41  1  0  0  0  0
 16 42  1  0  0  0  0
 18 19  1  0  0  0  0
 18 23  1  0  0  0  0
 18 43  1  1  0  0  0
 19 20  1  0  0  0  0
 20 21  1  0  0  0  0
 20 22  2  0  0  0  0
 21 44  1  0  0  0  0
 21 45  1  0  0  0  0
 21 46  1  0  0  0  0
 23 24  1  0  0  0  0
 23  5  1  0  0  0  0
 23 47  1  6  0  0  0
 24 25  1  0  0  0  0
 25 26  1  0  0  0  0
 25 27  2  0  0  0  0
 26 48  1  0  0  0  0
 26 49  1  0  0  0  0
 26 50  1  0  0  0  0
M  END
>  <UniqueID>
163

>  <SMILES>
CC(=O)N[C@@H]1[C@@H](OC(C)=O)O[C@H](COC(C)=O)[C@@H](OC(C)=O)[C@@H]1OC(C)=O

>  <Energy>
31.019925653160854

>  <Genealogy>
CC(=O)N[C@@H]1[C@@H](OC(C)=O)O[C@H](COC(C)=O)[C@@H](OC(C)=O)[C@@H]1OC(C)=O (chirality)
CC(=O)N[C@@H]1[C@@H](OC(C)=O)O[C@H](COC(C)=O)[C@@H](OC(C)=O)[C@@H]1OC(C)=O (3D coordinates assigned)
CC(=O)N[C@@H]1[C@@H](OC(C)=O)O[C@H](COC(C)=O)[C@@H](OC(C)=O)[C@@H]1OC(C)=O (nonaromatic ring conformer: 31.019925653160854 kcal/mol)

$$$$
127132
 OpenBabel03032110343D

 50 50  0  0  0  0  0  0  0  0999 V2000
   -4.4586   -0.2324   -3.0178 H   0  0  0  0  0  0  0  0  0  0  0  0
   -3.5505    0.0976   -2.7138 O   0  0  0  0  0  0  0  0  0  0  0  0
   -3.2433    0.2530   -1.3644 C   0  0  0  0  0  0  0  0  0  0  0  0
   -2.0610    0.6989   -1.0482 N   0  0  0  0  0  0  0  0  0  0  0  0
   -1.5333    0.9214    0.3047 C   0  0  2  0  0  0  0  0  0  0  0  0
   -2.3587    1.0569    1.0351 H   0  0  0  0  0  0  0  0  0  0  0  0
   -0.6769    2.2038    0.3120 C   0  0  2  0  0  0  0  0  0  0  0  0
   -0.3380    2.4339    1.3502 H   0  0  0  0  0  0  0  0  0  0  0  0
   -1.4507    3.3071   -0.1601 O   0  0  0  0  0  0  0  0  0  0  0  0
   -2.4630    3.9206    0.5869 C   0  0  0  0  0  0  0  0  0  0  0  0
   -2.6816    3.5818    1.7817 O   0  0  0  0  0  0  0  0  0  0  0  0
   -3.2550    5.0268   -0.0219 C   0  0  0  0  0  0  0  0  0  0  0  0
   -3.2334    4.9435   -1.1287 H   0  0  0  0  0  0  0  0  0  0  0  0
   -4.3099    4.9733    0.3207 H   0  0  0  0  0  0  0  0  0  0  0  0
   -2.8200    6.0023    0.2790 H   0  0  0  0  0  0  0  0  0  0  0  0
    0.4412    2.0495   -0.5432 O   0  0  0  0  0  0  0  0  0  0  0  0
    1.3251    1.0613   -0.0398 C   0  0  2  0  0  0  0  0  0  0  0  0
    1.6331    1.3135    1.0028 H   0  0  0  0  0  0  0  0  0  0  0  0
    2.5933    1.0775   -0.9026 C   0  0  0  0  0  0  0  0  0  0  0  0
    2.9379    2.1276   -1.0269 H   0  0  0  0  0  0  0  0  0  0  0  0
    2.3755    0.6578   -1.9095 H   0  0  0  0  0  0  0  0  0  0  0  0
    3.6278    0.3272   -0.2737 O   0  0  0  0  0  0  0  0  0  0  0  0
    4.8776    0.1204   -0.8626 C   0  0  0  0  0  0  0  0  0  0  0  0
    5.1481    0.6130   -1.9914 O   0  0  0  0  0  0  0  0  0  0  0  0
    5.8822   -0.7356   -0.1699 C   0  0  0  0  0  0  0  0  0  0  0  0
    6.8945   -0.2908   -0.2706 H   0  0  0  0  0  0  0  0  0  0  0  0
    5.8787   -1.7490   -0.6222 H   0  0  0  0  0  0  0  0  0  0  0  0
    5.6315   -0.8190    0.9084 H   0  0  0  0  0  0  0  0  0  0  0  0
    0.6396   -0.3286   -0.0597 C   0  0  1  0  0  0  0  0  0  0  0  0
    0.3799   -0.5927   -1.1099 H   0  0  0  0  0  0  0  0  0  0  0  0
    1.5007   -1.3140    0.5168 O   0  0  0  0  0  0  0  0  0  0  0  0
    2.1728   -2.2973   -0.2194 C   0  0  0  0  0  0  0  0  0  0  0  0
    2.0245   -2.3901   -1.4681 O   0  0  0  0  0  0  0  0  0  0  0  0
    3.0417   -3.2748    0.4947 C   0  0  0  0  0  0  0  0  0  0  0  0
    3.8578   -3.6233   -0.1730 H   0  0  0  0  0  0  0  0  0  0  0  0
    3.4921   -2.7942    1.3883 H   0  0  0  0  0  0  0  0  0  0  0  0
    2.4318   -4.1446    0.8156 H   0  0  0  0  0  0  0  0  0  0  0  0
   -0.6689   -0.2726    0.7522 C   0  0  2  0  0  0  0  0  0  0  0  0
   -0.4273   -0.1274    1.8303 H   0  0  0  0  0  0  0  0  0  0  0  0
   -1.4066   -1.4853    0.5857 O   0  0  0  0  0  0  0  0  0  0  0  0
   -1.1650   -2.6545    1.3152 C   0  0  0  0  0  0  0  0  0  0  0  0
   -0.3334   -2.6676    2.2629 O   0  0  0  0  0  0  0  0  0  0  0  0
   -1.9482   -3.8838    1.0055 C   0  0  0  0  0  0  0  0  0  0  0  0
   -1.3020   -4.7814    1.1046 H   0  0  0  0  0  0  0  0  0  0  0  0
   -2.8022   -3.9654    1.7094 H   0  0  0  0  0  0  0  0  0  0  0  0
   -2.3361   -3.8339   -0.0336 H   0  0  0  0  0  0  0  0  0  0  0  0
   -4.2873   -0.0665   -0.3286 C   0  0  0  0  0  0  0  0  0  0  0  0
   -4.6084    0.8669    0.1792 H   0  0  0  0  0  0  0  0  0  0  0  0
   -5.1776   -0.5291   -0.8027 H   0  0  0  0  0  0  0  0  0  0  0  0
   -3.8905   -0.7814    0.4203 H   0  0  0  0  0  0  0  0  0  0  0  0
  1  2  1  0  0  0  0
  2  3  1  0  0  0  0
  3  4  2  0  0  0  0
  3 47  1  0  0  0  0
  4  5  1  0  0  0  0
  5  6  1  1  0  0  0
  5  7  1  0  0  0  0
  7  8  1  1  0  0  0
  7  9  1  0  0  0  0
  7 16  1  0  0  0  0
  9 10  1  0  0  0  0
 10 11  2  0  0  0  0
 10 12  1  0  0  0  0
 12 13  1  0  0  0  0
 12 14  1  0  0  0  0
 12 15  1  0  0  0  0
 16 17  1  0  0  0  0
 17 18  1  1  0  0  0
 17 19  1  0  0  0  0
 17 29  1  0  0  0  0
 19 20  1  0  0  0  0
 19 21  1  0  0  0  0
 19 22  1  0  0  0  0
 22 23  1  0  0  0  0
 23 24  2  0  0  0  0
 23 25  1  0  0  0  0
 25 26  1  0  0  0  0
 25 27  1  0  0  0  0
 25 28  1  0  0  0  0
 29 30  1  6  0  0  0
 29 31  1  0  0  0  0
 29 38  1  0  0  0  0
 31 32  1  0  0  0  0
 32 33  2  0  0  0  0
 32 34  1  0  0  0  0
 34 35  1  0  0  0  0
 34 36  1  0  0  0  0
 34 37  1  0  0  0  0
 38 39  1  1  0  0  0
 38 40  1  0  0  0  0
 38  5  1  0  0  0  0
 40 41  1  0  0  0  0
 41 42  2  0  0  0  0
 41 43  1  0  0  0  0
 43 44  1  0  0  0  0
 43 45  1  0  0  0  0
 43 46  1  0  0  0  0
 47 48  1  0  0  0  0
 47 49  1  0  0  0  0
 47 50  1  0  0  0  0
M  END
>  <UniqueID>
164

>  <SMILES>
CC(=O)OC[C@H]1O[C@@H](OC(C)=O)[C@@H](/N=C(/C)O)[C@@H](OC(C)=O)[C@@H]1OC(C)=O

>  <Energy>
33.96016182292468

>  <Genealogy>
CC(=O)OC[C@H]1OC(OC(C)=O)[C@@H](N=C(C)O)[C@@H](OC(C)=O)[C@@H]1OC(C)=O (tautomer)
CC(=O)OC[C@H]1O[C@@H](OC(C)=O)[C@@H](N=C(C)O)[C@@H](OC(C)=O)[C@@H]1OC(C)=O (chirality)
CC(=O)OC[C@H]1O[C@@H](OC(C)=O)[C@@H](/N=C(/C)O)[C@@H](OC(C)=O)[C@@H]1OC(C)=O (cis-trans isomerization)
CC(=O)OC[C@H]1O[C@@H](OC(C)=O)[C@@H](/N=C(/C)O)[C@@H](OC(C)=O)[C@@H]1OC(C)=O (3D coordinates assigned)
CC(=O)OC[C@H]1O[C@@H](OC(C)=O)[C@@H](/N=C(/C)O)[C@@H](OC(C)=O)[C@@H]1OC(C)=O (nonaromatic ring conformer: 33.96016182292468 kcal/mol)

$$$$
122253
 OpenBabel03032110343D

 43 44  0  0  0  0  0  0  0  0999 V2000
   -1.5120   -0.6322   -3.3583 H   0  0  0  0  0  0  0  0  0  0  0  0
   -1.2186    0.1169   -2.7429 O   0  0  0  0  0  0  0  0  0  0  0  0
   -2.0705    1.1751   -2.4347 C   0  0  0  0  0  0  0  0  0  0  0  0
   -1.6941    2.1467   -1.6531 N   0  0  0  0  0  0  0  0  0  0  0  0
   -0.4114    2.3143   -0.9535 C   0  0  1  0  0  0  0  0  0  0  0  0
   -0.4448    3.3238   -0.4861 H   0  0  0  0  0  0  0  0  0  0  0  0
   -0.2352    1.3086    0.2073 C   0  0  1  0  0  0  0  0  0  0  0  0
   -1.0792    1.5011    0.9112 H   0  0  0  0  0  0  0  0  0  0  0  0
   -0.2795   -0.0258   -0.2665 O   0  0  0  0  0  0  0  0  0  0  0  0
   -0.5104   -0.9216    0.7989 C   0  0  0  0  0  0  0  0  0  0  0  0
   -1.5363   -0.7794    1.2080 H   0  0  0  0  0  0  0  0  0  0  0  0
    0.2192   -0.7673    1.6273 H   0  0  0  0  0  0  0  0  0  0  0  0
   -0.3745   -2.3219    0.2790 C   0  0  0  0  0  0  0  0  0  0  0  0
    0.8732   -2.9672    0.3013 C   0  0  0  0  0  0  0  0  0  0  0  0
    1.7387   -2.4738    0.7265 H   0  0  0  0  0  0  0  0  0  0  0  0
    1.0095   -4.2536   -0.2300 C   0  0  0  0  0  0  0  0  0  0  0  0
    1.9712   -4.7495   -0.2054 H   0  0  0  0  0  0  0  0  0  0  0  0
   -0.0931   -4.8969   -0.7992 C   0  0  0  0  0  0  0  0  0  0  0  0
    0.0146   -5.8917   -1.2120 H   0  0  0  0  0  0  0  0  0  0  0  0
   -1.3327   -4.2526   -0.8434 C   0  0  0  0  0  0  0  0  0  0  0  0
   -2.1834   -4.7477   -1.2936 H   0  0  0  0  0  0  0  0  0  0  0  0
   -1.4734   -2.9664   -0.3129 C   0  0  0  0  0  0  0  0  0  0  0  0
   -2.4357   -2.4722   -0.3662 H   0  0  0  0  0  0  0  0  0  0  0  0
    0.9800    1.5636    0.9019 O   0  0  0  0  0  0  0  0  0  0  0  0
    2.1090    1.4028    0.0528 C   0  0  2  0  0  0  0  0  0  0  0  0
    2.1204    0.3850   -0.4023 H   0  0  0  0  0  0  0  0  0  0  0  0
    3.3875    1.5136    0.8953 C   0  0  0  0  0  0  0  0  0  0  0  0
    4.2759    1.4613    0.2301 H   0  0  0  0  0  0  0  0  0  0  0  0
    3.4217    2.4894    1.4322 H   0  0  0  0  0  0  0  0  0  0  0  0
    3.4629    0.4522    1.8089 O   0  0  0  0  0  0  0  0  0  0  0  0
    2.8642    0.6832    2.5664 H   0  0  0  0  0  0  0  0  0  0  0  0
    2.0982    2.4556   -1.0792 C   0  0  2  0  0  0  0  0  0  0  0  0
    2.9738    2.2699   -1.7460 H   0  0  0  0  0  0  0  0  0  0  0  0
    2.1752    3.7479   -0.5286 O   0  0  0  0  0  0  0  0  0  0  0  0
    2.5419    4.3417   -1.2345 H   0  0  0  0  0  0  0  0  0  0  0  0
    0.8033    2.2985   -1.9024 C   0  0  2  0  0  0  0  0  0  0  0  0
    0.8551    1.3235   -2.4350 H   0  0  0  0  0  0  0  0  0  0  0  0
    0.6835    3.3378   -2.8393 O   0  0  0  0  0  0  0  0  0  0  0  0
    1.3495    3.1572   -3.5532 H   0  0  0  0  0  0  0  0  0  0  0  0
   -3.4360    1.2158   -3.0412 C   0  0  0  0  0  0  0  0  0  0  0  0
   -3.3598    1.5456   -4.0980 H   0  0  0  0  0  0  0  0  0  0  0  0
   -4.0932    1.9196   -2.4867 H   0  0  0  0  0  0  0  0  0  0  0  0
   -3.8920    0.2043   -3.0067 H   0  0  0  0  0  0  0  0  0  0  0  0
  1  2  1  0  0  0  0
  2  3  1  0  0  0  0
  3  4  2  0  0  0  0
  3 40  1  0  0  0  0
  4  5  1  0  0  0  0
  5  6  1  1  0  0  0
  5  7  1  0  0  0  0
  7  8  1  1  0  0  0
  7  9  1  0  0  0  0
  7 24  1  0  0  0  0
  9 10  1  0  0  0  0
 10 11  1  0  0  0  0
 10 12  1  0  0  0  0
 10 13  1  0  0  0  0
 13 14  2  0  0  0  0
 14 15  1  0  0  0  0
 14 16  1  0  0  0  0
 16 17  1  0  0  0  0
 16 18  2  0  0  0  0
 18 19  1  0  0  0  0
 18 20  1  0  0  0  0
 20 21  1  0  0  0  0
 20 22  2  0  0  0  0
 22 23  1  0  0  0  0
 22 13  1  0  0  0  0
 24 25  1  0  0  0  0
 25 26  1  6  0  0  0
 25 27  1  0  0  0  0
 25 32  1  0  0  0  0
 27 28  1  0  0  0  0
 27 29  1  0  0  0  0
 27 30  1  0  0  0  0
 30 31  1  0  0  0  0
 32 33  1  6  0  0  0
 32 34  1  0  0  0  0
 32 36  1  0  0  0  0
 34 35  1  0  0  0  0
 36 37  1  6  0  0  0
 36 38  1  0  0  0  0
 36  5  1  0  0  0  0
 38 39  1  0  0  0  0
 40 41  1  0  0  0  0
 40 42  1  0  0  0  0
 40 43  1  0  0  0  0
M  END
>  <UniqueID>
165

>  <SMILES>
C/C(O)=N/[C@H]1[C@@H](OCc2ccccc2)O[C@H](CO)[C@H](O)[C@@H]1O

>  <Energy>
44.25547574707358

>  <Genealogy>
CC(O)=N[C@H]1[C@@H](OCc2ccccc2)O[C@H](CO)[C@H](O)[C@@H]1O (tautomer)
C/C(O)=N/[C@H]1[C@@H](OCc2ccccc2)O[C@H](CO)[C@H](O)[C@@H]1O (cis-trans isomerization)
C/C(O)=N/[C@H]1[C@@H](OCc2ccccc2)O[C@H](CO)[C@H](O)[C@@H]1O (3D coordinates assigned)
C/C(O)=N/[C@H]1[C@@H](OCc2ccccc2)O[C@H](CO)[C@H](O)[C@@H]1O (nonaromatic ring conformer: 44.25547574707358 kcal/mol)

$$$$
122253
 OpenBabel03032110343D

 43 44  0  0  0  0  0  0  0  0999 V2000
   -3.3235    2.1107   -2.9109 H   0  0  0  0  0  0  0  0  0  0  0  0
   -2.5070    1.8915   -2.3530 O   0  0  0  0  0  0  0  0  0  0  0  0
   -1.4032    1.2473   -2.9112 C   0  0  0  0  0  0  0  0  0  0  0  0
   -0.3533    0.9880   -2.1910 N   0  0  0  0  0  0  0  0  0  0  0  0
   -0.2195    1.3267   -0.7711 C   0  0  1  0  0  0  0  0  0  0  0  0
   -1.1723    1.0885   -0.2481 H   0  0  0  0  0  0  0  0  0  0  0  0
    0.9099    0.4806   -0.1472 C   0  0  1  0  0  0  0  0  0  0  0  0
    0.9780    0.6997    0.9459 H   0  0  0  0  0  0  0  0  0  0  0  0
    0.6384   -0.8921   -0.3774 O   0  0  0  0  0  0  0  0  0  0  0  0
   -0.0411   -1.4735    0.7169 C   0  0  0  0  0  0  0  0  0  0  0  0
    0.6560   -1.5864    1.5776 H   0  0  0  0  0  0  0  0  0  0  0  0
   -0.9010   -0.8486    1.0503 H   0  0  0  0  0  0  0  0  0  0  0  0
   -0.5635   -2.8170    0.3004 C   0  0  0  0  0  0  0  0  0  0  0  0
   -1.7468   -2.9067   -0.4514 C   0  0  0  0  0  0  0  0  0  0  0  0
   -2.3003   -2.0121   -0.7101 H   0  0  0  0  0  0  0  0  0  0  0  0
   -2.2191   -4.1529   -0.8748 C   0  0  0  0  0  0  0  0  0  0  0  0
   -3.1338   -4.2174   -1.4498 H   0  0  0  0  0  0  0  0  0  0  0  0
   -1.5085   -5.3148   -0.5609 C   0  0  0  0  0  0  0  0  0  0  0  0
   -1.8746   -6.2785   -0.8905 H   0  0  0  0  0  0  0  0  0  0  0  0
   -0.3216   -5.2318    0.1727 C   0  0  0  0  0  0  0  0  0  0  0  0
    0.2318   -6.1316    0.4086 H   0  0  0  0  0  0  0  0  0  0  0  0
    0.1546   -3.9873    0.5978 C   0  0  0  0  0  0  0  0  0  0  0  0
    1.0809   -3.9370    1.1566 H   0  0  0  0  0  0  0  0  0  0  0  0
    2.1531    0.7785   -0.7638 O   0  0  0  0  0  0  0  0  0  0  0  0
    2.5626    2.1255   -0.5614 C   0  0  2  0  0  0  0  0  0  0  0  0
    3.4628    2.2612   -1.2008 H   0  0  0  0  0  0  0  0  0  0  0  0
    3.0426    2.3726    0.8900 C   0  0  0  0  0  0  0  0  0  0  0  0
    3.6129    1.4854    1.2491 H   0  0  0  0  0  0  0  0  0  0  0  0
    2.1884    2.5097    1.5804 H   0  0  0  0  0  0  0  0  0  0  0  0
    3.8511    3.5168    0.9626 O   0  0  0  0  0  0  0  0  0  0  0  0
    4.7429    3.2601    0.6097 H   0  0  0  0  0  0  0  0  0  0  0  0
    1.5141    3.1384   -1.0948 C   0  0  2  0  0  0  0  0  0  0  0  0
    1.5118    3.0411   -2.2068 H   0  0  0  0  0  0  0  0  0  0  0  0
    1.8800    4.4523   -0.7582 O   0  0  0  0  0  0  0  0  0  0  0  0
    1.3464    5.0570   -1.3376 H   0  0  0  0  0  0  0  0  0  0  0  0
    0.0898    2.8267   -0.5975 C   0  0  2  0  0  0  0  0  0  0  0  0
   -0.6238    3.4263   -1.2094 H   0  0  0  0  0  0  0  0  0  0  0  0
   -0.0468    3.2005    0.7499 O   0  0  0  0  0  0  0  0  0  0  0  0
   -1.0204    3.2381    0.9412 H   0  0  0  0  0  0  0  0  0  0  0  0
   -1.4133    0.8737   -4.3582 C   0  0  0  0  0  0  0  0  0  0  0  0
   -0.6495    0.0946   -4.5682 H   0  0  0  0  0  0  0  0  0  0  0  0
   -1.1949    1.7722   -4.9717 H   0  0  0  0  0  0  0  0  0  0  0  0
   -2.4113    0.4755   -4.6365 H   0  0  0  0  0  0  0  0  0  0  0  0
  1  2  1  0  0  0  0
  2  3  1  0  0  0  0
  3  4  2  0  0  0  0
  3 40  1  0  0  0  0
  4  5  1  0  0  0  0
  5  6  1  1  0  0  0
  5  7  1  0  0  0  0
  7  8  1  1  0  0  0
  7  9  1  0  0  0  0
  7 24  1  0  0  0  0
  9 10  1  0  0  0  0
 10 11  1  0  0  0  0
 10 12  1  0  0  0  0
 10 13  1  0  0  0  0
 13 14  2  0  0  0  0
 14 15  1  0  0  0  0
 14 16  1  0  0  0  0
 16 17  1  0  0  0  0
 16 18  2  0  0  0  0
 18 19  1  0  0  0  0
 18 20  1  0  0  0  0
 20 21  1  0  0  0  0
 20 22  2  0  0  0  0
 22 23  1  0  0  0  0
 22 13  1  0  0  0  0
 24 25  1  0  0  0  0
 25 26  1  6  0  0  0
 25 27  1  0  0  0  0
 25 32  1  0  0  0  0
 27 28  1  0  0  0  0
 27 29  1  0  0  0  0
 27 30  1  0  0  0  0
 30 31  1  0  0  0  0
 32 33  1  6  0  0  0
 32 34  1  0  0  0  0
 32 36  1  0  0  0  0
 34 35  1  0  0  0  0
 36 37  1  6  0  0  0
 36 38  1  0  0  0  0
 36  5  1  0  0  0  0
 38 39  1  0  0  0  0
 40 41  1  0  0  0  0
 40 42  1  0  0  0  0
 40 43  1  0  0  0  0
M  END
>  <UniqueID>
166

>  <SMILES>
C/C(O)=N/[C@H]1[C@@H](OCc2ccccc2)O[C@H](CO)[C@H](O)[C@@H]1O

>  <Energy>
46.970924657213835

>  <Genealogy>
CC(O)=N[C@H]1[C@@H](OCc2ccccc2)O[C@H](CO)[C@H](O)[C@@H]1O (tautomer)
C/C(O)=N/[C@H]1[C@@H](OCc2ccccc2)O[C@H](CO)[C@H](O)[C@@H]1O (cis-trans isomerization)
C/C(O)=N/[C@H]1[C@@H](OCc2ccccc2)O[C@H](CO)[C@H](O)[C@@H]1O (3D coordinates assigned)
C/C(O)=N/[C@H]1[C@@H](OCc2ccccc2)O[C@H](CO)[C@H](O)[C@@H]1O (nonaromatic ring conformer: 46.970924657213835 kcal/mol)

$$$$
118328
 OpenBabel03032110343D

 48 50  0  0  0  0  0  0  0  0999 V2000
    2.0792   -2.2980   -3.2607 C   0  0  0  0  0  0  0  0  0  0  0  0
    1.3497   -1.8360   -2.0419 C   0  0  0  0  0  0  0  0  0  0  0  0
    2.0021   -1.5496   -1.0018 O   0  0  0  0  0  0  0  0  0  0  0  0
   -0.0761   -1.6759   -2.0790 N   0  0  0  0  0  0  0  0  0  0  0  0
   -0.8442   -1.1039   -0.9645 C   0  0  1  0  0  0  0  0  0  0  0  0
   -1.3042    0.3271   -1.3165 C   0  0  1  0  0  0  0  0  0  0  0  0
   -0.1818    1.1177   -1.7142 O   0  0  0  0  0  0  0  0  0  0  0  0
    0.8400    1.5835   -0.8702 C   0  0  0  0  0  0  0  0  0  0  0  0
    1.9689    2.1572   -1.4632 C   0  0  0  0  0  0  0  0  0  0  0  0
    3.0265    2.6296   -0.6824 C   0  0  0  0  0  0  0  0  0  0  0  0
    2.9688    2.5398    0.7213 C   0  0  0  0  0  0  0  0  0  0  0  0
    4.0088    2.9994    1.5610 C   0  0  0  0  0  0  0  0  0  0  0  0
    5.2661    3.6201    1.0095 C   0  0  0  0  0  0  0  0  0  0  0  0
    3.8586    2.8703    2.9486 C   0  0  0  0  0  0  0  0  0  0  0  0
    2.6952    2.2941    3.4629 C   0  0  0  0  0  0  0  0  0  0  0  0
    2.5519    2.1728    4.7075 O   0  0  0  0  0  0  0  0  0  0  0  0
    1.7362    1.8711    2.6479 O   0  0  0  0  0  0  0  0  0  0  0  0
    1.8233    1.9680    1.3248 C   0  0  0  0  0  0  0  0  0  0  0  0
    0.7700    1.4985    0.5330 C   0  0  0  0  0  0  0  0  0  0  0  0
   -2.2151    0.2869   -2.3994 O   0  0  0  0  0  0  0  0  0  0  0  0
   -3.4239   -0.3509   -2.0198 C   0  0  1  0  0  0  0  0  0  0  0  0
   -4.4236   -0.1825   -3.1742 C   0  0  0  0  0  0  0  0  0  0  0  0
   -5.7136   -0.5721   -2.7810 O   0  0  0  0  0  0  0  0  0  0  0  0
   -3.1682   -1.8459   -1.7054 C   0  0  2  0  0  0  0  0  0  0  0  0
   -4.3509   -2.4380   -1.2308 O   0  0  0  0  0  0  0  0  0  0  0  0
   -2.0674   -1.9781   -0.6316 C   0  0  1  0  0  0  0  0  0  0  0  0
   -1.6652   -3.3188   -0.5061 O   0  0  0  0  0  0  0  0  0  0  0  0
    2.2120   -1.4433   -3.9562 H   0  0  0  0  0  0  0  0  0  0  0  0
    3.0765   -2.7025   -2.9854 H   0  0  0  0  0  0  0  0  0  0  0  0
    1.4999   -3.0972   -3.7690 H   0  0  0  0  0  0  0  0  0  0  0  0
   -0.5651   -1.8628   -2.9833 H   0  0  0  0  0  0  0  0  0  0  0  0
   -0.2145   -1.0676   -0.0505 H   0  0  0  0  0  0  0  0  0  0  0  0
   -1.7873    0.8121   -0.4373 H   0  0  0  0  0  0  0  0  0  0  0  0
    2.0304    2.2298   -2.5418 H   0  0  0  0  0  0  0  0  0  0  0  0
    3.8815    3.0607   -1.1859 H   0  0  0  0  0  0  0  0  0  0  0  0
    5.9660    3.9190    1.8187 H   0  0  0  0  0  0  0  0  0  0  0  0
    5.7895    2.8912    0.3556 H   0  0  0  0  0  0  0  0  0  0  0  0
    5.0115    4.5283    0.4237 H   0  0  0  0  0  0  0  0  0  0  0  0
    4.6340    3.2114    3.6249 H   0  0  0  0  0  0  0  0  0  0  0  0
   -0.0936    1.0745    1.0249 H   0  0  0  0  0  0  0  0  0  0  0  0
   -3.8631    0.1520   -1.1255 H   0  0  0  0  0  0  0  0  0  0  0  0
   -4.0784   -0.7460   -4.0733 H   0  0  0  0  0  0  0  0  0  0  0  0
   -4.4635    0.8911   -3.4578 H   0  0  0  0  0  0  0  0  0  0  0  0
   -5.8872   -1.4610   -3.1875 H   0  0  0  0  0  0  0  0  0  0  0  0
   -2.8353   -2.3536   -2.6417 H   0  0  0  0  0  0  0  0  0  0  0  0
   -4.2930   -3.4076   -1.4360 H   0  0  0  0  0  0  0  0  0  0  0  0
   -2.4784   -1.6169    0.3426 H   0  0  0  0  0  0  0  0  0  0  0  0
   -2.3298   -3.7680    0.0787 H   0  0  0  0  0  0  0  0  0  0  0  0
  1  2  1  0  0  0  0
  1 28  1  0  0  0  0
  1 29  1  0  0  0  0
  1 30  1  0  0  0  0
  2  3  2  0  0  0  0
  2  4  1  0  0  0  0
  4  5  1  0  0  0  0
  4 31  1  0  0  0  0
  5  6  1  0  0  0  0
  5 32  1  1  0  0  0
  6  7  1  0  0  0  0
  6 20  1  0  0  0  0
  6 33  1  1  0  0  0
  7  8  1  0  0  0  0
  8  9  2  0  0  0  0
  9 10  1  0  0  0  0
  9 34  1  0  0  0  0
 10 11  2  0  0  0  0
 10 35  1  0  0  0  0
 11 12  1  0  0  0  0
 12 13  1  0  0  0  0
 12 14  2  0  0  0  0
 13 36  1  0  0  0  0
 13 37  1  0  0  0  0
 13 38  1  0  0  0  0
 14 15  1  0  0  0  0
 14 39  1  0  0  0  0
 15 16  2  0  0  0  0
 15 17  1  0  0  0  0
 17 18  1  0  0  0  0
 18 19  2  0  0  0  0
 18 11  1  0  0  0  0
 19  8  1  0  0  0  0
 19 40  1  0  0  0  0
 20 21  1  0  0  0  0
 21 22  1  0  0  0  0
 21 24  1  0  0  0  0
 21 41  1  1  0  0  0
 22 23  1  0  0  0  0
 22 42  1  0  0  0  0
 22 43  1  0  0  0  0
 23 44  1  0  0  0  0
 24 25  1  0  0  0  0
 24 26  1  0  0  0  0
 24 45  1  6  0  0  0
 25 46  1  0  0  0  0
 26 27  1  0  0  0  0
 26  5  1  0  0  0  0
 26 47  1  1  0  0  0
 27 48  1  0  0  0  0
M  END
>  <UniqueID>
167

>  <SMILES>
CC(=O)N[C@@H]1[C@H](O)[C@@H](O)[C@H](CO)O[C@@H]1Oc1ccc2c(C)cc(=O)oc2c1

>  <Energy>
52.909840480335816

>  <Genealogy>
CC(=O)N[C@@H]1[C@H](O)[C@@H](O)[C@H](CO)O[C@@H]1Oc1ccc2c(C)cc(=O)oc2c1 (chirality)
CC(=O)N[C@@H]1[C@H](O)[C@@H](O)[C@H](CO)O[C@@H]1Oc1ccc2c(C)cc(=O)oc2c1 (3D coordinates assigned)
CC(=O)N[C@@H]1[C@H](O)[C@@H](O)[C@H](CO)O[C@@H]1Oc1ccc2c(C)cc(=O)oc2c1 (nonaromatic ring conformer: 52.909840480335816 kcal/mol)

$$$$
118328
 OpenBabel03032110343D

 48 50  0  0  0  0  0  0  0  0999 V2000
   -2.5752    4.0844    1.3027 C   0  0  0  0  0  0  0  0  0  0  0  0
   -2.5822    3.0169    0.2579 C   0  0  0  0  0  0  0  0  0  0  0  0
   -2.3445    3.3206   -0.9425 O   0  0  0  0  0  0  0  0  0  0  0  0
   -2.8239    1.6531    0.6321 N   0  0  0  0  0  0  0  0  0  0  0  0
   -2.7251    0.5396   -0.3172 C   0  0  1  0  0  0  0  0  0  0  0  0
   -1.3456   -0.1312   -0.1962 C   0  0  2  0  0  0  0  0  0  0  0  0
   -0.3508    0.8360   -0.5328 O   0  0  0  0  0  0  0  0  0  0  0  0
    1.0340    0.6578   -0.3937 C   0  0  0  0  0  0  0  0  0  0  0  0
    1.8775    1.6884   -0.8200 C   0  0  0  0  0  0  0  0  0  0  0  0
    3.2652    1.5699   -0.7082 C   0  0  0  0  0  0  0  0  0  0  0  0
    3.8370    0.4063   -0.1589 C   0  0  0  0  0  0  0  0  0  0  0  0
    5.2327    0.2315   -0.0199 C   0  0  0  0  0  0  0  0  0  0  0  0
    6.2174    1.2860   -0.4544 C   0  0  0  0  0  0  0  0  0  0  0  0
    5.7077   -0.9620    0.5408 C   0  0  0  0  0  0  0  0  0  0  0  0
    4.7977   -1.9411    0.9454 C   0  0  0  0  0  0  0  0  0  0  0  0
    5.2150   -3.0160    1.4508 O   0  0  0  0  0  0  0  0  0  0  0  0
    3.4922   -1.7475    0.8014 O   0  0  0  0  0  0  0  0  0  0  0  0
    2.9845   -0.6366    0.2763 C   0  0  0  0  0  0  0  0  0  0  0  0
    1.5968   -0.5069    0.1582 C   0  0  0  0  0  0  0  0  0  0  0  0
   -1.2279   -1.2336   -1.0859 O   0  0  0  0  0  0  0  0  0  0  0  0
   -2.1881   -2.2547   -0.8359 C   0  0  1  0  0  0  0  0  0  0  0  0
   -1.8929   -3.0440    0.4580 C   0  0  0  0  0  0  0  0  0  0  0  0
   -0.5590   -3.4709    0.4572 O   0  0  0  0  0  0  0  0  0  0  0  0
   -3.6382   -1.7220   -0.9369 C   0  0  1  0  0  0  0  0  0  0  0  0
   -4.5521   -2.7315   -0.5908 O   0  0  0  0  0  0  0  0  0  0  0  0
   -3.8331   -0.4894   -0.0364 C   0  0  2  0  0  0  0  0  0  0  0  0
   -5.1046    0.0804   -0.2307 O   0  0  0  0  0  0  0  0  0  0  0  0
   -3.4749    3.9856    1.9454 H   0  0  0  0  0  0  0  0  0  0  0  0
   -1.6651    3.9812    1.9293 H   0  0  0  0  0  0  0  0  0  0  0  0
   -2.5804    5.0908    0.8327 H   0  0  0  0  0  0  0  0  0  0  0  0
   -2.9329    1.4333    1.6487 H   0  0  0  0  0  0  0  0  0  0  0  0
   -2.8453    0.9113   -1.3600 H   0  0  0  0  0  0  0  0  0  0  0  0
   -1.1819   -0.4433    0.8584 H   0  0  0  0  0  0  0  0  0  0  0  0
    1.4525    2.5901   -1.2428 H   0  0  0  0  0  0  0  0  0  0  0  0
    3.8784    2.3922   -1.0519 H   0  0  0  0  0  0  0  0  0  0  0  0
    6.1089    1.4756   -1.5431 H   0  0  0  0  0  0  0  0  0  0  0  0
    6.0339    2.2262    0.1069 H   0  0  0  0  0  0  0  0  0  0  0  0
    7.2660    0.9724   -0.2637 H   0  0  0  0  0  0  0  0  0  0  0  0
    6.7709   -1.1328    0.6640 H   0  0  0  0  0  0  0  0  0  0  0  0
    0.9699   -1.3157    0.5029 H   0  0  0  0  0  0  0  0  0  0  0  0
   -2.0787   -2.9910   -1.6625 H   0  0  0  0  0  0  0  0  0  0  0  0
   -2.5561   -3.9364    0.5026 H   0  0  0  0  0  0  0  0  0  0  0  0
   -2.0930   -2.4305    1.3619 H   0  0  0  0  0  0  0  0  0  0  0  0
   -0.4223   -3.9542    1.3131 H   0  0  0  0  0  0  0  0  0  0  0  0
   -3.8025   -1.4207   -1.9993 H   0  0  0  0  0  0  0  0  0  0  0  0
   -5.4267   -2.4774   -0.9858 H   0  0  0  0  0  0  0  0  0  0  0  0
   -3.7687   -0.8102    1.0264 H   0  0  0  0  0  0  0  0  0  0  0  0
   -5.1666    0.3698   -1.1787 H   0  0  0  0  0  0  0  0  0  0  0  0
  1  2  1  0  0  0  0
  1 28  1  0  0  0  0
  1 29  1  0  0  0  0
  1 30  1  0  0  0  0
  2  3  2  0  0  0  0
  2  4  1  0  0  0  0
  4  5  1  0  0  0  0
  4 31  1  0  0  0  0
  5  6  1  0  0  0  0
  5 32  1  6  0  0  0
  6  7  1  0  0  0  0
  6 20  1  0  0  0  0
  6 33  1  1  0  0  0
  7  8  1  0  0  0  0
  8  9  2  0  0  0  0
  9 10  1  0  0  0  0
  9 34  1  0  0  0  0
 10 11  2  0  0  0  0
 10 35  1  0  0  0  0
 11 12  1  0  0  0  0
 12 13  1  0  0  0  0
 12 14  2  0  0  0  0
 13 36  1  0  0  0  0
 13 37  1  0  0  0  0
 13 38  1  0  0  0  0
 14 15  1  0  0  0  0
 14 39  1  0  0  0  0
 15 16  2  0  0  0  0
 15 17  1  0  0  0  0
 17 18  1  0  0  0  0
 18 19  2  0  0  0  0
 18 11  1  0  0  0  0
 19  8  1  0  0  0  0
 19 40  1  0  0  0  0
 20 21  1  0  0  0  0
 21 22  1  0  0  0  0
 21 24  1  0  0  0  0
 21 41  1  6  0  0  0
 22 23  1  0  0  0  0
 22 42  1  0  0  0  0
 22 43  1  0  0  0  0
 23 44  1  0  0  0  0
 24 25  1  0  0  0  0
 24 26  1  0  0  0  0
 24 45  1  6  0  0  0
 25 46  1  0  0  0  0
 26 27  1  0  0  0  0
 26  5  1  0  0  0  0
 26 47  1  1  0  0  0
 27 48  1  0  0  0  0
M  END
>  <UniqueID>
168

>  <SMILES>
CC(=O)N[C@H]1[C@H](Oc2ccc3c(C)cc(=O)oc3c2)O[C@@H](CO)[C@@H](O)[C@@H]1O

>  <Energy>
54.59410654590484

>  <Genealogy>
CC(=O)N[C@H]1[C@H](Oc2ccc3c(C)cc(=O)oc3c2)O[C@@H](CO)[C@@H](O)[C@@H]1O (chirality)
CC(=O)N[C@H]1[C@H](Oc2ccc3c(C)cc(=O)oc3c2)O[C@@H](CO)[C@@H](O)[C@@H]1O (3D coordinates assigned)
CC(=O)N[C@H]1[C@H](Oc2ccc3c(C)cc(=O)oc3c2)O[C@@H](CO)[C@@H](O)[C@@H]1O (nonaromatic ring conformer: 54.59410654590484 kcal/mol)

$$$$
112106
 OpenBabel03032110343D

 46 48  0  0  0  0  0  0  0  0999 V2000
    1.8251   -3.3052    2.7862 C   0  0  0  0  0  0  0  0  0  0  0  0
    0.9761   -3.0699    1.5800 C   0  0  0  0  0  0  0  0  0  0  0  0
   -0.2182   -3.4738    1.5730 O   0  0  0  0  0  0  0  0  0  0  0  0
    1.5129   -2.3574    0.4563 N   0  0  0  0  0  0  0  0  0  0  0  0
    0.6912   -1.9395   -0.6843 C   0  0  1  0  0  0  0  0  0  0  0  0
    0.3038   -0.4591   -0.5366 C   0  0  2  0  0  0  0  0  0  0  0  0
   -0.4495   -0.2999    0.6645 O   0  0  0  0  0  0  0  0  0  0  0  0
   -0.8647    0.9300    1.2047 C   0  0  0  0  0  0  0  0  0  0  0  0
   -0.5750    2.1544    0.5699 C   0  0  0  0  0  0  0  0  0  0  0  0
   -0.9999    3.3616    1.1271 C   0  0  0  0  0  0  0  0  0  0  0  0
   -1.7165    3.3728    2.3232 C   0  0  0  0  0  0  0  0  0  0  0  0
   -2.0153    2.1696    2.9763 C   0  0  0  0  0  0  0  0  0  0  0  0
   -2.7340    2.1777    4.1822 C   0  0  0  0  0  0  0  0  0  0  0  0
   -3.0284    0.9775    4.8327 C   0  0  0  0  0  0  0  0  0  0  0  0
   -2.6100   -0.2375    4.2875 C   0  0  0  0  0  0  0  0  0  0  0  0
   -1.8945   -0.2619    3.0876 C   0  0  0  0  0  0  0  0  0  0  0  0
   -1.5883    0.9374    2.4166 C   0  0  0  0  0  0  0  0  0  0  0  0
   -0.4925   -0.0577   -1.6371 O   0  0  0  0  0  0  0  0  0  0  0  0
    0.2654   -0.0806   -2.8352 C   0  0  2  0  0  0  0  0  0  0  0  0
   -0.5952    0.5333   -3.9481 C   0  0  0  0  0  0  0  0  0  0  0  0
    0.1722    0.7467   -5.1008 O   0  0  0  0  0  0  0  0  0  0  0  0
    0.6816   -1.5337   -3.1764 C   0  0  1  0  0  0  0  0  0  0  0  0
    1.4870   -1.5403   -4.3277 O   0  0  0  0  0  0  0  0  0  0  0  0
    1.4661   -2.1423   -1.9965 C   0  0  2  0  0  0  0  0  0  0  0  0
    1.6630   -3.5174   -2.2064 O   0  0  0  0  0  0  0  0  0  0  0  0
    2.8197   -3.6885    2.4763 H   0  0  0  0  0  0  0  0  0  0  0  0
    1.9559   -2.3502    3.3363 H   0  0  0  0  0  0  0  0  0  0  0  0
    1.3490   -4.0496    3.4591 H   0  0  0  0  0  0  0  0  0  0  0  0
    2.4903   -1.9924    0.5256 H   0  0  0  0  0  0  0  0  0  0  0  0
   -0.2406   -2.5473   -0.7331 H   0  0  0  0  0  0  0  0  0  0  0  0
    1.2287    0.1602   -0.4570 H   0  0  0  0  0  0  0  0  0  0  0  0
   -0.0209    2.1871   -0.3576 H   0  0  0  0  0  0  0  0  0  0  0  0
   -0.7712    4.2947    0.6284 H   0  0  0  0  0  0  0  0  0  0  0  0
   -2.0360    4.3214    2.7382 H   0  0  0  0  0  0  0  0  0  0  0  0
   -3.0665    3.1109    4.6211 H   0  0  0  0  0  0  0  0  0  0  0  0
   -3.5824    0.9893    5.7626 H   0  0  0  0  0  0  0  0  0  0  0  0
   -2.8407   -1.1644    4.7967 H   0  0  0  0  0  0  0  0  0  0  0  0
   -1.5835   -1.2198    2.6903 H   0  0  0  0  0  0  0  0  0  0  0  0
    1.1746    0.5580   -2.7291 H   0  0  0  0  0  0  0  0  0  0  0  0
   -0.9981    1.5091   -3.5944 H   0  0  0  0  0  0  0  0  0  0  0  0
   -1.4541   -0.1367   -4.1787 H   0  0  0  0  0  0  0  0  0  0  0  0
   -0.4457    1.1305   -5.7759 H   0  0  0  0  0  0  0  0  0  0  0  0
   -0.2437   -2.1356   -3.3469 H   0  0  0  0  0  0  0  0  0  0  0  0
    1.3899   -2.4363   -4.7441 H   0  0  0  0  0  0  0  0  0  0  0  0
    2.4515   -1.6223   -1.9118 H   0  0  0  0  0  0  0  0  0  0  0  0
    2.4618   -3.6101   -2.7884 H   0  0  0  0  0  0  0  0  0  0  0  0
  1  2  1  0  0  0  0
  1 26  1  0  0  0  0
  1 27  1  0  0  0  0
  1 28  1  0  0  0  0
  2  3  2  0  0  0  0
  2  4  1  0  0  0  0
  4  5  1  0  0  0  0
  4 29  1  0  0  0  0
  5  6  1  0  0  0  0
  5 30  1  6  0  0  0
  6  7  1  0  0  0  0
  6 18  1  0  0  0  0
  6 31  1  1  0  0  0
  7  8  1  0  0  0  0
  8  9  2  0  0  0  0
  9 10  1  0  0  0  0
  9 32  1  0  0  0  0
 10 11  2  0  0  0  0
 10 33  1  0  0  0  0
 11 12  1  0  0  0  0
 11 34  1  0  0  0  0
 12 13  2  0  0  0  0
 13 14  1  0  0  0  0
 13 35  1  0  0  0  0
 14 15  2  0  0  0  0
 14 36  1  0  0  0  0
 15 16  1  0  0  0  0
 15 37  1  0  0  0  0
 16 17  2  0  0  0  0
 16 38  1  0  0  0  0
 17  8  1  0  0  0  0
 17 12  1  0  0  0  0
 18 19  1  0  0  0  0
 19 20  1  0  0  0  0
 19 22  1  0  0  0  0
 19 39  1  1  0  0  0
 20 21  1  0  0  0  0
 20 40  1  0  0  0  0
 20 41  1  0  0  0  0
 21 42  1  0  0  0  0
 22 23  1  0  0  0  0
 22 24  1  0  0  0  0
 22 43  1  6  0  0  0
 23 44  1  0  0  0  0
 24 25  1  0  0  0  0
 24  5  1  0  0  0  0
 24 45  1  1  0  0  0
 25 46  1  0  0  0  0
M  END
>  <UniqueID>
169

>  <SMILES>
CC(=O)N[C@H]1[C@H](Oc2cccc3ccccc23)O[C@H](CO)[C@@H](O)[C@@H]1O

>  <Energy>
46.34817455745138

>  <Genealogy>
CC(=O)N[C@H]1[C@H](Oc2cccc3ccccc23)O[C@H](CO)[C@@H](O)[C@@H]1O (3D coordinates assigned)
CC(=O)N[C@H]1[C@H](Oc2cccc3ccccc23)O[C@H](CO)[C@@H](O)[C@@H]1O (nonaromatic ring conformer: 46.34817455745138 kcal/mol)

$$$$
112106
 OpenBabel03032110343D

 46 48  0  0  0  0  0  0  0  0999 V2000
   -2.7131    2.0076   -1.1038 H   0  0  0  0  0  0  0  0  0  0  0  0
   -2.0274    1.6470   -1.7570 O   0  0  0  0  0  0  0  0  0  0  0  0
   -1.2860    0.5061   -1.4639 C   0  0  0  0  0  0  0  0  0  0  0  0
   -1.4957   -0.1124   -0.3351 N   0  0  0  0  0  0  0  0  0  0  0  0
   -0.8071   -1.3112    0.1553 C   0  0  1  0  0  0  0  0  0  0  0  0
   -0.2865   -1.8423   -0.6716 H   0  0  0  0  0  0  0  0  0  0  0  0
    0.2292   -0.9441    1.2433 C   0  0  2  0  0  0  0  0  0  0  0  0
   -0.2574   -0.4346    2.1037 H   0  0  0  0  0  0  0  0  0  0  0  0
    1.2428   -0.0973    0.6951 O   0  0  0  0  0  0  0  0  0  0  0  0
    1.1967    1.3044    0.5545 C   0  0  0  0  0  0  0  0  0  0  0  0
    0.1662    2.0874    1.1162 C   0  0  0  0  0  0  0  0  0  0  0  0
   -0.6408    1.6457    1.6794 H   0  0  0  0  0  0  0  0  0  0  0  0
    0.1503    3.4722    0.9441 C   0  0  0  0  0  0  0  0  0  0  0  0
   -0.6506    4.0588    1.3756 H   0  0  0  0  0  0  0  0  0  0  0  0
    1.1573    4.1050    0.2180 C   0  0  0  0  0  0  0  0  0  0  0  0
    1.1236    5.1813    0.0964 H   0  0  0  0  0  0  0  0  0  0  0  0
    2.1960    3.3538   -0.3459 C   0  0  0  0  0  0  0  0  0  0  0  0
    3.2102    3.9887   -1.0800 C   0  0  0  0  0  0  0  0  0  0  0  0
    3.2034    5.0636   -1.2169 H   0  0  0  0  0  0  0  0  0  0  0  0
    4.2428    3.2383   -1.6461 C   0  0  0  0  0  0  0  0  0  0  0  0
    5.0220    3.7327   -2.2119 H   0  0  0  0  0  0  0  0  0  0  0  0
    4.2725    1.8522   -1.4852 C   0  0  0  0  0  0  0  0  0  0  0  0
    5.0748    1.2757   -1.9275 H   0  0  0  0  0  0  0  0  0  0  0  0
    3.2706    1.2061   -0.7565 C   0  0  0  0  0  0  0  0  0  0  0  0
    3.3208    0.1294   -0.6521 H   0  0  0  0  0  0  0  0  0  0  0  0
    2.2212    1.9451   -0.1769 C   0  0  0  0  0  0  0  0  0  0  0  0
    0.8634   -2.1241    1.7027 O   0  0  0  0  0  0  0  0  0  0  0  0
   -0.0556   -2.9578    2.3909 C   0  0  2  0  0  0  0  0  0  0  0  0
   -0.5374   -2.4020    3.2301 H   0  0  0  0  0  0  0  0  0  0  0  0
    0.7200   -4.1297    3.0105 C   0  0  0  0  0  0  0  0  0  0  0  0
    1.2021   -4.7422    2.2136 H   0  0  0  0  0  0  0  0  0  0  0  0
    0.0222   -4.7888    3.5687 H   0  0  0  0  0  0  0  0  0  0  0  0
    1.6812   -3.6550    3.9150 O   0  0  0  0  0  0  0  0  0  0  0  0
    2.4747   -3.3923    3.3794 H   0  0  0  0  0  0  0  0  0  0  0  0
   -1.1445   -3.4694    1.4178 C   0  0  1  0  0  0  0  0  0  0  0  0
   -0.6617   -4.0823    0.6173 H   0  0  0  0  0  0  0  0  0  0  0  0
   -2.1013   -4.2267    2.1163 O   0  0  0  0  0  0  0  0  0  0  0  0
   -1.8474   -5.1816    2.0200 H   0  0  0  0  0  0  0  0  0  0  0  0
   -1.8461   -2.2737    0.7496 C   0  0  2  0  0  0  0  0  0  0  0  0
   -2.4402   -1.7215    1.5181 H   0  0  0  0  0  0  0  0  0  0  0  0
   -2.6944   -2.7270   -0.2743 O   0  0  0  0  0  0  0  0  0  0  0  0
   -3.5231   -3.0563    0.1622 H   0  0  0  0  0  0  0  0  0  0  0  0
   -0.2824    0.0305   -2.4731 C   0  0  0  0  0  0  0  0  0  0  0  0
    0.7172   -0.0834   -2.0066 H   0  0  0  0  0  0  0  0  0  0  0  0
   -0.6100   -0.9402   -2.9004 H   0  0  0  0  0  0  0  0  0  0  0  0
   -0.1967    0.7678   -3.2985 H   0  0  0  0  0  0  0  0  0  0  0  0
  1  2  1  0  0  0  0
  2  3  1  0  0  0  0
  3  4  2  0  0  0  0
  3 43  1  0  0  0  0
  4  5  1  0  0  0  0
  5  6  1  6  0  0  0
  5  7  1  0  0  0  0
  7  8  1  1  0  0  0
  7  9  1  0  0  0  0
  7 27  1  0  0  0  0
  9 10  1  0  0  0  0
 10 11  2  0  0  0  0
 11 12  1  0  0  0  0
 11 13  1  0  0  0  0
 13 14  1  0  0  0  0
 13 15  2  0  0  0  0
 15 16  1  0  0  0  0
 15 17  1  0  0  0  0
 17 18  2  0  0  0  0
 18 19  1  0  0  0  0
 18 20  1  0  0  0  0
 20 21  1  0  0  0  0
 20 22  2  0  0  0  0
 22 23  1  0  0  0  0
 22 24  1  0  0  0  0
 24 25  1  0  0  0  0
 24 26  2  0  0  0  0
 26 10  1  0  0  0  0
 26 17  1  0  0  0  0
 27 28  1  0  0  0  0
 28 29  1  1  0  0  0
 28 30  1  0  0  0  0
 28 35  1  0  0  0  0
 30 31  1  0  0  0  0
 30 32  1  0  0  0  0
 30 33  1  0  0  0  0
 33 34  1  0  0  0  0
 35 36  1  6  0  0  0
 35 37  1  0  0  0  0
 35 39  1  0  0  0  0
 37 38  1  0  0  0  0
 39 40  1  1  0  0  0
 39 41  1  0  0  0  0
 39  5  1  0  0  0  0
 41 42  1  0  0  0  0
 43 44  1  0  0  0  0
 43 45  1  0  0  0  0
 43 46  1  0  0  0  0
M  END
>  <UniqueID>
170

>  <SMILES>
C/C(O)=N\[C@H]1[C@H](Oc2cccc3ccccc23)O[C@H](CO)[C@@H](O)[C@@H]1O

>  <Energy>
51.62363847995355

>  <Genealogy>
CC(O)=N[C@H]1[C@H](Oc2cccc3ccccc23)O[C@H](CO)[C@@H](O)[C@@H]1O (tautomer)
C/C(O)=N\[C@H]1[C@H](Oc2cccc3ccccc23)O[C@H](CO)[C@@H](O)[C@@H]1O (cis-trans isomerization)
C/C(O)=N\[C@H]1[C@H](Oc2cccc3ccccc23)O[C@H](CO)[C@@H](O)[C@@H]1O (3D coordinates assigned)
C/C(O)=N\[C@H]1[C@H](Oc2cccc3ccccc23)O[C@H](CO)[C@@H](O)[C@@H]1O (nonaromatic ring conformer: 51.62363847995355 kcal/mol)

$$$$
102416
 OpenBabel03032110343D

 42 43  0  0  0  0  0  0  0  0999 V2000
   -2.7075   -3.8132    1.3472 C   0  0  0  0  0  0  0  0  0  0  0  0
   -1.5773   -2.8428    1.4587 C   0  0  0  0  0  0  0  0  0  0  0  0
   -0.4103   -3.2107    1.1553 O   0  0  0  0  0  0  0  0  0  0  0  0
   -1.8192   -1.5167    1.9498 N   0  0  0  0  0  0  0  0  0  0  0  0
   -0.7618   -0.4997    2.0280 C   0  0  1  0  0  0  0  0  0  0  0  0
   -0.4407    0.0395    0.6122 C   0  0  2  0  0  0  0  0  0  0  0  0
    0.5958   -0.7518    0.0331 O   0  0  0  0  0  0  0  0  0  0  0  0
    1.0557   -0.6322   -1.2873 C   0  0  0  0  0  0  0  0  0  0  0  0
    0.5150    0.2944   -2.1984 C   0  0  0  0  0  0  0  0  0  0  0  0
    1.0102    0.3720   -3.5036 C   0  0  0  0  0  0  0  0  0  0  0  0
    2.0517   -0.4725   -3.9244 C   0  0  0  0  0  0  0  0  0  0  0  0
    2.5588   -0.3895   -5.2690 N   0  3  0  0  0  0  0  0  0  0  0  0
    3.4838   -1.1376   -5.6482 O   0  0  0  0  0  0  0  0  0  0  0  0
    2.0319    0.5169   -6.1604 O   0  5  0  0  0  0  0  0  0  0  0  0
    2.5874   -1.3975   -3.0104 C   0  0  0  0  0  0  0  0  0  0  0  0
    2.0914   -1.4735   -1.7060 C   0  0  0  0  0  0  0  0  0  0  0  0
   -0.0049    1.3836    0.6934 O   0  0  0  0  0  0  0  0  0  0  0  0
   -1.0999    2.2424    0.9776 C   0  0  2  0  0  0  0  0  0  0  0  0
   -0.5472    3.6619    1.1775 C   0  0  0  0  0  0  0  0  0  0  0  0
   -1.5892    4.5925    1.3055 O   0  0  0  0  0  0  0  0  0  0  0  0
   -1.9206    1.7697    2.2220 C   0  0  1  0  0  0  0  0  0  0  0  0
   -3.1739    1.2989    1.7940 O   0  0  0  0  0  0  0  0  0  0  0  0
   -1.1707    0.6522    2.9840 C   0  0  2  0  0  0  0  0  0  0  0  0
   -0.0137    1.1860    3.5789 O   0  0  0  0  0  0  0  0  0  0  0  0
   -3.0046   -4.1523    2.3612 H   0  0  0  0  0  0  0  0  0  0  0  0
   -2.4059   -4.6949    0.7426 H   0  0  0  0  0  0  0  0  0  0  0  0
   -3.5747   -3.3240    0.8562 H   0  0  0  0  0  0  0  0  0  0  0  0
   -2.7866   -1.2851    2.2707 H   0  0  0  0  0  0  0  0  0  0  0  0
    0.1488   -0.9764    2.4579 H   0  0  0  0  0  0  0  0  0  0  0  0
   -1.3475   -0.0480   -0.0341 H   0  0  0  0  0  0  0  0  0  0  0  0
   -0.2875    0.9593   -1.9113 H   0  0  0  0  0  0  0  0  0  0  0  0
    0.5767    1.0939   -4.1836 H   0  0  0  0  0  0  0  0  0  0  0  0
    3.3897   -2.0623   -3.3036 H   0  0  0  0  0  0  0  0  0  0  0  0
    2.5148   -2.1917   -1.0150 H   0  0  0  0  0  0  0  0  0  0  0  0
   -1.7628    2.2827    0.0816 H   0  0  0  0  0  0  0  0  0  0  0  0
    0.0790    3.6941    2.0947 H   0  0  0  0  0  0  0  0  0  0  0  0
    0.1053    3.9380    0.3176 H   0  0  0  0  0  0  0  0  0  0  0  0
   -1.9574    4.7346    0.3946 H   0  0  0  0  0  0  0  0  0  0  0  0
   -2.0855    2.6215    2.9239 H   0  0  0  0  0  0  0  0  0  0  0  0
   -3.7560    1.2517    2.5971 H   0  0  0  0  0  0  0  0  0  0  0  0
   -1.8269    0.2457    3.7898 H   0  0  0  0  0  0  0  0  0  0  0  0
   -0.3099    1.7164    4.3645 H   0  0  0  0  0  0  0  0  0  0  0  0
  1  2  1  0  0  0  0
  1 25  1  0  0  0  0
  1 26  1  0  0  0  0
  1 27  1  0  0  0  0
  2  3  2  0  0  0  0
  2  4  1  0  0  0  0
  4  5  1  0  0  0  0
  4 28  1  0  0  0  0
  5  6  1  0  0  0  0
  5 29  1  1  0  0  0
  6  7  1  0  0  0  0
  6 17  1  0  0  0  0
  6 30  1  6  0  0  0
  7  8  1  0  0  0  0
  8  9  2  0  0  0  0
  9 10  1  0  0  0  0
  9 31  1  0  0  0  0
 10 11  2  0  0  0  0
 10 32  1  0  0  0  0
 11 12  1  0  0  0  0
 11 15  1  0  0  0  0
 12 13  2  0  0  0  0
 12 14  1  0  0  0  0
 15 16  2  0  0  0  0
 15 33  1  0  0  0  0
 16  8  1  0  0  0  0
 16 34  1  0  0  0  0
 17 18  1  0  0  0  0
 18 19  1  0  0  0  0
 18 21  1  0  0  0  0
 18 35  1  6  0  0  0
 19 20  1  0  0  0  0
 19 36  1  0  0  0  0
 19 37  1  0  0  0  0
 20 38  1  0  0  0  0
 21 22  1  0  0  0  0
 21 23  1  0  0  0  0
 21 39  1  1  0  0  0
 22 40  1  0  0  0  0
 23 24  1  0  0  0  0
 23  5  1  0  0  0  0
 23 41  1  1  0  0  0
 24 42  1  0  0  0  0
M  CHG  2  12   1  14  -1
M  END
>  <UniqueID>
171

>  <SMILES>
CC(=O)N[C@H]1[C@H](Oc2ccc([N+](=O)[O-])cc2)O[C@H](CO)[C@@H](O)[C@@H]1O

>  <Energy>
47.24986794593224

>  <Genealogy>
CC(=O)N[C@H]1[C@H](Oc2ccc([N+](=O)[O-])cc2)O[C@H](CO)[C@@H](O)[C@@H]1O (3D coordinates assigned)
CC(=O)N[C@H]1[C@H](Oc2ccc([N+](=O)[O-])cc2)O[C@H](CO)[C@@H](O)[C@@H]1O (nonaromatic ring conformer: 47.24986794593224 kcal/mol)

$$$$
102416
 OpenBabel03032110343D

 42 43  0  0  0  0  0  0  0  0999 V2000
   -3.5571   -3.1645    1.7337 C   0  0  0  0  0  0  0  0  0  0  0  0
   -2.2101   -2.5498    1.5360 C   0  0  0  0  0  0  0  0  0  0  0  0
   -1.3328   -3.1697    0.8756 O   0  0  0  0  0  0  0  0  0  0  0  0
   -1.9147   -1.2719    2.1173 N   0  0  0  0  0  0  0  0  0  0  0  0
   -0.6022   -0.6293    1.9637 C   0  0  1  0  0  0  0  0  0  0  0  0
   -0.4026   -0.1368    0.4958 C   0  0  2  0  0  0  0  0  0  0  0  0
    0.8239   -0.6711   -0.0031 O   0  0  0  0  0  0  0  0  0  0  0  0
    1.2713   -0.5610   -1.3291 C   0  0  0  0  0  0  0  0  0  0  0  0
    0.5206    0.0780   -2.3338 C   0  0  0  0  0  0  0  0  0  0  0  0
    1.0141    0.1593   -3.6394 C   0  0  0  0  0  0  0  0  0  0  0  0
    2.2640   -0.3959   -3.9675 C   0  0  0  0  0  0  0  0  0  0  0  0
    2.7753   -0.3140   -5.3105 N   0  3  0  0  0  0  0  0  0  0  0  0
    2.1185    0.2523   -6.2088 O   0  0  0  0  0  0  0  0  0  0  0  0
    3.9989   -0.8585   -5.6273 O   0  5  0  0  0  0  0  0  0  0  0  0
    3.0082   -1.0341   -2.9608 C   0  0  0  0  0  0  0  0  0  0  0  0
    2.5135   -1.1143   -1.6561 C   0  0  0  0  0  0  0  0  0  0  0  0
   -0.3548    1.2791    0.3969 O   0  0  0  0  0  0  0  0  0  0  0  0
   -1.4746    1.8538    1.0412 C   0  0  2  0  0  0  0  0  0  0  0  0
   -1.6189    3.3079    0.5692 C   0  0  0  0  0  0  0  0  0  0  0  0
   -2.7319    3.9206    1.1635 O   0  0  0  0  0  0  0  0  0  0  0  0
   -1.2924    1.7671    2.5775 C   0  0  1  0  0  0  0  0  0  0  0  0
   -2.5562    1.7016    3.1881 O   0  0  0  0  0  0  0  0  0  0  0  0
   -0.4367    0.5313    2.9715 C   0  0  2  0  0  0  0  0  0  0  0  0
    0.9216    0.8923    3.0160 O   0  0  0  0  0  0  0  0  0  0  0  0
   -4.3451   -2.4337    1.4549 H   0  0  0  0  0  0  0  0  0  0  0  0
   -3.6697   -4.0713    1.1019 H   0  0  0  0  0  0  0  0  0  0  0  0
   -3.6814   -3.4476    2.7996 H   0  0  0  0  0  0  0  0  0  0  0  0
   -2.6486   -0.8274    2.7132 H   0  0  0  0  0  0  0  0  0  0  0  0
    0.1739   -1.3890    2.2122 H   0  0  0  0  0  0  0  0  0  0  0  0
   -1.2277   -0.5229   -0.1460 H   0  0  0  0  0  0  0  0  0  0  0  0
   -0.4448    0.5151   -2.1201 H   0  0  0  0  0  0  0  0  0  0  0  0
    0.4167    0.6565   -4.3929 H   0  0  0  0  0  0  0  0  0  0  0  0
    3.9732   -1.4719   -3.1808 H   0  0  0  0  0  0  0  0  0  0  0  0
    3.1003   -1.6096   -0.8926 H   0  0  0  0  0  0  0  0  0  0  0  0
   -2.4106    1.3225    0.7406 H   0  0  0  0  0  0  0  0  0  0  0  0
   -0.7068    3.8836    0.8363 H   0  0  0  0  0  0  0  0  0  0  0  0
   -1.7154    3.3344   -0.5404 H   0  0  0  0  0  0  0  0  0  0  0  0
   -3.5344    3.5569    0.7059 H   0  0  0  0  0  0  0  0  0  0  0  0
   -0.7667    2.6844    2.9363 H   0  0  0  0  0  0  0  0  0  0  0  0
   -2.4274    1.9367    4.1442 H   0  0  0  0  0  0  0  0  0  0  0  0
   -0.7420    0.1647    3.9807 H   0  0  0  0  0  0  0  0  0  0  0  0
    1.0625    1.3840    3.8672 H   0  0  0  0  0  0  0  0  0  0  0  0
  1  2  1  0  0  0  0
  1 25  1  0  0  0  0
  1 26  1  0  0  0  0
  1 27  1  0  0  0  0
  2  3  2  0  0  0  0
  2  4  1  0  0  0  0
  4  5  1  0  0  0  0
  4 28  1  0  0  0  0
  5  6  1  0  0  0  0
  5 29  1  1  0  0  0
  6  7  1  0  0  0  0
  6 17  1  0  0  0  0
  6 30  1  6  0  0  0
  7  8  1  0  0  0  0
  8  9  2  0  0  0  0
  9 10  1  0  0  0  0
  9 31  1  0  0  0  0
 10 11  2  0  0  0  0
 10 32  1  0  0  0  0
 11 12  1  0  0  0  0
 11 15  1  0  0  0  0
 12 13  2  0  0  0  0
 12 14  1  0  0  0  0
 15 16  2  0  0  0  0
 15 33  1  0  0  0  0
 16  8  1  0  0  0  0
 16 34  1  0  0  0  0
 17 18  1  0  0  0  0
 18 19  1  0  0  0  0
 18 21  1  0  0  0  0
 18 35  1  6  0  0  0
 19 20  1  0  0  0  0
 19 36  1  0  0  0  0
 19 37  1  0  0  0  0
 20 38  1  0  0  0  0
 21 22  1  0  0  0  0
 21 23  1  0  0  0  0
 21 39  1  1  0  0  0
 22 40  1  0  0  0  0
 23 24  1  0  0  0  0
 23  5  1  0  0  0  0
 23 41  1  1  0  0  0
 24 42  1  0  0  0  0
M  CHG  2  12   1  14  -1
M  END
>  <UniqueID>
172

>  <SMILES>
CC(=O)N[C@H]1[C@H](Oc2ccc([N+](=O)[O-])cc2)O[C@H](CO)[C@@H](O)[C@@H]1O

>  <Energy>
47.48876030027342

>  <Genealogy>
CC(=O)N[C@H]1[C@H](Oc2ccc([N+](=O)[O-])cc2)O[C@H](CO)[C@@H](O)[C@@H]1O (3D coordinates assigned)
CC(=O)N[C@H]1[C@H](Oc2ccc([N+](=O)[O-])cc2)O[C@H](CO)[C@@H](O)[C@@H]1O (nonaromatic ring conformer: 47.48876030027342 kcal/mol)

$$$$
99461
 OpenBabel03032110343D

 50 50  0  0  0  0  0  0  0  0999 V2000
   -3.6952   -1.9668    3.4146 C   0  0  0  0  0  0  0  0  0  0  0  0
   -2.4466   -1.1797    3.1860 C   0  0  0  0  0  0  0  0  0  0  0  0
   -1.8238   -0.7037    4.1733 O   0  0  0  0  0  0  0  0  0  0  0  0
   -1.9406   -1.0145    1.8534 N   0  0  0  0  0  0  0  0  0  0  0  0
   -0.6717   -0.3423    1.5566 C   0  0  1  0  0  0  0  0  0  0  0  0
    0.3935   -1.3686    1.1148 C   0  0  2  0  0  0  0  0  0  0  0  0
    0.6522   -2.2830    2.1813 O   0  0  0  0  0  0  0  0  0  0  0  0
   -0.0709   -3.4631    2.3941 C   0  0  0  0  0  0  0  0  0  0  0  0
    0.2160   -4.2912    3.5995 C   0  0  0  0  0  0  0  0  0  0  0  0
   -0.9311   -3.8562    1.5601 O   0  0  0  0  0  0  0  0  0  0  0  0
    1.6050   -0.7009    0.8138 O   0  0  0  0  0  0  0  0  0  0  0  0
    1.4492    0.1412   -0.3168 C   0  0  2  0  0  0  0  0  0  0  0  0
    2.8318    0.6854   -0.7056 C   0  0  0  0  0  0  0  0  0  0  0  0
    3.7604   -0.3825   -0.8899 O   0  0  0  0  0  0  0  0  0  0  0  0
    3.7583   -1.2205   -2.0104 C   0  0  0  0  0  0  0  0  0  0  0  0
    4.7382   -2.3410   -2.0897 C   0  0  0  0  0  0  0  0  0  0  0  0
    2.9722   -1.0101   -2.9738 O   0  0  0  0  0  0  0  0  0  0  0  0
    0.4638    1.2904    0.0054 C   0  0  1  0  0  0  0  0  0  0  0  0
    0.2569    2.1045   -1.1517 O   0  0  0  0  0  0  0  0  0  0  0  0
    0.8807    3.3396   -1.3632 C   0  0  0  0  0  0  0  0  0  0  0  0
    0.6041    4.0911   -2.6200 C   0  0  0  0  0  0  0  0  0  0  0  0
    1.7019    3.8044   -0.5267 O   0  0  0  0  0  0  0  0  0  0  0  0
   -0.8872    0.6986    0.4464 C   0  0  2  0  0  0  0  0  0  0  0  0
   -1.7395    1.7331    0.9434 O   0  0  0  0  0  0  0  0  0  0  0  0
   -2.5367    2.5451    0.1286 C   0  0  0  0  0  0  0  0  0  0  0  0
   -3.3003    3.6700    0.7390 C   0  0  0  0  0  0  0  0  0  0  0  0
   -2.5960    2.3558   -1.1165 O   0  0  0  0  0  0  0  0  0  0  0  0
   -3.4711   -3.0491    3.3150 H   0  0  0  0  0  0  0  0  0  0  0  0
   -4.4631   -1.6813    2.6656 H   0  0  0  0  0  0  0  0  0  0  0  0
   -4.0980   -1.7706    4.4309 H   0  0  0  0  0  0  0  0  0  0  0  0
   -2.4590   -1.4677    1.0665 H   0  0  0  0  0  0  0  0  0  0  0  0
   -0.2918    0.1873    2.4591 H   0  0  0  0  0  0  0  0  0  0  0  0
    0.0423   -1.9382    0.2216 H   0  0  0  0  0  0  0  0  0  0  0  0
    0.8812   -5.1342    3.3201 H   0  0  0  0  0  0  0  0  0  0  0  0
   -0.7313   -4.6924    4.0175 H   0  0  0  0  0  0  0  0  0  0  0  0
    0.7154   -3.6731    4.3746 H   0  0  0  0  0  0  0  0  0  0  0  0
    1.0624   -0.4391   -1.1868 H   0  0  0  0  0  0  0  0  0  0  0  0
    3.2121    1.3390    0.1083 H   0  0  0  0  0  0  0  0  0  0  0  0
    2.7730    1.2919   -1.6351 H   0  0  0  0  0  0  0  0  0  0  0  0
    4.2823   -3.2104   -2.6087 H   0  0  0  0  0  0  0  0  0  0  0  0
    5.6360   -2.0083   -2.6505 H   0  0  0  0  0  0  0  0  0  0  0  0
    5.0404   -2.6527   -1.0679 H   0  0  0  0  0  0  0  0  0  0  0  0
    0.8637    1.8972    0.8497 H   0  0  0  0  0  0  0  0  0  0  0  0
    1.3730    3.8370   -3.3787 H   0  0  0  0  0  0  0  0  0  0  0  0
   -0.3985    3.8179   -3.0107 H   0  0  0  0  0  0  0  0  0  0  0  0
    0.6268    5.1841   -2.4248 H   0  0  0  0  0  0  0  0  0  0  0  0
   -1.3694    0.1930   -0.4223 H   0  0  0  0  0  0  0  0  0  0  0  0
   -4.2998    3.7542    0.2626 H   0  0  0  0  0  0  0  0  0  0  0  0
   -2.7420    4.6178    0.5918 H   0  0  0  0  0  0  0  0  0  0  0  0
   -3.4352    3.4917    1.8265 H   0  0  0  0  0  0  0  0  0  0  0  0
  1  2  1  0  0  0  0
  1 28  1  0  0  0  0
  1 29  1  0  0  0  0
  1 30  1  0  0  0  0
  2  3  2  0  0  0  0
  2  4  1  0  0  0  0
  4  5  1  0  0  0  0
  4 31  1  0  0  0  0
  5  6  1  0  0  0  0
  5 32  1  1  0  0  0
  6  7  1  0  0  0  0
  6 11  1  0  0  0  0
  6 33  1  6  0  0  0
  7  8  1  0  0  0  0
  8  9  1  0  0  0  0
  8 10  2  0  0  0  0
  9 34  1  0  0  0  0
  9 35  1  0  0  0  0
  9 36  1  0  0  0  0
 11 12  1  0  0  0  0
 12 13  1  0  0  0  0
 12 18  1  0  0  0  0
 12 37  1  6  0  0  0
 13 14  1  0  0  0  0
 13 38  1  0  0  0  0
 13 39  1  0  0  0  0
 14 15  1  0  0  0  0
 15 16  1  0  0  0  0
 15 17  2  0  0  0  0
 16 40  1  0  0  0  0
 16 41  1  0  0  0  0
 16 42  1  0  0  0  0
 18 19  1  0  0  0  0
 18 23  1  0  0  0  0
 18 43  1  1  0  0  0
 19 20  1  0  0  0  0
 20 21  1  0  0  0  0
 20 22  2  0  0  0  0
 21 44  1  0  0  0  0
 21 45  1  0  0  0  0
 21 46  1  0  0  0  0
 23 24  1  0  0  0  0
 23  5  1  0  0  0  0
 23 47  1  6  0  0  0
 24 25  1  0  0  0  0
 25 26  1  0  0  0  0
 25 27  2  0  0  0  0
 26 48  1  0  0  0  0
 26 49  1  0  0  0  0
 26 50  1  0  0  0  0
M  END
>  <UniqueID>
173

>  <SMILES>
CC(=O)N[C@H]1[C@H](OC(C)=O)O[C@H](COC(C)=O)[C@@H](OC(C)=O)[C@@H]1OC(C)=O

>  <Energy>
32.0085864282444

>  <Genealogy>
CC(=O)N[C@H]1[C@H](OC(C)=O)O[C@H](COC(C)=O)[C@@H](OC(C)=O)[C@@H]1OC(C)=O (3D coordinates assigned)
CC(=O)N[C@H]1[C@H](OC(C)=O)O[C@H](COC(C)=O)[C@@H](OC(C)=O)[C@@H]1OC(C)=O (nonaromatic ring conformer: 32.0085864282444 kcal/mol)

$$$$
99461
 OpenBabel03032110343D

 50 50  0  0  0  0  0  0  0  0999 V2000
   -2.6054    1.3251    1.4649 H   0  0  0  0  0  0  0  0  0  0  0  0
   -3.2776    0.8259    2.0307 O   0  0  0  0  0  0  0  0  0  0  0  0
   -3.0342   -0.4231    2.6099 C   0  0  0  0  0  0  0  0  0  0  0  0
   -1.8871   -1.0327    2.5096 N   0  0  0  0  0  0  0  0  0  0  0  0
   -0.6898   -0.5618    1.8092 C   0  0  1  0  0  0  0  0  0  0  0  0
   -0.6149    0.5460    1.8578 H   0  0  0  0  0  0  0  0  0  0  0  0
    0.5661   -1.1266    2.5093 C   0  0  2  0  0  0  0  0  0  0  0  0
    0.5353   -2.2422    2.5284 H   0  0  0  0  0  0  0  0  0  0  0  0
    0.6289   -0.6400    3.8514 O   0  0  0  0  0  0  0  0  0  0  0  0
   -0.0140   -1.2478    4.9368 C   0  0  0  0  0  0  0  0  0  0  0  0
   -0.6042   -2.3542    4.8047 O   0  0  0  0  0  0  0  0  0  0  0  0
    0.0511   -0.6046    6.2797 C   0  0  0  0  0  0  0  0  0  0  0  0
    0.2167    0.4877    6.1690 H   0  0  0  0  0  0  0  0  0  0  0  0
   -0.9017   -0.7684    6.8270 H   0  0  0  0  0  0  0  0  0  0  0  0
    0.8885   -1.0440    6.8604 H   0  0  0  0  0  0  0  0  0  0  0  0
    1.7336   -0.6894    1.8371 O   0  0  0  0  0  0  0  0  0  0  0  0
    1.7965   -1.2328    0.5291 C   0  0  2  0  0  0  0  0  0  0  0  0
    1.7387   -2.3464    0.5680 H   0  0  0  0  0  0  0  0  0  0  0  0
    3.1636   -0.8862   -0.0708 C   0  0  0  0  0  0  0  0  0  0  0  0
    3.9622   -1.2980    0.5842 H   0  0  0  0  0  0  0  0  0  0  0  0
    3.2711   -1.3521   -1.0739 H   0  0  0  0  0  0  0  0  0  0  0  0
    3.3180    0.5270   -0.1699 O   0  0  0  0  0  0  0  0  0  0  0  0
    4.4571    1.1249   -0.7147 C   0  0  0  0  0  0  0  0  0  0  0  0
    5.4028    0.4213   -1.1628 O   0  0  0  0  0  0  0  0  0  0  0  0
    4.5274    2.6103   -0.8175 C   0  0  0  0  0  0  0  0  0  0  0  0
    4.1549    2.9292   -1.8133 H   0  0  0  0  0  0  0  0  0  0  0  0
    5.5761    2.9537   -0.6898 H   0  0  0  0  0  0  0  0  0  0  0  0
    3.8994    3.0739   -0.0277 H   0  0  0  0  0  0  0  0  0  0  0  0
    0.6312   -0.6893   -0.3338 C   0  0  1  0  0  0  0  0  0  0  0  0
    0.7013    0.4202   -0.4041 H   0  0  0  0  0  0  0  0  0  0  0  0
    0.6498   -1.2830   -1.6351 O   0  0  0  0  0  0  0  0  0  0  0  0
    1.1700   -0.6578   -2.7745 C   0  0  0  0  0  0  0  0  0  0  0  0
    1.6076    0.5237   -2.7248 O   0  0  0  0  0  0  0  0  0  0  0  0
    1.1567   -1.3833   -4.0763 C   0  0  0  0  0  0  0  0  0  0  0  0
    2.0598   -1.1225   -4.6676 H   0  0  0  0  0  0  0  0  0  0  0  0
    0.2486   -1.1003   -4.6480 H   0  0  0  0  0  0  0  0  0  0  0  0
    1.1493   -2.4792   -3.8987 H   0  0  0  0  0  0  0  0  0  0  0  0
   -0.7037   -1.0335    0.3396 C   0  0  2  0  0  0  0  0  0  0  0  0
   -0.8252   -2.1412    0.3103 H   0  0  0  0  0  0  0  0  0  0  0  0
   -1.7590   -0.4002   -0.3874 O   0  0  0  0  0  0  0  0  0  0  0  0
   -3.0157   -0.9786   -0.6029 C   0  0  0  0  0  0  0  0  0  0  0  0
   -3.2715   -2.1452   -0.1986 O   0  0  0  0  0  0  0  0  0  0  0  0
   -4.0580   -0.2129   -1.3430 C   0  0  0  0  0  0  0  0  0  0  0  0
   -3.7526    0.8498   -1.4418 H   0  0  0  0  0  0  0  0  0  0  0  0
   -4.1907   -0.6488   -2.3548 H   0  0  0  0  0  0  0  0  0  0  0  0
   -5.0207   -0.2595   -0.7922 H   0  0  0  0  0  0  0  0  0  0  0  0
   -4.1284   -1.0793    3.3816 C   0  0  0  0  0  0  0  0  0  0  0  0
   -4.3289   -2.0887    2.9638 H   0  0  0  0  0  0  0  0  0  0  0  0
   -5.0579   -0.4749    3.3209 H   0  0  0  0  0  0  0  0  0  0  0  0
   -3.8284   -1.1752    4.4465 H   0  0  0  0  0  0  0  0  0  0  0  0
  1  2  1  0  0  0  0
  2  3  1  0  0  0  0
  3  4  2  0  0  0  0
  3 47  1  0  0  0  0
  4  5  1  0  0  0  0
  5  6  1  1  0  0  0
  5  7  1  0  0  0  0
  7  8  1  1  0  0  0
  7  9  1  0  0  0  0
  7 16  1  0  0  0  0
  9 10  1  0  0  0  0
 10 11  2  0  0  0  0
 10 12  1  0  0  0  0
 12 13  1  0  0  0  0
 12 14  1  0  0  0  0
 12 15  1  0  0  0  0
 16 17  1  0  0  0  0
 17 18  1  1  0  0  0
 17 19  1  0  0  0  0
 17 29  1  0  0  0  0
 19 20  1  0  0  0  0
 19 21  1  0  0  0  0
 19 22  1  0  0  0  0
 22 23  1  0  0  0  0
 23 24  2  0  0  0  0
 23 25  1  0  0  0  0
 25 26  1  0  0  0  0
 25 27  1  0  0  0  0
 25 28  1  0  0  0  0
 29 30  1  6  0  0  0
 29 31  1  0  0  0  0
 29 38  1  0  0  0  0
 31 32  1  0  0  0  0
 32 33  2  0  0  0  0
 32 34  1  0  0  0  0
 34 35  1  0  0  0  0
 34 36  1  0  0  0  0
 34 37  1  0  0  0  0
 38 39  1  6  0  0  0
 38 40  1  0  0  0  0
 38  5  1  0  0  0  0
 40 41  1  0  0  0  0
 41 42  2  0  0  0  0
 41 43  1  0  0  0  0
 43 44  1  0  0  0  0
 43 45  1  0  0  0  0
 43 46  1  0  0  0  0
 47 48  1  0  0  0  0
 47 49  1  0  0  0  0
 47 50  1  0  0  0  0
M  END
>  <UniqueID>
174

>  <SMILES>
CC(=O)OC[C@H]1O[C@@H](OC(C)=O)[C@H](/N=C(/C)O)[C@@H](OC(C)=O)[C@@H]1OC(C)=O

>  <Energy>
34.73612246804727

>  <Genealogy>
CC(=O)OC[C@H]1O[C@@H](OC(C)=O)[C@H](N=C(C)O)[C@@H](OC(C)=O)[C@@H]1OC(C)=O (tautomer)
CC(=O)OC[C@H]1O[C@@H](OC(C)=O)[C@H](/N=C(/C)O)[C@@H](OC(C)=O)[C@@H]1OC(C)=O (cis-trans isomerization)
CC(=O)OC[C@H]1O[C@@H](OC(C)=O)[C@H](/N=C(/C)O)[C@@H](OC(C)=O)[C@@H]1OC(C)=O (3D coordinates assigned)
CC(=O)OC[C@H]1O[C@@H](OC(C)=O)[C@H](/N=C(/C)O)[C@@H](OC(C)=O)[C@@H]1OC(C)=O (nonaromatic ring conformer: 34.73612246804727 kcal/mol)

$$$$
96523
 OpenBabel03032110343D

 33 33  0  0  0  0  0  0  0  0999 V2000
    1.5787    1.0476   -2.2200 H   0  0  0  0  0  0  0  0  0  0  0  0
    1.0586    1.1041   -3.0849 O   0  0  0  0  0  0  0  0  0  0  0  0
   -0.1488    0.4363   -3.3083 C   0  0  0  0  0  0  0  0  0  0  0  0
   -0.7208   -0.2977   -2.3967 N   0  0  0  0  0  0  0  0  0  0  0  0
   -0.2521   -0.5122   -1.0252 C   0  0  1  0  0  0  0  0  0  0  0  0
    0.8457   -0.6962   -1.0235 H   0  0  0  0  0  0  0  0  0  0  0  0
   -0.5706    0.7176   -0.1448 C   0  0  1  0  0  0  0  0  0  0  0  0
    0.0494    1.5558   -0.5362 H   0  0  0  0  0  0  0  0  0  0  0  0
   -1.9499    1.0430   -0.2357 O   0  0  0  0  0  0  0  0  0  0  0  0
   -2.1743    2.3476    0.2522 C   0  0  0  0  0  0  0  0  0  0  0  0
   -3.2645    2.5504    0.2281 H   0  0  0  0  0  0  0  0  0  0  0  0
   -1.6776    3.1052   -0.3932 H   0  0  0  0  0  0  0  0  0  0  0  0
   -1.8370    2.4531    1.3071 H   0  0  0  0  0  0  0  0  0  0  0  0
   -0.1751    0.4889    1.2016 O   0  0  0  0  0  0  0  0  0  0  0  0
   -0.8834   -0.5966    1.7809 C   0  0  2  0  0  0  0  0  0  0  0  0
   -1.9814   -0.4080    1.7452 H   0  0  0  0  0  0  0  0  0  0  0  0
   -0.5102   -0.6828    3.2687 C   0  0  0  0  0  0  0  0  0  0  0  0
   -1.0675   -1.5093    3.7680 H   0  0  0  0  0  0  0  0  0  0  0  0
   -0.8188    0.2608    3.7671 H   0  0  0  0  0  0  0  0  0  0  0  0
    0.8756   -0.8333    3.4324 O   0  0  0  0  0  0  0  0  0  0  0  0
    1.0563   -1.8079    3.4848 H   0  0  0  0  0  0  0  0  0  0  0  0
   -0.5736   -1.9162    1.0382 C   0  0  1  0  0  0  0  0  0  0  0  0
    0.5184   -2.1318    1.1250 H   0  0  0  0  0  0  0  0  0  0  0  0
   -1.3255   -2.9609    1.6025 O   0  0  0  0  0  0  0  0  0  0  0  0
   -0.8317   -3.8031    1.4227 H   0  0  0  0  0  0  0  0  0  0  0  0
   -0.9328   -1.7633   -0.4503 C   0  0  2  0  0  0  0  0  0  0  0  0
   -2.0394   -1.6471   -0.5514 H   0  0  0  0  0  0  0  0  0  0  0  0
   -0.5012   -2.8923   -1.1671 O   0  0  0  0  0  0  0  0  0  0  0  0
   -1.2052   -3.5852   -1.0679 H   0  0  0  0  0  0  0  0  0  0  0  0
   -0.7916    0.5478   -4.6496 C   0  0  0  0  0  0  0  0  0  0  0  0
   -1.8643    0.8108   -4.5347 H   0  0  0  0  0  0  0  0  0  0  0  0
   -0.7062   -0.4210   -5.1848 H   0  0  0  0  0  0  0  0  0  0  0  0
   -0.2926    1.3375   -5.2497 H   0  0  0  0  0  0  0  0  0  0  0  0
  1  2  1  0  0  0  0
  2  3  1  0  0  0  0
  3  4  2  0  0  0  0
  3 30  1  0  0  0  0
  4  5  1  0  0  0  0
  5  6  1  6  0  0  0
  5  7  1  0  0  0  0
  7  8  1  6  0  0  0
  7  9  1  0  0  0  0
  7 14  1  0  0  0  0
  9 10  1  0  0  0  0
 10 11  1  0  0  0  0
 10 12  1  0  0  0  0
 10 13  1  0  0  0  0
 14 15  1  0  0  0  0
 15 16  1  6  0  0  0
 15 17  1  0  0  0  0
 15 22  1  0  0  0  0
 17 18  1  0  0  0  0
 17 19  1  0  0  0  0
 17 20  1  0  0  0  0
 20 21  1  0  0  0  0
 22 23  1  1  0  0  0
 22 24  1  0  0  0  0
 22 26  1  0  0  0  0
 24 25  1  0  0  0  0
 26 27  1  6  0  0  0
 26 28  1  0  0  0  0
 26  5  1  0  0  0  0
 28 29  1  0  0  0  0
 30 31  1  0  0  0  0
 30 32  1  0  0  0  0
 30 33  1  0  0  0  0
M  END
>  <UniqueID>
175

>  <SMILES>
CO[C@H]1O[C@H](CO)[C@@H](O)[C@H](O)[C@H]1/N=C(\C)O

>  <Energy>
31.34483298792023

>  <Genealogy>
CO[C@H]1O[C@H](CO)[C@@H](O)[C@H](O)[C@H]1N=C(C)O (tautomer)
CO[C@H]1O[C@H](CO)[C@@H](O)[C@H](O)[C@H]1/N=C(\C)O (cis-trans isomerization)
CO[C@H]1O[C@H](CO)[C@@H](O)[C@H](O)[C@H]1/N=C(\C)O (3D coordinates assigned)
CO[C@H]1O[C@H](CO)[C@@H](O)[C@H](O)[C@H]1/N=C(\C)O (nonaromatic ring conformer: 31.34483298792023 kcal/mol)

$$$$
96523
 OpenBabel03032110343D

 33 33  0  0  0  0  0  0  0  0999 V2000
    1.7011    0.7580    3.2542 C   0  0  0  0  0  0  0  0  0  0  0  0
    1.3435    0.3530    1.9511 O   0  0  0  0  0  0  0  0  0  0  0  0
   -0.0188    0.6706    1.6947 C   0  0  1  0  0  0  0  0  0  0  0  0
   -0.1861    2.0583    1.4437 O   0  0  0  0  0  0  0  0  0  0  0  0
    0.6696    2.5082    0.4002 C   0  0  2  0  0  0  0  0  0  0  0  0
    0.3414    3.9767    0.1019 C   0  0  0  0  0  0  0  0  0  0  0  0
   -0.9908    4.1066   -0.3121 O   0  0  0  0  0  0  0  0  0  0  0  0
    0.5770    1.6273   -0.8887 C   0  0  1  0  0  0  0  0  0  0  0  0
    1.7670    0.8999   -1.0595 O   0  0  0  0  0  0  0  0  0  0  0  0
   -0.6041    0.6460   -0.8096 C   0  0  2  0  0  0  0  0  0  0  0  0
   -1.8046    1.3732   -0.8918 O   0  0  0  0  0  0  0  0  0  0  0  0
   -0.5719   -0.1706    0.5100 C   0  0  1  0  0  0  0  0  0  0  0  0
    0.1945   -1.4140    0.3441 N   0  0  0  0  0  0  0  0  0  0  0  0
    0.1192   -2.4898    1.2900 C   0  0  0  0  0  0  0  0  0  0  0  0
    0.9368   -3.7224    1.0817 C   0  0  0  0  0  0  0  0  0  0  0  0
   -0.6408   -2.4078    2.2928 O   0  0  0  0  0  0  0  0  0  0  0  0
    1.1662    0.1511    4.0174 H   0  0  0  0  0  0  0  0  0  0  0  0
    2.7884    0.5871    3.3910 H   0  0  0  0  0  0  0  0  0  0  0  0
    1.5082    1.8421    3.4143 H   0  0  0  0  0  0  0  0  0  0  0  0
   -0.6494    0.4085    2.5775 H   0  0  0  0  0  0  0  0  0  0  0  0
    1.7205    2.5112    0.7706 H   0  0  0  0  0  0  0  0  0  0  0  0
    1.0250    4.3611   -0.6886 H   0  0  0  0  0  0  0  0  0  0  0  0
    0.5036    4.5787    1.0242 H   0  0  0  0  0  0  0  0  0  0  0  0
   -1.1296    5.0723   -0.4935 H   0  0  0  0  0  0  0  0  0  0  0  0
    0.4207    2.2615   -1.7940 H   0  0  0  0  0  0  0  0  0  0  0  0
    2.4532    1.5437   -1.3768 H   0  0  0  0  0  0  0  0  0  0  0  0
   -0.5456   -0.0420   -1.6868 H   0  0  0  0  0  0  0  0  0  0  0  0
   -2.5134    0.7332   -1.1640 H   0  0  0  0  0  0  0  0  0  0  0  0
   -1.6238   -0.4545    0.7422 H   0  0  0  0  0  0  0  0  0  0  0  0
    0.8034   -1.5429   -0.4957 H   0  0  0  0  0  0  0  0  0  0  0  0
    2.0070   -3.4458    0.9819 H   0  0  0  0  0  0  0  0  0  0  0  0
    0.8242   -4.4171    1.9409 H   0  0  0  0  0  0  0  0  0  0  0  0
    0.6040   -4.2355    0.1557 H   0  0  0  0  0  0  0  0  0  0  0  0
  1  2  1  0  0  0  0
  1 17  1  0  0  0  0
  1 18  1  0  0  0  0
  1 19  1  0  0  0  0
  2  3  1  0  0  0  0
  3  4  1  0  0  0  0
  3 20  1  1  0  0  0
  4  5  1  0  0  0  0
  5  6  1  0  0  0  0
  5  8  1  0  0  0  0
  5 21  1  1  0  0  0
  6  7  1  0  0  0  0
  6 22  1  0  0  0  0
  6 23  1  0  0  0  0
  7 24  1  0  0  0  0
  8  9  1  0  0  0  0
  8 10  1  0  0  0  0
  8 25  1  6  0  0  0
  9 26  1  0  0  0  0
 10 11  1  0  0  0  0
 10 12  1  0  0  0  0
 10 27  1  6  0  0  0
 11 28  1  0  0  0  0
 12 13  1  0  0  0  0
 12  3  1  0  0  0  0
 12 29  1  1  0  0  0
 13 14  1  0  0  0  0
 13 30  1  0  0  0  0
 14 15  1  0  0  0  0
 14 16  2  0  0  0  0
 15 31  1  0  0  0  0
 15 32  1  0  0  0  0
 15 33  1  0  0  0  0
M  END
>  <UniqueID>
176

>  <SMILES>
CO[C@H]1O[C@H](CO)[C@@H](O)[C@H](O)[C@H]1NC(C)=O

>  <Energy>
38.66900813110326

>  <Genealogy>
CO[C@H]1O[C@H](CO)[C@@H](O)[C@H](O)[C@H]1NC(C)=O (3D coordinates assigned)
CO[C@H]1O[C@H](CO)[C@@H](O)[C@H](O)[C@H]1NC(C)=O (nonaromatic ring conformer: 38.66900813110326 kcal/mol)

$$$$
90220
 OpenBabel03032110343D

 42 43  0  0  0  0  0  0  0  0999 V2000
    1.8983    2.2016    4.6705 C   0  0  0  0  0  0  0  0  0  0  0  0
    0.8651    1.4423    3.9041 C   0  0  0  0  0  0  0  0  0  0  0  0
   -0.3343    1.4581    4.2927 O   0  0  0  0  0  0  0  0  0  0  0  0
    1.2489    0.6707    2.7575 N   0  0  0  0  0  0  0  0  0  0  0  0
    0.2744   -0.0622    1.9401 C   0  0  1  0  0  0  0  0  0  0  0  0
   -0.5377    0.9183    1.0655 C   0  0  1  0  0  0  0  0  0  0  0  0
    0.3376    1.7719    0.3197 O   0  0  0  0  0  0  0  0  0  0  0  0
   -0.0762    2.8504   -0.4770 C   0  0  0  0  0  0  0  0  0  0  0  0
   -1.4243    3.2376   -0.5893 C   0  0  0  0  0  0  0  0  0  0  0  0
   -1.7831    4.3159   -1.4034 C   0  0  0  0  0  0  0  0  0  0  0  0
   -0.8039    5.0292   -2.1182 C   0  0  0  0  0  0  0  0  0  0  0  0
   -1.1695    6.1398   -2.9576 N   0  3  0  0  0  0  0  0  0  0  0  0
   -2.3630    6.4900   -3.0668 O   0  0  0  0  0  0  0  0  0  0  0  0
   -0.2083    6.8351   -3.6552 O   0  5  0  0  0  0  0  0  0  0  0  0
    0.5410    4.6399   -1.9993 C   0  0  0  0  0  0  0  0  0  0  0  0
    0.8977    3.5610   -1.1855 C   0  0  0  0  0  0  0  0  0  0  0  0
   -1.4396    0.2260    0.2126 O   0  0  0  0  0  0  0  0  0  0  0  0
   -0.7535   -0.6069   -0.7099 C   0  0  2  0  0  0  0  0  0  0  0  0
   -1.7643   -1.1883   -1.7081 C   0  0  0  0  0  0  0  0  0  0  0  0
   -2.3218   -0.1653   -2.4891 O   0  0  0  0  0  0  0  0  0  0  0  0
    0.0143   -1.7310    0.0278 C   0  0  2  0  0  0  0  0  0  0  0  0
   -0.8599   -2.6512    0.6395 O   0  0  0  0  0  0  0  0  0  0  0  0
    0.9882   -1.1046    1.0479 C   0  0  2  0  0  0  0  0  0  0  0  0
    1.6250   -2.0950    1.8178 O   0  0  0  0  0  0  0  0  0  0  0  0
    2.5337    2.7817    3.9690 H   0  0  0  0  0  0  0  0  0  0  0  0
    1.4170    2.9058    5.3820 H   0  0  0  0  0  0  0  0  0  0  0  0
    2.5344    1.4905    5.2374 H   0  0  0  0  0  0  0  0  0  0  0  0
    2.2657    0.6182    2.5189 H   0  0  0  0  0  0  0  0  0  0  0  0
   -0.4293   -0.5955    2.6170 H   0  0  0  0  0  0  0  0  0  0  0  0
   -1.1408    1.5519    1.7503 H   0  0  0  0  0  0  0  0  0  0  0  0
   -2.2038    2.7149   -0.0531 H   0  0  0  0  0  0  0  0  0  0  0  0
   -2.8274    4.5921   -1.4732 H   0  0  0  0  0  0  0  0  0  0  0  0
    1.3184    5.1682   -2.5357 H   0  0  0  0  0  0  0  0  0  0  0  0
    1.9385    3.2730   -1.1068 H   0  0  0  0  0  0  0  0  0  0  0  0
   -0.0256   -0.0135   -1.3103 H   0  0  0  0  0  0  0  0  0  0  0  0
   -2.5668   -1.7480   -1.1752 H   0  0  0  0  0  0  0  0  0  0  0  0
   -1.2473   -1.9000   -2.3869 H   0  0  0  0  0  0  0  0  0  0  0  0
   -3.0148    0.2755   -1.9315 H   0  0  0  0  0  0  0  0  0  0  0  0
    0.6196   -2.2899   -0.7194 H   0  0  0  0  0  0  0  0  0  0  0  0
   -1.4806   -2.1471    1.2261 H   0  0  0  0  0  0  0  0  0  0  0  0
    1.7787   -0.5782    0.4673 H   0  0  0  0  0  0  0  0  0  0  0  0
    0.9450   -2.5037    2.4141 H   0  0  0  0  0  0  0  0  0  0  0  0
  1  2  1  0  0  0  0
  1 25  1  0  0  0  0
  1 26  1  0  0  0  0
  1 27  1  0  0  0  0
  2  3  2  0  0  0  0
  2  4  1  0  0  0  0
  4  5  1  0  0  0  0
  4 28  1  0  0  0  0
  5  6  1  0  0  0  0
  5 29  1  1  0  0  0
  6  7  1  0  0  0  0
  6 17  1  0  0  0  0
  6 30  1  1  0  0  0
  7  8  1  0  0  0  0
  8  9  2  0  0  0  0
  9 10  1  0  0  0  0
  9 31  1  0  0  0  0
 10 11  2  0  0  0  0
 10 32  1  0  0  0  0
 11 12  1  0  0  0  0
 11 15  1  0  0  0  0
 12 13  2  0  0  0  0
 12 14  1  0  0  0  0
 15 16  2  0  0  0  0
 15 33  1  0  0  0  0
 16  8  1  0  0  0  0
 16 34  1  0  0  0  0
 17 18  1  0  0  0  0
 18 19  1  0  0  0  0
 18 21  1  0  0  0  0
 18 35  1  6  0  0  0
 19 20  1  0  0  0  0
 19 36  1  0  0  0  0
 19 37  1  0  0  0  0
 20 38  1  0  0  0  0
 21 22  1  0  0  0  0
 21 23  1  0  0  0  0
 21 39  1  6  0  0  0
 22 40  1  0  0  0  0
 23 24  1  0  0  0  0
 23  5  1  0  0  0  0
 23 41  1  6  0  0  0
 24 42  1  0  0  0  0
M  CHG  2  12   1  14  -1
M  END
>  <UniqueID>
177

>  <SMILES>
CC(=O)N[C@H]1[C@@H](Oc2ccc([N+](=O)[O-])cc2)O[C@H](CO)[C@H](O)[C@@H]1O

>  <Energy>
41.859358955304735

>  <Genealogy>
CC(=O)N[C@H]1[C@@H](Oc2ccc([N+](=O)[O-])cc2)O[C@H](CO)[C@H](O)[C@@H]1O (3D coordinates assigned)
CC(=O)N[C@H]1[C@@H](Oc2ccc([N+](=O)[O-])cc2)O[C@H](CO)[C@H](O)[C@@H]1O (nonaromatic ring conformer: 41.859358955304735 kcal/mol)

$$$$
90220
 OpenBabel03032110343D

 42 43  0  0  0  0  0  0  0  0999 V2000
    3.2378    1.3576    3.0682 C   0  0  0  0  0  0  0  0  0  0  0  0
    1.7842    1.3236    2.7259 C   0  0  0  0  0  0  0  0  0  0  0  0
    0.9465    1.8394    3.5146 O   0  0  0  0  0  0  0  0  0  0  0  0
    1.3547    0.7388    1.4887 N   0  0  0  0  0  0  0  0  0  0  0  0
   -0.0612    0.6700    1.1024 C   0  0  1  0  0  0  0  0  0  0  0  0
   -0.2030    0.4200   -0.4152 C   0  0  1  0  0  0  0  0  0  0  0  0
    0.4590    1.4610   -1.1374 O   0  0  0  0  0  0  0  0  0  0  0  0
    0.0034    2.7822   -1.2850 C   0  0  0  0  0  0  0  0  0  0  0  0
    0.8550    3.7054   -1.9008 C   0  0  0  0  0  0  0  0  0  0  0  0
    0.4599    5.0344   -2.0761 C   0  0  0  0  0  0  0  0  0  0  0  0
   -0.8034    5.4660   -1.6388 C   0  0  0  0  0  0  0  0  0  0  0  0
   -1.2084    6.8354   -1.8196 N   0  3  0  0  0  0  0  0  0  0  0  0
   -2.3301    7.2243   -1.4329 O   0  0  0  0  0  0  0  0  0  0  0  0
   -0.3646    7.7405   -2.4218 O   0  5  0  0  0  0  0  0  0  0  0  0
   -1.6628    4.5376   -1.0247 C   0  0  0  0  0  0  0  0  0  0  0  0
   -1.2663    3.2084   -0.8502 C   0  0  0  0  0  0  0  0  0  0  0  0
    0.3989   -0.8094   -0.7787 O   0  0  0  0  0  0  0  0  0  0  0  0
   -0.2223   -1.9352   -0.1715 C   0  0  2  0  0  0  0  0  0  0  0  0
   -1.5065   -2.3776   -0.9137 C   0  0  0  0  0  0  0  0  0  0  0  0
   -2.6180   -1.5884   -0.5870 O   0  0  0  0  0  0  0  0  0  0  0  0
   -0.3141   -1.8332    1.3784 C   0  0  2  0  0  0  0  0  0  0  0  0
   -1.1408   -2.8489    1.8879 O   0  0  0  0  0  0  0  0  0  0  0  0
   -0.7773   -0.4492    1.8778 C   0  0  2  0  0  0  0  0  0  0  0  0
   -2.1694   -0.3192    1.7460 O   0  0  0  0  0  0  0  0  0  0  0  0
    3.3820    1.6510    4.1297 H   0  0  0  0  0  0  0  0  0  0  0  0
    3.6827    0.3526    2.9118 H   0  0  0  0  0  0  0  0  0  0  0  0
    3.7538    2.0917    2.4151 H   0  0  0  0  0  0  0  0  0  0  0  0
    2.0887    0.3868    0.8324 H   0  0  0  0  0  0  0  0  0  0  0  0
   -0.5414    1.6411    1.3493 H   0  0  0  0  0  0  0  0  0  0  0  0
   -1.2698    0.4163   -0.7170 H   0  0  0  0  0  0  0  0  0  0  0  0
    1.8328    3.3906   -2.2432 H   0  0  0  0  0  0  0  0  0  0  0  0
    1.1442    5.7235   -2.5539 H   0  0  0  0  0  0  0  0  0  0  0  0
   -2.6436    4.8390   -0.6797 H   0  0  0  0  0  0  0  0  0  0  0  0
   -1.9594    2.5268   -0.3789 H   0  0  0  0  0  0  0  0  0  0  0  0
    0.4822   -2.7778   -0.3509 H   0  0  0  0  0  0  0  0  0  0  0  0
   -1.7080   -3.4547   -0.7010 H   0  0  0  0  0  0  0  0  0  0  0  0
   -1.3315   -2.3003   -2.0079 H   0  0  0  0  0  0  0  0  0  0  0  0
   -3.1707   -2.1096    0.0520 H   0  0  0  0  0  0  0  0  0  0  0  0
    0.7214   -1.9886    1.7666 H   0  0  0  0  0  0  0  0  0  0  0  0
   -0.9496   -2.9154    2.8600 H   0  0  0  0  0  0  0  0  0  0  0  0
   -0.5155   -0.3753    2.9594 H   0  0  0  0  0  0  0  0  0  0  0  0
   -2.4441    0.4445    2.3180 H   0  0  0  0  0  0  0  0  0  0  0  0
  1  2  1  0  0  0  0
  1 25  1  0  0  0  0
  1 26  1  0  0  0  0
  1 27  1  0  0  0  0
  2  3  2  0  0  0  0
  2  4  1  0  0  0  0
  4  5  1  0  0  0  0
  4 28  1  0  0  0  0
  5  6  1  0  0  0  0
  5 29  1  1  0  0  0
  6  7  1  0  0  0  0
  6 17  1  0  0  0  0
  6 30  1  6  0  0  0
  7  8  1  0  0  0  0
  8  9  2  0  0  0  0
  9 10  1  0  0  0  0
  9 31  1  0  0  0  0
 10 11  2  0  0  0  0
 10 32  1  0  0  0  0
 11 12  1  0  0  0  0
 11 15  1  0  0  0  0
 12 13  2  0  0  0  0
 12 14  1  0  0  0  0
 15 16  2  0  0  0  0
 15 33  1  0  0  0  0
 16  8  1  0  0  0  0
 16 34  1  0  0  0  0
 17 18  1  0  0  0  0
 18 19  1  0  0  0  0
 18 21  1  0  0  0  0
 18 35  1  6  0  0  0
 19 20  1  0  0  0  0
 19 36  1  0  0  0  0
 19 37  1  0  0  0  0
 20 38  1  0  0  0  0
 21 22  1  0  0  0  0
 21 23  1  0  0  0  0
 21 39  1  1  0  0  0
 22 40  1  0  0  0  0
 23 24  1  0  0  0  0
 23  5  1  0  0  0  0
 23 41  1  1  0  0  0
 24 42  1  0  0  0  0
M  CHG  2  12   1  14  -1
M  END
>  <UniqueID>
178

>  <SMILES>
CC(=O)N[C@H]1[C@@H](Oc2ccc([N+](=O)[O-])cc2)O[C@H](CO)[C@H](O)[C@@H]1O

>  <Energy>
48.88383513686146

>  <Genealogy>
CC(=O)N[C@H]1[C@@H](Oc2ccc([N+](=O)[O-])cc2)O[C@H](CO)[C@H](O)[C@@H]1O (3D coordinates assigned)
CC(=O)N[C@H]1[C@@H](Oc2ccc([N+](=O)[O-])cc2)O[C@H](CO)[C@H](O)[C@@H]1O (nonaromatic ring conformer: 48.88383513686146 kcal/mol)

$$$$
84265
 OpenBabel03032110343D

 30 30  0  0  0  0  0  0  0  0999 V2000
    0.1164    4.9501    0.1327 H   0  0  0  0  0  0  0  0  0  0  0  0
    0.2336    3.9965   -0.1880 O   0  0  0  0  0  0  0  0  0  0  0  0
    0.3302    2.9314    0.7040 C   0  0  0  0  0  0  0  0  0  0  0  0
    0.4937    1.7336    0.2194 N   0  0  0  0  0  0  0  0  0  0  0  0
    0.5990    0.4832    0.9797 C   0  0  1  0  0  0  0  0  0  0  0  0
    1.1025    0.6673    1.9545 H   0  0  0  0  0  0  0  0  0  0  0  0
   -0.8064   -0.1119    1.2442 C   0  0  1  0  0  0  0  0  0  0  0  0
   -1.3468    0.5695    1.9380 H   0  0  0  0  0  0  0  0  0  0  0  0
   -1.5501   -0.2304    0.0538 O   0  0  0  0  0  0  0  0  0  0  0  0
   -1.9243    0.6668   -0.1480 H   0  0  0  0  0  0  0  0  0  0  0  0
   -0.7187   -1.3674    1.9021 O   0  0  0  0  0  0  0  0  0  0  0  0
   -0.0281   -2.3257    1.1138 C   0  0  2  0  0  0  0  0  0  0  0  0
   -0.5278   -2.4499    0.1250 H   0  0  0  0  0  0  0  0  0  0  0  0
   -0.1134   -3.6872    1.8156 C   0  0  0  0  0  0  0  0  0  0  0  0
    0.3891   -3.6409    2.8077 H   0  0  0  0  0  0  0  0  0  0  0  0
   -1.1850   -3.9399    1.9803 H   0  0  0  0  0  0  0  0  0  0  0  0
    0.4790   -4.6797    1.0233 O   0  0  0  0  0  0  0  0  0  0  0  0
    0.3955   -5.5262    1.5344 H   0  0  0  0  0  0  0  0  0  0  0  0
    1.4384   -1.8928    0.8905 C   0  0  2  0  0  0  0  0  0  0  0  0
    1.9371   -2.6381    0.2264 H   0  0  0  0  0  0  0  0  0  0  0  0
    2.1073   -1.8195    2.1262 O   0  0  0  0  0  0  0  0  0  0  0  0
    3.0753   -1.9356    1.9394 H   0  0  0  0  0  0  0  0  0  0  0  0
    1.4575   -0.5230    0.1915 C   0  0  2  0  0  0  0  0  0  0  0  0
    1.0301   -0.6522   -0.8323 H   0  0  0  0  0  0  0  0  0  0  0  0
    2.7820   -0.0639    0.0940 O   0  0  0  0  0  0  0  0  0  0  0  0
    2.8029    0.6082   -0.6364 H   0  0  0  0  0  0  0  0  0  0  0  0
    0.2709    3.2000    2.1836 C   0  0  0  0  0  0  0  0  0  0  0  0
   -0.5413    2.6124    2.6552 H   0  0  0  0  0  0  0  0  0  0  0  0
    0.0697    4.2742    2.3764 H   0  0  0  0  0  0  0  0  0  0  0  0
    1.2427    2.9415    2.6534 H   0  0  0  0  0  0  0  0  0  0  0  0
  1  2  1  0  0  0  0
  2  3  1  0  0  0  0
  3  4  2  0  0  0  0
  3 27  1  0  0  0  0
  4  5  1  0  0  0  0
  5  6  1  1  0  0  0
  5  7  1  0  0  0  0
  7  8  1  1  0  0  0
  7  9  1  0  0  0  0
  7 11  1  0  0  0  0
  9 10  1  0  0  0  0
 11 12  1  0  0  0  0
 12 13  1  6  0  0  0
 12 14  1  0  0  0  0
 12 19  1  0  0  0  0
 14 15  1  0  0  0  0
 14 16  1  0  0  0  0
 14 17  1  0  0  0  0
 17 18  1  0  0  0  0
 19 20  1  6  0  0  0
 19 21  1  0  0  0  0
 19 23  1  0  0  0  0
 21 22  1  0  0  0  0
 23 24  1  6  0  0  0
 23 25  1  0  0  0  0
 23  5  1  0  0  0  0
 25 26  1  0  0  0  0
 27 28  1  0  0  0  0
 27 29  1  0  0  0  0
 27 30  1  0  0  0  0
M  END
>  <UniqueID>
179

>  <SMILES>
C/C(O)=N\[C@H]1[C@@H](O)O[C@H](CO)[C@H](O)[C@@H]1O

>  <Energy>
28.288852408511435

>  <Genealogy>
CC(O)=N[C@H]1[C@@H](O)O[C@H](CO)[C@H](O)[C@@H]1O (tautomer)
C/C(O)=N\[C@H]1[C@@H](O)O[C@H](CO)[C@H](O)[C@@H]1O (cis-trans isomerization)
C/C(O)=N\[C@H]1[C@@H](O)O[C@H](CO)[C@H](O)[C@@H]1O (3D coordinates assigned)
C/C(O)=N\[C@H]1[C@@H](O)O[C@H](CO)[C@H](O)[C@@H]1O (nonaromatic ring conformer: 28.288852408511435 kcal/mol)

$$$$
84265
 OpenBabel03032110343D

 30 30  0  0  0  0  0  0  0  0999 V2000
    1.9535   -3.2387    0.9544 H   0  0  0  0  0  0  0  0  0  0  0  0
    1.6956   -2.3217    0.6100 O   0  0  0  0  0  0  0  0  0  0  0  0
    0.5938   -2.1487   -0.2276 C   0  0  0  0  0  0  0  0  0  0  0  0
    0.2851   -0.9708   -0.6810 N   0  0  0  0  0  0  0  0  0  0  0  0
    1.0086    0.2607   -0.3497 C   0  0  1  0  0  0  0  0  0  0  0  0
    2.1050    0.0702   -0.3977 H   0  0  0  0  0  0  0  0  0  0  0  0
    0.6640    1.3569   -1.3748 C   0  0  1  0  0  0  0  0  0  0  0  0
    1.2512    2.2699   -1.1469 H   0  0  0  0  0  0  0  0  0  0  0  0
    1.0608    0.9519   -2.6599 O   0  0  0  0  0  0  0  0  0  0  0  0
    0.3988    0.2857   -2.9818 H   0  0  0  0  0  0  0  0  0  0  0  0
   -0.7249    1.6486   -1.3769 O   0  0  0  0  0  0  0  0  0  0  0  0
   -1.1849    2.1589   -0.1314 C   0  0  2  0  0  0  0  0  0  0  0  0
   -2.2948    2.1081   -0.1955 H   0  0  0  0  0  0  0  0  0  0  0  0
   -0.9012    3.6704    0.0309 C   0  0  0  0  0  0  0  0  0  0  0  0
   -1.1183    4.1837   -0.9327 H   0  0  0  0  0  0  0  0  0  0  0  0
   -1.5880    4.0891    0.8009 H   0  0  0  0  0  0  0  0  0  0  0  0
    0.4210    3.9235    0.4106 O   0  0  0  0  0  0  0  0  0  0  0  0
    0.5055    4.9099    0.4792 H   0  0  0  0  0  0  0  0  0  0  0  0
   -0.8245    1.2553    1.0838 C   0  0  2  0  0  0  0  0  0  0  0  0
   -1.4838    0.3569    1.0144 H   0  0  0  0  0  0  0  0  0  0  0  0
   -1.1038    1.9219    2.2889 O   0  0  0  0  0  0  0  0  0  0  0  0
   -1.1262    1.2308    3.0016 H   0  0  0  0  0  0  0  0  0  0  0  0
    0.6344    0.7436    1.0610 C   0  0  2  0  0  0  0  0  0  0  0  0
    0.7171   -0.1194    1.7631 H   0  0  0  0  0  0  0  0  0  0  0  0
    1.5337    1.7441    1.4665 O   0  0  0  0  0  0  0  0  0  0  0  0
    1.5098    1.7744    2.4586 H   0  0  0  0  0  0  0  0  0  0  0  0
   -0.2189   -3.3325   -0.6420 C   0  0  0  0  0  0  0  0  0  0  0  0
    0.2959   -3.8610   -1.4708 H   0  0  0  0  0  0  0  0  0  0  0  0
   -0.3372   -4.0269    0.2159 H   0  0  0  0  0  0  0  0  0  0  0  0
   -1.2278   -3.0153   -0.9826 H   0  0  0  0  0  0  0  0  0  0  0  0
  1  2  1  0  0  0  0
  2  3  1  0  0  0  0
  3  4  2  0  0  0  0
  3 27  1  0  0  0  0
  4  5  1  0  0  0  0
  5  6  1  6  0  0  0
  5  7  1  0  0  0  0
  7  8  1  1  0  0  0
  7  9  1  0  0  0  0
  7 11  1  0  0  0  0
  9 10  1  0  0  0  0
 11 12  1  0  0  0  0
 12 13  1  6  0  0  0
 12 14  1  0  0  0  0
 12 19  1  0  0  0  0
 14 15  1  0  0  0  0
 14 16  1  0  0  0  0
 14 17  1  0  0  0  0
 17 18  1  0  0  0  0
 19 20  1  6  0  0  0
 19 21  1  0  0  0  0
 19 23  1  0  0  0  0
 21 22  1  0  0  0  0
 23 24  1  1  0  0  0
 23 25  1  0  0  0  0
 23  5  1  0  0  0  0
 25 26  1  0  0  0  0
 27 28  1  0  0  0  0
 27 29  1  0  0  0  0
 27 30  1  0  0  0  0
M  END
>  <UniqueID>
180

>  <SMILES>
C/C(O)=N/[C@H]1[C@@H](O)O[C@H](CO)[C@H](O)[C@@H]1O

>  <Energy>
32.890997880155496

>  <Genealogy>
CC(O)=N[C@H]1[C@@H](O)O[C@H](CO)[C@H](O)[C@@H]1O (tautomer)
C/C(O)=N/[C@H]1[C@@H](O)O[C@H](CO)[C@H](O)[C@@H]1O (cis-trans isomerization)
C/C(O)=N/[C@H]1[C@@H](O)O[C@H](CO)[C@H](O)[C@@H]1O (3D coordinates assigned)
C/C(O)=N/[C@H]1[C@@H](O)O[C@H](CO)[C@H](O)[C@@H]1O (nonaromatic ring conformer: 32.890997880155496 kcal/mol)

$$$$
82398
 OpenBabel03032110343D

 42 43  0  0  0  0  0  0  0  0999 V2000
   -0.4550    4.3386    1.8098 C   0  0  0  0  0  0  0  0  0  0  0  0
   -0.0747    2.8977    1.7065 C   0  0  0  0  0  0  0  0  0  0  0  0
   -0.5446    2.0682    2.5317 O   0  0  0  0  0  0  0  0  0  0  0  0
    0.8319    2.4703    0.6807 N   0  0  0  0  0  0  0  0  0  0  0  0
    1.2060    1.0628    0.4985 C   0  0  1  0  0  0  0  0  0  0  0  0
    0.0506    0.2803   -0.1575 C   0  0  1  0  0  0  0  0  0  0  0  0
   -0.3645    0.9158   -1.3719 O   0  0  0  0  0  0  0  0  0  0  0  0
   -1.4697    0.5293   -2.1454 C   0  0  0  0  0  0  0  0  0  0  0  0
   -1.7166    1.2184   -3.3368 C   0  0  0  0  0  0  0  0  0  0  0  0
   -2.8004    0.8717   -4.1484 C   0  0  0  0  0  0  0  0  0  0  0  0
   -3.6616   -0.1754   -3.7789 C   0  0  0  0  0  0  0  0  0  0  0  0
   -4.7779   -0.5303   -4.6155 N   0  3  0  0  0  0  0  0  0  0  0  0
   -5.5529   -1.4525   -4.2864 O   0  0  0  0  0  0  0  0  0  0  0  0
   -5.0126    0.1444   -5.7918 O   0  5  0  0  0  0  0  0  0  0  0  0
   -3.4141   -0.8673   -2.5796 C   0  0  0  0  0  0  0  0  0  0  0  0
   -2.3297   -0.5189   -1.7691 C   0  0  0  0  0  0  0  0  0  0  0  0
    0.4135   -1.0747   -0.3781 O   0  0  0  0  0  0  0  0  0  0  0  0
    1.5025   -1.1876   -1.2824 C   0  0  2  0  0  0  0  0  0  0  0  0
    1.7394   -2.6751   -1.5652 C   0  0  0  0  0  0  0  0  0  0  0  0
    0.5811   -3.2390   -2.1158 O   0  0  0  0  0  0  0  0  0  0  0  0
    2.7712   -0.5327   -0.6920 C   0  0  1  0  0  0  0  0  0  0  0  0
    3.8216   -0.6113   -1.6219 O   0  0  0  0  0  0  0  0  0  0  0  0
    2.4787    0.9447   -0.3658 C   0  0  2  0  0  0  0  0  0  0  0  0
    3.5769    1.5454    0.2761 O   0  0  0  0  0  0  0  0  0  0  0  0
   -0.9030    4.6738    0.8504 H   0  0  0  0  0  0  0  0  0  0  0  0
   -1.1948    4.4911    2.6254 H   0  0  0  0  0  0  0  0  0  0  0  0
    0.4495    4.9462    2.0242 H   0  0  0  0  0  0  0  0  0  0  0  0
    1.2472    3.1993    0.0563 H   0  0  0  0  0  0  0  0  0  0  0  0
    1.4167    0.6103    1.4941 H   0  0  0  0  0  0  0  0  0  0  0  0
   -0.8040    0.2906    0.5523 H   0  0  0  0  0  0  0  0  0  0  0  0
   -1.0632    2.0278   -3.6363 H   0  0  0  0  0  0  0  0  0  0  0  0
   -2.9639    1.4240   -5.0646 H   0  0  0  0  0  0  0  0  0  0  0  0
   -4.0592   -1.6784   -2.2674 H   0  0  0  0  0  0  0  0  0  0  0  0
   -2.1720   -1.0713   -0.8535 H   0  0  0  0  0  0  0  0  0  0  0  0
    1.2575   -0.7073   -2.2582 H   0  0  0  0  0  0  0  0  0  0  0  0
    2.5821   -2.7949   -2.2826 H   0  0  0  0  0  0  0  0  0  0  0  0
    1.9965   -3.2004   -0.6175 H   0  0  0  0  0  0  0  0  0  0  0  0
    0.7870   -4.1978   -2.2682 H   0  0  0  0  0  0  0  0  0  0  0  0
    3.0449   -1.0744    0.2452 H   0  0  0  0  0  0  0  0  0  0  0  0
    4.6663   -0.5070   -1.1110 H   0  0  0  0  0  0  0  0  0  0  0  0
    2.3103    1.4842   -1.3251 H   0  0  0  0  0  0  0  0  0  0  0  0
    3.7328    1.0585    1.1276 H   0  0  0  0  0  0  0  0  0  0  0  0
  1  2  1  0  0  0  0
  1 25  1  0  0  0  0
  1 26  1  0  0  0  0
  1 27  1  0  0  0  0
  2  3  2  0  0  0  0
  2  4  1  0  0  0  0
  4  5  1  0  0  0  0
  4 28  1  0  0  0  0
  5  6  1  0  0  0  0
  5 29  1  1  0  0  0
  6  7  1  0  0  0  0
  6 17  1  0  0  0  0
  6 30  1  1  0  0  0
  7  8  1  0  0  0  0
  8  9  2  0  0  0  0
  9 10  1  0  0  0  0
  9 31  1  0  0  0  0
 10 11  2  0  0  0  0
 10 32  1  0  0  0  0
 11 12  1  0  0  0  0
 11 15  1  0  0  0  0
 12 13  2  0  0  0  0
 12 14  1  0  0  0  0
 15 16  2  0  0  0  0
 15 33  1  0  0  0  0
 16  8  1  0  0  0  0
 16 34  1  0  0  0  0
 17 18  1  0  0  0  0
 18 19  1  0  0  0  0
 18 21  1  0  0  0  0
 18 35  1  6  0  0  0
 19 20  1  0  0  0  0
 19 36  1  0  0  0  0
 19 37  1  0  0  0  0
 20 38  1  0  0  0  0
 21 22  1  0  0  0  0
 21 23  1  0  0  0  0
 21 39  1  1  0  0  0
 22 40  1  0  0  0  0
 23 24  1  0  0  0  0
 23  5  1  0  0  0  0
 23 41  1  6  0  0  0
 24 42  1  0  0  0  0
M  CHG  2  12   1  14  -1
M  END
>  <UniqueID>
181

>  <SMILES>
CC(=O)N[C@H]1[C@@H](Oc2ccc([N+](=O)[O-])cc2)O[C@H](CO)[C@@H](O)[C@@H]1O

>  <Energy>
39.1217938183655

>  <Genealogy>
CC(=O)N[C@H]1[C@@H](Oc2ccc([N+](=O)[O-])cc2)O[C@H](CO)[C@@H](O)[C@@H]1O (3D coordinates assigned)
CC(=O)N[C@H]1[C@@H](Oc2ccc([N+](=O)[O-])cc2)O[C@H](CO)[C@@H](O)[C@@H]1O (nonaromatic ring conformer: 39.1217938183655 kcal/mol)

$$$$
82398
 OpenBabel03032110343D

 42 43  0  0  0  0  0  0  0  0999 V2000
    2.5542    0.2215    3.0693 H   0  0  0  0  0  0  0  0  0  0  0  0
    2.1714   -0.6451    3.4219 O   0  0  0  0  0  0  0  0  0  0  0  0
    0.8119   -0.9658    3.3751 C   0  0  0  0  0  0  0  0  0  0  0  0
   -0.0804   -0.1540    2.8840 N   0  0  0  0  0  0  0  0  0  0  0  0
    0.1668    1.1660    2.2998 C   0  0  1  0  0  0  0  0  0  0  0  0
    0.9066    1.7192    2.9204 H   0  0  0  0  0  0  0  0  0  0  0  0
    0.6986    1.0494    0.8487 C   0  0  1  0  0  0  0  0  0  0  0  0
    1.6895    0.5587    0.8695 H   0  0  0  0  0  0  0  0  0  0  0  0
   -0.1991    0.3032    0.0122 O   0  0  0  0  0  0  0  0  0  0  0  0
   -0.3101   -1.0950   -0.0572 C   0  0  0  0  0  0  0  0  0  0  0  0
    0.7348   -1.9666    0.3019 C   0  0  0  0  0  0  0  0  0  0  0  0
    1.6914   -1.5958    0.6359 H   0  0  0  0  0  0  0  0  0  0  0  0
    0.5581   -3.3511    0.2233 C   0  0  0  0  0  0  0  0  0  0  0  0
    1.3758   -3.9981    0.5136 H   0  0  0  0  0  0  0  0  0  0  0  0
   -0.6575   -3.8925   -0.2270 C   0  0  0  0  0  0  0  0  0  0  0  0
   -0.8365   -5.3187   -0.3023 N   0  3  0  0  0  0  0  0  0  0  0  0
   -1.9136   -5.8051   -0.7052 O   0  0  0  0  0  0  0  0  0  0  0  0
    0.1766   -6.1714    0.0724 O   0  5  0  0  0  0  0  0  0  0  0  0
   -1.6908   -3.0177   -0.6060 C   0  0  0  0  0  0  0  0  0  0  0  0
   -2.6375   -3.4025   -0.9628 H   0  0  0  0  0  0  0  0  0  0  0  0
   -1.5127   -1.6340   -0.5255 C   0  0  0  0  0  0  0  0  0  0  0  0
   -2.3207   -0.9746   -0.8166 H   0  0  0  0  0  0  0  0  0  0  0  0
    0.9174    2.3399    0.2999 O   0  0  0  0  0  0  0  0  0  0  0  0
   -0.2906    3.0800    0.1897 C   0  0  2  0  0  0  0  0  0  0  0  0
   -1.0202    2.5439   -0.4602 H   0  0  0  0  0  0  0  0  0  0  0  0
    0.0219    4.4144   -0.4968 C   0  0  0  0  0  0  0  0  0  0  0  0
    0.7492    4.9911    0.1185 H   0  0  0  0  0  0  0  0  0  0  0  0
   -0.9112    5.0118   -0.6040 H   0  0  0  0  0  0  0  0  0  0  0  0
    0.5652    4.1758   -1.7658 O   0  0  0  0  0  0  0  0  0  0  0  0
    0.7550    5.0682   -2.1565 H   0  0  0  0  0  0  0  0  0  0  0  0
   -0.9155    3.3194    1.5871 C   0  0  1  0  0  0  0  0  0  0  0  0
   -0.2050    3.9272    2.1913 H   0  0  0  0  0  0  0  0  0  0  0  0
   -2.1240    4.0337    1.4926 O   0  0  0  0  0  0  0  0  0  0  0  0
   -2.7458    3.5014    0.9303 H   0  0  0  0  0  0  0  0  0  0  0  0
   -1.1383    1.9791    2.3085 C   0  0  2  0  0  0  0  0  0  0  0  0
   -1.9331    1.4083    1.7698 H   0  0  0  0  0  0  0  0  0  0  0  0
   -1.5418    2.2312    3.6305 O   0  0  0  0  0  0  0  0  0  0  0  0
   -2.0124    1.4175    3.9498 H   0  0  0  0  0  0  0  0  0  0  0  0
    0.3657   -2.2780    3.9265 C   0  0  0  0  0  0  0  0  0  0  0  0
   -0.3900   -2.7373    3.2541 H   0  0  0  0  0  0  0  0  0  0  0  0
    1.2303   -2.9691    4.0130 H   0  0  0  0  0  0  0  0  0  0  0  0
   -0.0806   -2.1258    4.9311 H   0  0  0  0  0  0  0  0  0  0  0  0
  1  2  1  0  0  0  0
  2  3  1  0  0  0  0
  3  4  2  0  0  0  0
  3 39  1  0  0  0  0
  4  5  1  0  0  0  0
  5  6  1  1  0  0  0
  5  7  1  0  0  0  0
  7  8  1  1  0  0  0
  7  9  1  0  0  0  0
  7 23  1  0  0  0  0
  9 10  1  0  0  0  0
 10 11  2  0  0  0  0
 11 12  1  0  0  0  0
 11 13  1  0  0  0  0
 13 14  1  0  0  0  0
 13 15  2  0  0  0  0
 15 16  1  0  0  0  0
 15 19  1  0  0  0  0
 16 17  2  0  0  0  0
 16 18  1  0  0  0  0
 19 20  1  0  0  0  0
 19 21  2  0  0  0  0
 21 22  1  0  0  0  0
 21 10  1  0  0  0  0
 23 24  1  0  0  0  0
 24 25  1  6  0  0  0
 24 26  1  0  0  0  0
 24 31  1  0  0  0  0
 26 27  1  0  0  0  0
 26 28  1  0  0  0  0
 26 29  1  0  0  0  0
 29 30  1  0  0  0  0
 31 32  1  1  0  0  0
 31 33  1  0  0  0  0
 31 35  1  0  0  0  0
 33 34  1  0  0  0  0
 35 36  1  6  0  0  0
 35 37  1  0  0  0  0
 35  5  1  0  0  0  0
 37 38  1  0  0  0  0
 39 40  1  0  0  0  0
 39 41  1  0  0  0  0
 39 42  1  0  0  0  0
M  CHG  2  16   1  18  -1
M  END
>  <UniqueID>
182

>  <SMILES>
C/C(O)=N\[C@H]1[C@@H](Oc2ccc([N+](=O)[O-])cc2)O[C@H](CO)[C@@H](O)[C@@H]1O

>  <Energy>
43.69704602924156

>  <Genealogy>
CC(O)=N[C@H]1[C@@H](Oc2ccc([N+](=O)[O-])cc2)O[C@H](CO)[C@@H](O)[C@@H]1O (tautomer)
C/C(O)=N\[C@H]1[C@@H](Oc2ccc([N+](=O)[O-])cc2)O[C@H](CO)[C@@H](O)[C@@H]1O (cis-trans isomerization)
C/C(O)=N\[C@H]1[C@@H](Oc2ccc([N+](=O)[O-])cc2)O[C@H](CO)[C@@H](O)[C@@H]1O (3D coordinates assigned)
C/C(O)=N\[C@H]1[C@@H](Oc2ccc([N+](=O)[O-])cc2)O[C@H](CO)[C@@H](O)[C@@H]1O (nonaromatic ring conformer: 43.69704602924156 kcal/mol)

$$$$
82313
 OpenBabel03032110343D

 30 30  0  0  0  0  0  0  0  0999 V2000
   -1.8516    2.9258   -0.9924 C   0  0  0  0  0  0  0  0  0  0  0  0
   -1.7330    1.5330   -0.4656 C   0  0  0  0  0  0  0  0  0  0  0  0
   -2.7727    0.8383   -0.3038 O   0  0  0  0  0  0  0  0  0  0  0  0
   -0.4455    1.0101   -0.1100 N   0  0  0  0  0  0  0  0  0  0  0  0
   -0.2634   -0.3577    0.3906 C   0  0  1  0  0  0  0  0  0  0  0  0
   -0.3808   -1.3752   -0.7630 C   0  0  1  0  0  0  0  0  0  0  0  0
    0.4993   -1.0504   -1.8108 O   0  0  0  0  0  0  0  0  0  0  0  0
   -0.1663   -2.7017   -0.3017 O   0  0  0  0  0  0  0  0  0  0  0  0
    1.1418   -2.8727    0.2251 C   0  0  2  0  0  0  0  0  0  0  0  0
    1.3258   -4.3540    0.5880 C   0  0  0  0  0  0  0  0  0  0  0  0
    1.1191   -5.1635   -0.5383 O   0  0  0  0  0  0  0  0  0  0  0  0
    1.3543   -1.9781    1.4670 C   0  0  1  0  0  0  0  0  0  0  0  0
    2.6696   -2.1272    1.9382 O   0  0  0  0  0  0  0  0  0  0  0  0
    1.1051   -0.5062    1.0864 C   0  0  2  0  0  0  0  0  0  0  0  0
    1.1847    0.3267    2.2172 O   0  0  0  0  0  0  0  0  0  0  0  0
   -1.6805    3.6484   -0.1678 H   0  0  0  0  0  0  0  0  0  0  0  0
   -2.8622    3.0958   -1.4210 H   0  0  0  0  0  0  0  0  0  0  0  0
   -1.0945    3.0916   -1.7872 H   0  0  0  0  0  0  0  0  0  0  0  0
    0.3821    1.6445   -0.1887 H   0  0  0  0  0  0  0  0  0  0  0  0
   -1.0592   -0.5803    1.1372 H   0  0  0  0  0  0  0  0  0  0  0  0
   -1.4224   -1.3232   -1.1512 H   0  0  0  0  0  0  0  0  0  0  0  0
    0.2919   -1.6752   -2.5537 H   0  0  0  0  0  0  0  0  0  0  0  0
    1.9105   -2.6260   -0.5437 H   0  0  0  0  0  0  0  0  0  0  0  0
    0.5876   -4.6413    1.3672 H   0  0  0  0  0  0  0  0  0  0  0  0
    2.3443   -4.5340    1.0018 H   0  0  0  0  0  0  0  0  0  0  0  0
    1.9292   -5.0739   -1.1053 H   0  0  0  0  0  0  0  0  0  0  0  0
    0.6259   -2.2879    2.2545 H   0  0  0  0  0  0  0  0  0  0  0  0
    2.6714   -1.8291    2.8852 H   0  0  0  0  0  0  0  0  0  0  0  0
    1.9030   -0.1912    0.3768 H   0  0  0  0  0  0  0  0  0  0  0  0
    0.4796    0.0395    2.8548 H   0  0  0  0  0  0  0  0  0  0  0  0
  1  2  1  0  0  0  0
  1 16  1  0  0  0  0
  1 17  1  0  0  0  0
  1 18  1  0  0  0  0
  2  3  2  0  0  0  0
  2  4  1  0  0  0  0
  4  5  1  0  0  0  0
  4 19  1  0  0  0  0
  5  6  1  0  0  0  0
  5 20  1  1  0  0  0
  6  7  1  0  0  0  0
  6  8  1  0  0  0  0
  6 21  1  6  0  0  0
  7 22  1  0  0  0  0
  8  9  1  0  0  0  0
  9 10  1  0  0  0  0
  9 12  1  0  0  0  0
  9 23  1  6  0  0  0
 10 11  1  0  0  0  0
 10 24  1  0  0  0  0
 10 25  1  0  0  0  0
 11 26  1  0  0  0  0
 12 13  1  0  0  0  0
 12 14  1  0  0  0  0
 12 27  1  1  0  0  0
 13 28  1  0  0  0  0
 14 15  1  0  0  0  0
 14  5  1  0  0  0  0
 14 29  1  6  0  0  0
 15 30  1  0  0  0  0
M  END
>  <UniqueID>
183

>  <SMILES>
CC(=O)N[C@H]1[C@@H](O)O[C@H](CO)[C@@H](O)[C@@H]1O

>  <Energy>
25.04008642669394

>  <Genealogy>
CC(=O)N[C@H]1[C@@H](O)O[C@H](CO)[C@@H](O)[C@@H]1O (3D coordinates assigned)
CC(=O)N[C@H]1[C@@H](O)O[C@H](CO)[C@@H](O)[C@@H]1O (nonaromatic ring conformer: 25.04008642669394 kcal/mol)

$$$$
82313
 OpenBabel03032110343D

 30 30  0  0  0  0  0  0  0  0999 V2000
    1.2019   -0.1566   -3.0367 C   0  0  0  0  0  0  0  0  0  0  0  0
    1.2774   -0.4088   -1.5655 C   0  0  0  0  0  0  0  0  0  0  0  0
    2.5055   -0.3253   -0.9101 O   0  0  0  0  0  0  0  0  0  0  0  0
    0.2003   -0.7406   -0.9185 N   0  0  0  0  0  0  0  0  0  0  0  0
    0.1362   -1.0147    0.5207 C   0  0  1  0  0  0  0  0  0  0  0  0
   -0.0717    0.2917    1.3168 C   0  0  1  0  0  0  0  0  0  0  0  0
    0.9737    1.1887    1.0507 O   0  0  0  0  0  0  0  0  0  0  0  0
   -1.2925    0.9157    0.9559 O   0  0  0  0  0  0  0  0  0  0  0  0
   -2.4300    0.1208    1.2719 C   0  0  2  0  0  0  0  0  0  0  0  0
   -2.7308    0.0748    2.7865 C   0  0  0  0  0  0  0  0  0  0  0  0
   -2.8015    1.3734    3.3105 O   0  0  0  0  0  0  0  0  0  0  0  0
   -2.3887   -1.2781    0.6041 C   0  0  1  0  0  0  0  0  0  0  0  0
   -2.6471   -1.1282   -0.7698 O   0  0  0  0  0  0  0  0  0  0  0  0
   -1.0286   -1.9798    0.8050 C   0  0  2  0  0  0  0  0  0  0  0  0
   -0.9431   -2.4743    2.1176 O   0  0  0  0  0  0  0  0  0  0  0  0
    0.1616    0.0896   -3.3395 H   0  0  0  0  0  0  0  0  0  0  0  0
    1.8601    0.6954   -3.3067 H   0  0  0  0  0  0  0  0  0  0  0  0
    1.5355   -1.0628   -3.5834 H   0  0  0  0  0  0  0  0  0  0  0  0
    3.3521   -0.0844   -1.4114 H   0  0  0  0  0  0  0  0  0  0  0  0
    1.0796   -1.5064    0.8501 H   0  0  0  0  0  0  0  0  0  0  0  0
   -0.0591    0.0690    2.4083 H   0  0  0  0  0  0  0  0  0  0  0  0
    1.7732    0.8548    1.5364 H   0  0  0  0  0  0  0  0  0  0  0  0
   -3.3045    0.6461    0.8271 H   0  0  0  0  0  0  0  0  0  0  0  0
   -3.7175   -0.4116    2.9409 H   0  0  0  0  0  0  0  0  0  0  0  0
   -1.9898   -0.5312    3.3497 H   0  0  0  0  0  0  0  0  0  0  0  0
   -1.8678    1.6624    3.4838 H   0  0  0  0  0  0  0  0  0  0  0  0
   -3.1922   -1.9109    1.0509 H   0  0  0  0  0  0  0  0  0  0  0  0
   -2.9221   -2.0187   -1.1127 H   0  0  0  0  0  0  0  0  0  0  0  0
   -0.9682   -2.8404    0.0968 H   0  0  0  0  0  0  0  0  0  0  0  0
   -0.2110   -3.1451    2.1274 H   0  0  0  0  0  0  0  0  0  0  0  0
  1  2  1  0  0  0  0
  1 16  1  0  0  0  0
  1 17  1  0  0  0  0
  1 18  1  0  0  0  0
  2  3  1  0  0  0  0
  2  4  2  3  0  0  0
  3 19  1  0  0  0  0
  4  5  1  0  0  0  0
  5  6  1  0  0  0  0
  5 20  1  1  0  0  0
  6  7  1  0  0  0  0
  6  8  1  0  0  0  0
  6 21  1  1  0  0  0
  7 22  1  0  0  0  0
  8  9  1  0  0  0  0
  9 10  1  0  0  0  0
  9 12  1  0  0  0  0
  9 23  1  6  0  0  0
 10 11  1  0  0  0  0
 10 24  1  0  0  0  0
 10 25  1  0  0  0  0
 11 26  1  0  0  0  0
 12 13  1  0  0  0  0
 12 14  1  0  0  0  0
 12 27  1  1  0  0  0
 13 28  1  0  0  0  0
 14 15  1  0  0  0  0
 14  5  1  0  0  0  0
 14 29  1  6  0  0  0
 15 30  1  0  0  0  0
M  END
>  <UniqueID>
184

>  <SMILES>
CC(O)=N[C@H]1[C@@H](O)O[C@H](CO)[C@@H](O)[C@@H]1O

>  <Energy>
29.97901945795683

>  <Genealogy>
CC(O)=N[C@H]1[C@@H](O)O[C@H](CO)[C@@H](O)[C@@H]1O (tautomer)
CC(O)=N[C@H]1[C@@H](O)O[C@H](CO)[C@@H](O)[C@@H]1O (3D coordinates assigned)
CC(O)=N[C@H]1[C@@H](O)O[C@H](CO)[C@@H](O)[C@@H]1O (nonaromatic ring conformer: 29.97901945795683 kcal/mol)

$$$$
35717
 OpenBabel03032110343D

 30 30  0  0  0  0  0  0  0  0999 V2000
    4.5341   -0.2177    0.5613 C   0  0  0  0  0  0  0  0  0  0  0  0
    3.1979   -0.8026    0.2390 C   0  0  0  0  0  0  0  0  0  0  0  0
    3.1323   -1.9019   -0.3750 O   0  0  0  0  0  0  0  0  0  0  0  0
    2.0032   -0.0951    0.5993 N   0  0  0  0  0  0  0  0  0  0  0  0
    0.6613   -0.5660    0.2414 C   0  0  1  0  0  0  0  0  0  0  0  0
   -0.3166   -0.3321    1.4164 C   0  0  2  0  0  0  0  0  0  0  0  0
    0.0864   -1.1011    2.5193 O   0  0  0  0  0  0  0  0  0  0  0  0
   -1.6273   -0.7342    1.0566 O   0  0  0  0  0  0  0  0  0  0  0  0
   -2.1271    0.0769    0.0059 C   0  0  2  0  0  0  0  0  0  0  0  0
   -3.6111   -0.2402   -0.2081 C   0  0  0  0  0  0  0  0  0  0  0  0
   -4.3351    0.1022    0.9412 O   0  0  0  0  0  0  0  0  0  0  0  0
   -1.3100   -0.1557   -1.2857 C   0  0  2  0  0  0  0  0  0  0  0  0
   -1.4172   -1.4960   -1.7012 O   0  0  0  0  0  0  0  0  0  0  0  0
    0.1671    0.1790   -1.0120 C   0  0  2  0  0  0  0  0  0  0  0  0
    0.9595   -0.1780   -2.1152 O   0  0  0  0  0  0  0  0  0  0  0  0
    4.5505    0.1191    1.6189 H   0  0  0  0  0  0  0  0  0  0  0  0
    5.3362   -0.9719    0.4140 H   0  0  0  0  0  0  0  0  0  0  0  0
    4.7264    0.6510   -0.1021 H   0  0  0  0  0  0  0  0  0  0  0  0
    2.1011    0.8559    1.0230 H   0  0  0  0  0  0  0  0  0  0  0  0
    0.6816   -1.6590    0.0300 H   0  0  0  0  0  0  0  0  0  0  0  0
   -0.3177    0.7480    1.7078 H   0  0  0  0  0  0  0  0  0  0  0  0
    0.8184   -0.6047    2.9706 H   0  0  0  0  0  0  0  0  0  0  0  0
   -2.0680    1.1571    0.2812 H   0  0  0  0  0  0  0  0  0  0  0  0
   -3.7412   -1.3256   -0.4176 H   0  0  0  0  0  0  0  0  0  0  0  0
   -3.9957    0.3435   -1.0747 H   0  0  0  0  0  0  0  0  0  0  0  0
   -5.2824   -0.1211    0.7467 H   0  0  0  0  0  0  0  0  0  0  0  0
   -1.6774    0.5326   -2.0846 H   0  0  0  0  0  0  0  0  0  0  0  0
   -2.1713   -1.5431   -2.3450 H   0  0  0  0  0  0  0  0  0  0  0  0
    0.2581    1.2767   -0.8285 H   0  0  0  0  0  0  0  0  0  0  0  0
    0.7842    0.4958   -2.8231 H   0  0  0  0  0  0  0  0  0  0  0  0
  1  2  1  0  0  0  0
  1 16  1  0  0  0  0
  1 17  1  0  0  0  0
  1 18  1  0  0  0  0
  2  3  2  0  0  0  0
  2  4  1  0  0  0  0
  4  5  1  0  0  0  0
  4 19  1  0  0  0  0
  5  6  1  0  0  0  0
  5 20  1  6  0  0  0
  6  7  1  0  0  0  0
  6  8  1  0  0  0  0
  6 21  1  1  0  0  0
  7 22  1  0  0  0  0
  8  9  1  0  0  0  0
  9 10  1  0  0  0  0
  9 12  1  0  0  0  0
  9 23  1  1  0  0  0
 10 11  1  0  0  0  0
 10 24  1  0  0  0  0
 10 25  1  0  0  0  0
 11 26  1  0  0  0  0
 12 13  1  0  0  0  0
 12 14  1  0  0  0  0
 12 27  1  6  0  0  0
 13 28  1  0  0  0  0
 14 15  1  0  0  0  0
 14  5  1  0  0  0  0
 14 29  1  1  0  0  0
 15 30  1  0  0  0  0
M  END
>  <UniqueID>
185

>  <SMILES>
CC(=O)N[C@H]1[C@H](O)O[C@H](CO)[C@H](O)[C@@H]1O

>  <Energy>
23.527024053773218

>  <Genealogy>
CC(=O)N[C@H]1[C@H](O)O[C@H](CO)[C@H](O)[C@@H]1O (chirality)
CC(=O)N[C@H]1[C@H](O)O[C@H](CO)[C@H](O)[C@@H]1O (3D coordinates assigned)
CC(=O)N[C@H]1[C@H](O)O[C@H](CO)[C@H](O)[C@@H]1O (nonaromatic ring conformer: 23.527024053773218 kcal/mol)

$$$$
35717
 OpenBabel03032110343D

 30 30  0  0  0  0  0  0  0  0999 V2000
    4.1768    0.7829    0.0351 C   0  0  0  0  0  0  0  0  0  0  0  0
    3.1434   -0.2938   -0.0278 C   0  0  0  0  0  0  0  0  0  0  0  0
    3.4014   -1.3700   -0.6320 O   0  0  0  0  0  0  0  0  0  0  0  0
    1.8804   -0.1119    0.6277 N   0  0  0  0  0  0  0  0  0  0  0  0
    0.8150   -1.1220    0.5771 C   0  0  1  0  0  0  0  0  0  0  0  0
   -0.2089   -0.8761    1.7091 C   0  0  2  0  0  0  0  0  0  0  0  0
   -1.0874   -1.9628    1.8571 O   0  0  0  0  0  0  0  0  0  0  0  0
   -0.9298    0.3367    1.5380 O   0  0  0  0  0  0  0  0  0  0  0  0
   -1.6338    0.4269    0.3034 C   0  0  2  0  0  0  0  0  0  0  0  0
   -2.9491   -0.3829    0.3241 C   0  0  0  0  0  0  0  0  0  0  0  0
   -3.8500    0.1354   -0.6164 O   0  0  0  0  0  0  0  0  0  0  0  0
   -0.7233    0.1796   -0.9324 C   0  0  2  0  0  0  0  0  0  0  0  0
   -1.4737    0.1266   -2.1188 O   0  0  0  0  0  0  0  0  0  0  0  0
    0.1201   -1.0956   -0.7962 C   0  0  2  0  0  0  0  0  0  0  0  0
   -0.6837   -2.2354   -0.9648 O   0  0  0  0  0  0  0  0  0  0  0  0
    4.5937    0.8354    1.0622 H   0  0  0  0  0  0  0  0  0  0  0  0
    5.0002    0.5759   -0.6812 H   0  0  0  0  0  0  0  0  0  0  0  0
    3.7160    1.7593   -0.2231 H   0  0  0  0  0  0  0  0  0  0  0  0
    1.7335    0.7663    1.1761 H   0  0  0  0  0  0  0  0  0  0  0  0
    1.2737   -2.1232    0.7388 H   0  0  0  0  0  0  0  0  0  0  0  0
    0.3662   -0.7708    2.6580 H   0  0  0  0  0  0  0  0  0  0  0  0
   -0.5599   -2.7131    2.2376 H   0  0  0  0  0  0  0  0  0  0  0  0
   -1.9493    1.4913    0.2272 H   0  0  0  0  0  0  0  0  0  0  0  0
   -3.4021   -0.3056    1.3379 H   0  0  0  0  0  0  0  0  0  0  0  0
   -2.7692   -1.4550    0.1051 H   0  0  0  0  0  0  0  0  0  0  0  0
   -4.6725   -0.4157   -0.5451 H   0  0  0  0  0  0  0  0  0  0  0  0
   -0.0084    1.0346   -0.9990 H   0  0  0  0  0  0  0  0  0  0  0  0
   -1.7633    1.0556   -2.3165 H   0  0  0  0  0  0  0  0  0  0  0  0
    0.8900   -1.0806   -1.6028 H   0  0  0  0  0  0  0  0  0  0  0  0
   -0.0704   -2.9984   -1.1304 H   0  0  0  0  0  0  0  0  0  0  0  0
  1  2  1  0  0  0  0
  1 16  1  0  0  0  0
  1 17  1  0  0  0  0
  1 18  1  0  0  0  0
  2  3  2  0  0  0  0
  2  4  1  0  0  0  0
  4  5  1  0  0  0  0
  4 19  1  0  0  0  0
  5  6  1  0  0  0  0
  5 20  1  1  0  0  0
  6  7  1  0  0  0  0
  6  8  1  0  0  0  0
  6 21  1  1  0  0  0
  7 22  1  0  0  0  0
  8  9  1  0  0  0  0
  9 10  1  0  0  0  0
  9 12  1  0  0  0  0
  9 23  1  6  0  0  0
 10 11  1  0  0  0  0
 10 24  1  0  0  0  0
 10 25  1  0  0  0  0
 11 26  1  0  0  0  0
 12 13  1  0  0  0  0
 12 14  1  0  0  0  0
 12 27  1  6  0  0  0
 13 28  1  0  0  0  0
 14 15  1  0  0  0  0
 14  5  1  0  0  0  0
 14 29  1  6  0  0  0
 15 30  1  0  0  0  0
M  END
>  <UniqueID>
186

>  <SMILES>
CC(=O)N[C@H]1[C@H](O)O[C@H](CO)[C@H](O)[C@@H]1O

>  <Energy>
31.947141271669913

>  <Genealogy>
CC(=O)N[C@H]1[C@H](O)O[C@H](CO)[C@H](O)[C@@H]1O (chirality)
CC(=O)N[C@H]1[C@H](O)O[C@H](CO)[C@H](O)[C@@H]1O (3D coordinates assigned)
CC(=O)N[C@H]1[C@H](O)O[C@H](CO)[C@H](O)[C@@H]1O (nonaromatic ring conformer: 31.947141271669913 kcal/mol)

$$$$
29327
 OpenBabel03032110343D

 33 33  0  0  0  0  0  0  0  0999 V2000
    2.0681   -3.6129    3.3224 C   0  0  0  0  0  0  0  0  0  0  0  0
    1.3742   -2.3669    2.9817 N   0  0  0  0  0  0  0  0  0  0  0  0
    1.2914   -1.3228    3.9208 N   0  0  0  0  0  0  0  0  0  0  0  0
    1.7706   -1.4348    5.0683 O   0  0  0  0  0  0  0  0  0  0  0  0
    0.9034   -2.1420    1.6397 C   0  0  0  0  0  0  0  0  0  0  0  0
    1.1272   -3.0023    0.7439 O   0  0  0  0  0  0  0  0  0  0  0  0
    0.1852   -0.9411    1.3090 N   0  0  0  0  0  0  0  0  0  0  0  0
   -0.3351   -0.6866   -0.0404 C   0  0  1  0  0  0  0  0  0  0  0  0
   -1.6077   -1.5205   -0.2933 C   0  0  1  0  0  0  0  0  0  0  0  0
   -2.5655   -1.2925    0.7110 O   0  0  0  0  0  0  0  0  0  0  0  0
   -2.1417   -1.2619   -1.5834 O   0  0  0  0  0  0  0  0  0  0  0  0
   -2.5352    0.0950   -1.7291 C   0  0  2  0  0  0  0  0  0  0  0  0
   -3.2040    0.2597   -3.1022 C   0  0  0  0  0  0  0  0  0  0  0  0
   -4.3305   -0.5703   -3.1994 O   0  0  0  0  0  0  0  0  0  0  0  0
   -1.3134    1.0353   -1.5961 C   0  0  1  0  0  0  0  0  0  0  0  0
   -1.7235    2.3776   -1.6822 O   0  0  0  0  0  0  0  0  0  0  0  0
   -0.6349    0.8098   -0.2353 C   0  0  2  0  0  0  0  0  0  0  0  0
    0.5677    1.5333   -0.1733 O   0  0  0  0  0  0  0  0  0  0  0  0
    1.6433   -4.4676    2.7543 H   0  0  0  0  0  0  0  0  0  0  0  0
    3.1479   -3.5138    3.0853 H   0  0  0  0  0  0  0  0  0  0  0  0
    1.9498   -3.8442    4.4016 H   0  0  0  0  0  0  0  0  0  0  0  0
    0.0390   -0.2193    2.0501 H   0  0  0  0  0  0  0  0  0  0  0  0
    0.4361   -0.9809   -0.7885 H   0  0  0  0  0  0  0  0  0  0  0  0
   -1.3170   -2.5943   -0.2636 H   0  0  0  0  0  0  0  0  0  0  0  0
   -3.3024   -1.9365    0.5456 H   0  0  0  0  0  0  0  0  0  0  0  0
   -3.2971    0.3672   -0.9621 H   0  0  0  0  0  0  0  0  0  0  0  0
   -3.5418    1.3093   -3.2331 H   0  0  0  0  0  0  0  0  0  0  0  0
   -2.4790    0.0319   -3.9178 H   0  0  0  0  0  0  0  0  0  0  0  0
   -4.0022   -1.4718   -3.4544 H   0  0  0  0  0  0  0  0  0  0  0  0
   -0.5755    0.7942   -2.4003 H   0  0  0  0  0  0  0  0  0  0  0  0
   -1.5820    2.6686   -2.6207 H   0  0  0  0  0  0  0  0  0  0  0  0
   -1.3244    1.1474    0.5762 H   0  0  0  0  0  0  0  0  0  0  0  0
    0.3287    2.4733    0.0386 H   0  0  0  0  0  0  0  0  0  0  0  0
  1  2  1  0  0  0  0
  1 19  1  0  0  0  0
  1 20  1  0  0  0  0
  1 21  1  0  0  0  0
  2  3  1  0  0  0  0
  2  5  1  0  0  0  0
  3  4  2  0  0  0  0
  5  6  2  0  0  0  0
  5  7  1  0  0  0  0
  7  8  1  0  0  0  0
  7 22  1  0  0  0  0
  8  9  1  0  0  0  0
  8 23  1  6  0  0  0
  9 10  1  0  0  0  0
  9 11  1  0  0  0  0
  9 24  1  1  0  0  0
 10 25  1  0  0  0  0
 11 12  1  0  0  0  0
 12 13  1  0  0  0  0
 12 15  1  0  0  0  0
 12 26  1  1  0  0  0
 13 14  1  0  0  0  0
 13 27  1  0  0  0  0
 13 28  1  0  0  0  0
 14 29  1  0  0  0  0
 15 16  1  0  0  0  0
 15 17  1  0  0  0  0
 15 30  1  6  0  0  0
 16 31  1  0  0  0  0
 17 18  1  0  0  0  0
 17  8  1  0  0  0  0
 17 32  1  1  0  0  0
 18 33  1  0  0  0  0
M  END
>  <UniqueID>
187

>  <SMILES>
CN(N=O)C(=O)N[C@H]1[C@@H](O)O[C@H](CO)[C@@H](O)[C@@H]1O

>  <Energy>
29.605579550964123

>  <Genealogy>
CN(N=O)C(=O)N[C@H]1[C@@H](O)O[C@H](CO)[C@@H](O)[C@@H]1O (3D coordinates assigned)
CN(N=O)C(=O)N[C@H]1[C@@H](O)O[C@H](CO)[C@@H](O)[C@@H]1O (nonaromatic ring conformer: 29.605579550964123 kcal/mol)

$$$$
29327
 OpenBabel03032110343D

 33 33  0  0  0  0  0  0  0  0999 V2000
    2.6336   -2.5205    3.5373 C   0  0  0  0  0  0  0  0  0  0  0  0
    1.3981   -1.8843    3.0693 N   0  0  0  0  0  0  0  0  0  0  0  0
    0.6592   -1.0534    3.9308 N   0  0  0  0  0  0  0  0  0  0  0  0
    1.0088   -0.8604    5.1138 O   0  0  0  0  0  0  0  0  0  0  0  0
    1.0113   -1.9807    1.6857 C   0  0  0  0  0  0  0  0  0  0  0  0
    1.7546   -2.5902    0.8681 O   0  0  0  0  0  0  0  0  0  0  0  0
   -0.2159   -1.3870    1.2282 N   0  0  0  0  0  0  0  0  0  0  0  0
   -0.6078   -1.3646   -0.1866 C   0  0  1  0  0  0  0  0  0  0  0  0
   -2.1292   -1.6103   -0.3350 C   0  0  1  0  0  0  0  0  0  0  0  0
   -2.5618   -2.5435    0.6186 O   0  0  0  0  0  0  0  0  0  0  0  0
   -2.8377   -0.3962   -0.1620 O   0  0  0  0  0  0  0  0  0  0  0  0
   -2.6321    0.5043   -1.2486 C   0  0  2  0  0  0  0  0  0  0  0  0
   -3.7421    0.3221   -2.2989 C   0  0  0  0  0  0  0  0  0  0  0  0
   -3.6644    1.3145   -3.2869 O   0  0  0  0  0  0  0  0  0  0  0  0
   -1.2084    0.4316   -1.8801 C   0  0  1  0  0  0  0  0  0  0  0  0
   -0.8575    1.6934   -2.3905 O   0  0  0  0  0  0  0  0  0  0  0  0
   -0.1943   -0.0072   -0.8120 C   0  0  2  0  0  0  0  0  0  0  0  0
    1.0817   -0.1115   -1.3892 O   0  0  0  0  0  0  0  0  0  0  0  0
    3.4912   -1.8366    3.3674 H   0  0  0  0  0  0  0  0  0  0  0  0
    2.8122   -3.4758    2.9995 H   0  0  0  0  0  0  0  0  0  0  0  0
    2.5650   -2.7602    4.6189 H   0  0  0  0  0  0  0  0  0  0  0  0
   -0.7950   -0.8352    1.9004 H   0  0  0  0  0  0  0  0  0  0  0  0
   -0.0995   -2.1912   -0.7324 H   0  0  0  0  0  0  0  0  0  0  0  0
   -2.3283   -2.0393   -1.3468 H   0  0  0  0  0  0  0  0  0  0  0  0
   -3.5174   -2.7250    0.4202 H   0  0  0  0  0  0  0  0  0  0  0  0
   -2.7528    1.5250   -0.8222 H   0  0  0  0  0  0  0  0  0  0  0  0
   -4.7387    0.3555   -1.8024 H   0  0  0  0  0  0  0  0  0  0  0  0
   -3.6478   -0.6709   -2.7860 H   0  0  0  0  0  0  0  0  0  0  0  0
   -4.0154    2.1492   -2.8798 H   0  0  0  0  0  0  0  0  0  0  0  0
   -1.2054   -0.3231   -2.7036 H   0  0  0  0  0  0  0  0  0  0  0  0
   -0.1497    1.5447   -3.0707 H   0  0  0  0  0  0  0  0  0  0  0  0
   -0.1826    0.7844   -0.0238 H   0  0  0  0  0  0  0  0  0  0  0  0
    1.7351   -0.0977   -0.6420 H   0  0  0  0  0  0  0  0  0  0  0  0
  1  2  1  0  0  0  0
  1 19  1  0  0  0  0
  1 20  1  0  0  0  0
  1 21  1  0  0  0  0
  2  3  1  0  0  0  0
  2  5  1  0  0  0  0
  3  4  2  0  0  0  0
  5  6  2  0  0  0  0
  5  7  1  0  0  0  0
  7  8  1  0  0  0  0
  7 22  1  0  0  0  0
  8  9  1  0  0  0  0
  8 23  1  6  0  0  0
  9 10  1  0  0  0  0
  9 11  1  0  0  0  0
  9 24  1  6  0  0  0
 10 25  1  0  0  0  0
 11 12  1  0  0  0  0
 12 13  1  0  0  0  0
 12 15  1  0  0  0  0
 12 26  1  1  0  0  0
 13 14  1  0  0  0  0
 13 27  1  0  0  0  0
 13 28  1  0  0  0  0
 14 29  1  0  0  0  0
 15 16  1  0  0  0  0
 15 17  1  0  0  0  0
 15 30  1  6  0  0  0
 16 31  1  0  0  0  0
 17 18  1  0  0  0  0
 17  8  1  0  0  0  0
 17 32  1  1  0  0  0
 18 33  1  0  0  0  0
M  END
>  <UniqueID>
188

>  <SMILES>
CN(N=O)C(=O)N[C@H]1[C@@H](O)O[C@H](CO)[C@@H](O)[C@@H]1O

>  <Energy>
37.41519978823543

>  <Genealogy>
CN(N=O)C(=O)N[C@H]1[C@@H](O)O[C@H](CO)[C@@H](O)[C@@H]1O (3D coordinates assigned)
CN(N=O)C(=O)N[C@H]1[C@@H](O)O[C@H](CO)[C@@H](O)[C@@H]1O (nonaromatic ring conformer: 37.41519978823543 kcal/mol)

$$$$
24154
 OpenBabel03032110343D

 26 26  0  0  0  0  0  0  0  0999 V2000
    2.1356    1.2776   -2.0793 N   0  3  0  0  0  0  0  0  0  0  0  0
    1.5888   -0.0597   -1.8016 C   0  0  1  0  0  0  0  0  0  0  0  0
    2.2476   -0.6672   -0.5442 C   0  0  2  0  0  0  0  0  0  0  0  0
    1.9943   -2.0459   -0.4682 O   0  0  0  0  0  0  0  0  0  0  0  0
    1.8669    0.0006    0.6530 O   0  0  0  0  0  0  0  0  0  0  0  0
    0.4625    0.0210    0.8876 C   0  0  2  0  0  0  0  0  0  0  0  0
   -0.0583   -1.3295    1.4281 C   0  0  0  0  0  0  0  0  0  0  0  0
   -1.2463   -1.1360    2.1465 O   0  0  0  0  0  0  0  0  0  0  0  0
   -0.3420    0.6103   -0.3017 C   0  0  2  0  0  0  0  0  0  0  0  0
   -1.7224    0.4694   -0.0794 O   0  0  0  0  0  0  0  0  0  0  0  0
    0.0531   -0.0180   -1.6497 C   0  0  2  0  0  0  0  0  0  0  0  0
   -0.4837   -1.3124   -1.7544 O   0  0  0  0  0  0  0  0  0  0  0  0
    1.6577    1.6971   -2.9096 H   0  0  0  0  0  0  0  0  0  0  0  0
    2.0211    1.9125   -1.2570 H   0  0  0  0  0  0  0  0  0  0  0  0
    3.1547    1.2005   -2.3023 H   0  0  0  0  0  0  0  0  0  0  0  0
    1.8351   -0.7121   -2.6706 H   0  0  0  0  0  0  0  0  0  0  0  0
    3.3478   -0.5356   -0.6584 H   0  0  0  0  0  0  0  0  0  0  0  0
    2.5608   -2.3959    0.2680 H   0  0  0  0  0  0  0  0  0  0  0  0
    0.3188    0.7412    1.7238 H   0  0  0  0  0  0  0  0  0  0  0  0
    0.7078   -1.7633    2.1094 H   0  0  0  0  0  0  0  0  0  0  0  0
   -0.2421   -2.0505    0.6057 H   0  0  0  0  0  0  0  0  0  0  0  0
   -1.5206   -2.0317    2.4745 H   0  0  0  0  0  0  0  0  0  0  0  0
   -0.1025    1.6986   -0.3464 H   0  0  0  0  0  0  0  0  0  0  0  0
   -2.1807    1.0834   -0.7112 H   0  0  0  0  0  0  0  0  0  0  0  0
   -0.3805    0.6137   -2.4606 H   0  0  0  0  0  0  0  0  0  0  0  0
   -0.4583   -1.5591   -2.7158 H   0  0  0  0  0  0  0  0  0  0  0  0
  1  2  1  0  0  0  0
  1 13  1  0  0  0  0
  1 14  1  0  0  0  0
  1 15  1  0  0  0  0
  2  3  1  0  0  0  0
  2 16  1  6  0  0  0
  3  4  1  0  0  0  0
  3  5  1  0  0  0  0
  3 17  1  6  0  0  0
  4 18  1  0  0  0  0
  5  6  1  0  0  0  0
  6  7  1  0  0  0  0
  6  9  1  0  0  0  0
  6 19  1  1  0  0  0
  7  8  1  0  0  0  0
  7 20  1  0  0  0  0
  7 21  1  0  0  0  0
  8 22  1  0  0  0  0
  9 10  1  0  0  0  0
  9 11  1  0  0  0  0
  9 23  1  6  0  0  0
 10 24  1  0  0  0  0
 11 12  1  0  0  0  0
 11  2  1  0  0  0  0
 11 25  1  6  0  0  0
 12 26  1  0  0  0  0
M  CHG  1   1   1
M  END
>  <UniqueID>
189

>  <SMILES>
[NH3+][C@H]1[C@H](O)O[C@H](CO)[C@H](O)[C@@H]1O

>  <Energy>
31.386920894482145

>  <Genealogy>
[NH3+][C@H]1C(O)O[C@H](CO)[C@H](O)[C@@H]1O (protonated)
[NH3+][C@H]1[C@H](O)O[C@H](CO)[C@H](O)[C@@H]1O (chirality)
[NH3+][C@H]1[C@H](O)O[C@H](CO)[C@H](O)[C@@H]1O (3D coordinates assigned)
[NH3+][C@H]1[C@H](O)O[C@H](CO)[C@H](O)[C@@H]1O (nonaromatic ring conformer: 31.386920894482145 kcal/mol)

$$$$
24154
 OpenBabel03032110343D

 26 26  0  0  0  0  0  0  0  0999 V2000
    2.1240    1.0820   -2.4107 N   0  3  0  0  0  0  0  0  0  0  0  0
    1.5539   -0.1230   -1.7934 C   0  0  1  0  0  0  0  0  0  0  0  0
    2.2716   -0.4375   -0.4558 C   0  0  2  0  0  0  0  0  0  0  0  0
    3.4356   -1.1730   -0.7191 O   0  0  0  0  0  0  0  0  0  0  0  0
    1.4179   -1.2009    0.3755 O   0  0  0  0  0  0  0  0  0  0  0  0
    0.3766   -0.3951    0.9160 C   0  0  2  0  0  0  0  0  0  0  0  0
   -0.6318   -1.3410    1.5965 C   0  0  0  0  0  0  0  0  0  0  0  0
   -1.5004   -0.6352    2.4422 O   0  0  0  0  0  0  0  0  0  0  0  0
   -0.2802    0.5391   -0.1623 C   0  0  2  0  0  0  0  0  0  0  0  0
   -1.6700    0.6668    0.0070 O   0  0  0  0  0  0  0  0  0  0  0  0
    0.0198    0.0323   -1.5825 C   0  0  2  0  0  0  0  0  0  0  0  0
   -0.6207   -1.2041   -1.7766 O   0  0  0  0  0  0  0  0  0  0  0  0
    1.7032    1.2276   -3.3572 H   0  0  0  0  0  0  0  0  0  0  0  0
    1.9375    1.9241   -1.8189 H   0  0  0  0  0  0  0  0  0  0  0  0
    3.1569    0.9663   -2.5283 H   0  0  0  0  0  0  0  0  0  0  0  0
    1.7213   -0.9763   -2.4911 H   0  0  0  0  0  0  0  0  0  0  0  0
    2.5658    0.5136    0.0542 H   0  0  0  0  0  0  0  0  0  0  0  0
    3.9064   -1.2733    0.1491 H   0  0  0  0  0  0  0  0  0  0  0  0
    0.8122    0.2460    1.7164 H   0  0  0  0  0  0  0  0  0  0  0  0
   -0.0858   -2.1143    2.1846 H   0  0  0  0  0  0  0  0  0  0  0  0
   -1.2285   -1.8764    0.8280 H   0  0  0  0  0  0  0  0  0  0  0  0
   -0.9819   -0.4060    3.2572 H   0  0  0  0  0  0  0  0  0  0  0  0
    0.1884    1.5491   -0.0756 H   0  0  0  0  0  0  0  0  0  0  0  0
   -1.8120    1.3491    0.7143 H   0  0  0  0  0  0  0  0  0  0  0  0
   -0.3947    0.7728   -2.3073 H   0  0  0  0  0  0  0  0  0  0  0  0
   -0.6724   -1.3504   -2.7573 H   0  0  0  0  0  0  0  0  0  0  0  0
  1  2  1  0  0  0  0
  1 13  1  0  0  0  0
  1 14  1  0  0  0  0
  1 15  1  0  0  0  0
  2  3  1  0  0  0  0
  2 16  1  6  0  0  0
  3  4  1  0  0  0  0
  3  5  1  0  0  0  0
  3 17  1  1  0  0  0
  4 18  1  0  0  0  0
  5  6  1  0  0  0  0
  6  7  1  0  0  0  0
  6  9  1  0  0  0  0
  6 19  1  1  0  0  0
  7  8  1  0  0  0  0
  7 20  1  0  0  0  0
  7 21  1  0  0  0  0
  8 22  1  0  0  0  0
  9 10  1  0  0  0  0
  9 11  1  0  0  0  0
  9 23  1  1  0  0  0
 10 24  1  0  0  0  0
 11 12  1  0  0  0  0
 11  2  1  0  0  0  0
 11 25  1  6  0  0  0
 12 26  1  0  0  0  0
M  CHG  1   1   1
M  END
>  <UniqueID>
190

>  <SMILES>
[NH3+][C@H]1[C@H](O)O[C@H](CO)[C@H](O)[C@@H]1O

>  <Energy>
32.91655844603721

>  <Genealogy>
[NH3+][C@H]1C(O)O[C@H](CO)[C@H](O)[C@@H]1O (protonated)
[NH3+][C@H]1[C@H](O)O[C@H](CO)[C@H](O)[C@@H]1O (chirality)
[NH3+][C@H]1[C@H](O)O[C@H](CO)[C@H](O)[C@@H]1O (3D coordinates assigned)
[NH3+][C@H]1[C@H](O)O[C@H](CO)[C@H](O)[C@@H]1O (nonaromatic ring conformer: 32.91655844603721 kcal/mol)

$$$$
24139
 OpenBabel03032110343D

 30 30  0  0  0  0  0  0  0  0999 V2000
   -4.2948    2.6735    2.9870 C   0  0  0  0  0  0  0  0  0  0  0  0
   -2.9307    2.6121    2.3812 C   0  0  0  0  0  0  0  0  0  0  0  0
   -2.2588    3.6713    2.2540 O   0  0  0  0  0  0  0  0  0  0  0  0
   -2.4104    1.3576    1.9192 N   0  0  0  0  0  0  0  0  0  0  0  0
   -1.1201    1.2371    1.2325 C   0  0  1  0  0  0  0  0  0  0  0  0
   -0.3949   -0.0421    1.6912 C   0  0  2  0  0  0  0  0  0  0  0  0
   -0.1544    0.0428    3.0696 O   0  0  0  0  0  0  0  0  0  0  0  0
    0.8456   -0.1700    1.0171 O   0  0  0  0  0  0  0  0  0  0  0  0
    0.6403   -0.3689   -0.3721 C   0  0  2  0  0  0  0  0  0  0  0  0
    1.9926   -0.6929   -1.0206 C   0  0  0  0  0  0  0  0  0  0  0  0
    2.8895    0.3689   -0.8401 O   0  0  0  0  0  0  0  0  0  0  0  0
   -0.0147    0.8833   -1.0073 C   0  0  1  0  0  0  0  0  0  0  0  0
   -0.2772    0.6551   -2.3694 O   0  0  0  0  0  0  0  0  0  0  0  0
   -1.3395    1.1944   -0.2887 C   0  0  2  0  0  0  0  0  0  0  0  0
   -1.8391    2.4343   -0.7202 O   0  0  0  0  0  0  0  0  0  0  0  0
   -4.4597    3.6558    3.4787 H   0  0  0  0  0  0  0  0  0  0  0  0
   -4.4041    1.8712    3.7463 H   0  0  0  0  0  0  0  0  0  0  0  0
   -5.0577    2.5322    2.1934 H   0  0  0  0  0  0  0  0  0  0  0  0
   -3.0346    0.5196    1.9591 H   0  0  0  0  0  0  0  0  0  0  0  0
   -0.4688    2.1057    1.4811 H   0  0  0  0  0  0  0  0  0  0  0  0
   -1.0429   -0.9322    1.4986 H   0  0  0  0  0  0  0  0  0  0  0  0
    0.2154   -0.8365    3.3444 H   0  0  0  0  0  0  0  0  0  0  0  0
   -0.0163   -1.2547   -0.5437 H   0  0  0  0  0  0  0  0  0  0  0  0
    1.8572   -0.8974   -2.1060 H   0  0  0  0  0  0  0  0  0  0  0  0
    2.4065   -1.6119   -0.5482 H   0  0  0  0  0  0  0  0  0  0  0  0
    3.7333    0.0949   -1.2847 H   0  0  0  0  0  0  0  0  0  0  0  0
    0.6628    1.7623   -0.8782 H   0  0  0  0  0  0  0  0  0  0  0  0
    0.4975    1.0082   -2.8800 H   0  0  0  0  0  0  0  0  0  0  0  0
   -2.0776    0.3874   -0.5165 H   0  0  0  0  0  0  0  0  0  0  0  0
   -2.2765    2.2795   -1.5979 H   0  0  0  0  0  0  0  0  0  0  0  0
  1  2  1  0  0  0  0
  1 16  1  0  0  0  0
  1 17  1  0  0  0  0
  1 18  1  0  0  0  0
  2  3  2  0  0  0  0
  2  4  1  0  0  0  0
  4  5  1  0  0  0  0
  4 19  1  0  0  0  0
  5  6  1  0  0  0  0
  5 20  1  1  0  0  0
  6  7  1  0  0  0  0
  6  8  1  0  0  0  0
  6 21  1  6  0  0  0
  7 22  1  0  0  0  0
  8  9  1  0  0  0  0
  9 10  1  0  0  0  0
  9 12  1  0  0  0  0
  9 23  1  6  0  0  0
 10 11  1  0  0  0  0
 10 24  1  0  0  0  0
 10 25  1  0  0  0  0
 11 26  1  0  0  0  0
 12 13  1  0  0  0  0
 12 14  1  0  0  0  0
 12 27  1  1  0  0  0
 13 28  1  0  0  0  0
 14 15  1  0  0  0  0
 14  5  1  0  0  0  0
 14 29  1  6  0  0  0
 15 30  1  0  0  0  0
M  END
>  <UniqueID>
191

>  <SMILES>
CC(=O)N[C@H]1[C@H](O)O[C@H](CO)[C@@H](O)[C@@H]1O

>  <Energy>
23.001806454535302

>  <Genealogy>
CC(=O)N[C@H]1[C@H](O)O[C@H](CO)[C@@H](O)[C@@H]1O (3D coordinates assigned)
CC(=O)N[C@H]1[C@H](O)O[C@H](CO)[C@@H](O)[C@@H]1O (nonaromatic ring conformer: 23.001806454535302 kcal/mol)

$$$$
24139
 OpenBabel03032110343D

 30 30  0  0  0  0  0  0  0  0999 V2000
    3.7792    3.2458    0.3477 H   0  0  0  0  0  0  0  0  0  0  0  0
    3.0844    3.5619    1.0142 O   0  0  0  0  0  0  0  0  0  0  0  0
    1.8913    2.8676    1.1935 C   0  0  0  0  0  0  0  0  0  0  0  0
    1.6770    1.7870    0.4964 N   0  0  0  0  0  0  0  0  0  0  0  0
    0.4839    0.9333    0.5356 C   0  0  1  0  0  0  0  0  0  0  0  0
   -0.0817    1.0746    1.4830 H   0  0  0  0  0  0  0  0  0  0  0  0
   -0.4398    1.2580   -0.6601 C   0  0  2  0  0  0  0  0  0  0  0  0
    0.1237    1.1407   -1.6200 H   0  0  0  0  0  0  0  0  0  0  0  0
   -0.9007    2.5795   -0.5604 O   0  0  0  0  0  0  0  0  0  0  0  0
   -0.1993    3.1652   -0.9491 H   0  0  0  0  0  0  0  0  0  0  0  0
   -1.5673    0.4009   -0.6541 O   0  0  0  0  0  0  0  0  0  0  0  0
   -1.1767   -0.9443   -0.8744 C   0  0  2  0  0  0  0  0  0  0  0  0
   -0.5962   -1.0295   -1.8237 H   0  0  0  0  0  0  0  0  0  0  0  0
   -2.4405   -1.7985   -1.0577 C   0  0  0  0  0  0  0  0  0  0  0  0
   -2.1717   -2.8624   -1.2546 H   0  0  0  0  0  0  0  0  0  0  0  0
   -2.9889   -1.4338   -1.9523 H   0  0  0  0  0  0  0  0  0  0  0  0
   -3.2899   -1.6866    0.0541 O   0  0  0  0  0  0  0  0  0  0  0  0
   -3.0591   -2.4299    0.6701 H   0  0  0  0  0  0  0  0  0  0  0  0
   -0.3086   -1.4521    0.2995 C   0  0  1  0  0  0  0  0  0  0  0  0
   -0.9122   -1.4138    1.2376 H   0  0  0  0  0  0  0  0  0  0  0  0
    0.1079   -2.7695    0.0437 O   0  0  0  0  0  0  0  0  0  0  0  0
    0.3502   -3.1703    0.9190 H   0  0  0  0  0  0  0  0  0  0  0  0
    0.9204   -0.5416    0.4622 C   0  0  2  0  0  0  0  0  0  0  0  0
    1.5836   -0.6869   -0.4251 H   0  0  0  0  0  0  0  0  0  0  0  0
    1.6064   -0.8971    1.6357 O   0  0  0  0  0  0  0  0  0  0  0  0
    2.5384   -0.5697    1.5368 H   0  0  0  0  0  0  0  0  0  0  0  0
    0.9115    3.3852    2.2053 C   0  0  0  0  0  0  0  0  0  0  0  0
    0.8196    2.6642    3.0443 H   0  0  0  0  0  0  0  0  0  0  0  0
    1.2663    4.3543    2.6145 H   0  0  0  0  0  0  0  0  0  0  0  0
   -0.0813    3.5491    1.7397 H   0  0  0  0  0  0  0  0  0  0  0  0
  1  2  1  0  0  0  0
  2  3  1  0  0  0  0
  3  4  2  0  0  0  0
  3 27  1  0  0  0  0
  4  5  1  0  0  0  0
  5  6  1  1  0  0  0
  5  7  1  0  0  0  0
  7  8  1  6  0  0  0
  7  9  1  0  0  0  0
  7 11  1  0  0  0  0
  9 10  1  0  0  0  0
 11 12  1  0  0  0  0
 12 13  1  6  0  0  0
 12 14  1  0  0  0  0
 12 19  1  0  0  0  0
 14 15  1  0  0  0  0
 14 16  1  0  0  0  0
 14 17  1  0  0  0  0
 17 18  1  0  0  0  0
 19 20  1  1  0  0  0
 19 21  1  0  0  0  0
 19 23  1  0  0  0  0
 21 22  1  0  0  0  0
 23 24  1  6  0  0  0
 23 25  1  0  0  0  0
 23  5  1  0  0  0  0
 25 26  1  0  0  0  0
 27 28  1  0  0  0  0
 27 29  1  0  0  0  0
 27 30  1  0  0  0  0
M  END
>  <UniqueID>
192

>  <SMILES>
C/C(O)=N\[C@H]1[C@H](O)O[C@H](CO)[C@@H](O)[C@@H]1O

>  <Energy>
27.008842124426874

>  <Genealogy>
CC(O)=N[C@H]1[C@H](O)O[C@H](CO)[C@@H](O)[C@@H]1O (tautomer)
C/C(O)=N\[C@H]1[C@H](O)O[C@H](CO)[C@@H](O)[C@@H]1O (cis-trans isomerization)
C/C(O)=N\[C@H]1[C@H](O)O[C@H](CO)[C@@H](O)[C@@H]1O (3D coordinates assigned)
C/C(O)=N\[C@H]1[C@H](O)O[C@H](CO)[C@@H](O)[C@@H]1O (nonaromatic ring conformer: 27.008842124426874 kcal/mol)

$$$$
18897
 OpenBabel03032110343D

 26 26  0  0  0  0  0  0  0  0999 V2000
    1.2995   -1.4233    1.8327 N   0  3  0  0  0  0  0  0  0  0  0  0
    0.2069   -1.0078    0.9424 C   0  0  2  0  0  0  0  0  0  0  0  0
    0.6359   -1.0547   -0.5403 C   0  0  2  0  0  0  0  0  0  0  0  0
    1.8119   -0.3078   -0.7306 O   0  0  0  0  0  0  0  0  0  0  0  0
   -0.4941   -0.4951   -1.4272 C   0  0  1  0  0  0  0  0  0  0  0  0
   -1.5890   -1.3770   -1.4214 O   0  0  0  0  0  0  0  0  0  0  0  0
   -0.9327    0.8905   -0.8960 C   0  0  1  0  0  0  0  0  0  0  0  0
   -2.0677    1.4857   -1.7446 C   0  0  0  0  0  0  0  0  0  0  0  0
   -1.6671    1.6506   -3.0787 O   0  0  0  0  0  0  0  0  0  0  0  0
   -1.3786    0.7965    0.4489 O   0  0  0  0  0  0  0  0  0  0  0  0
   -0.3306    0.3936    1.3207 C   0  0  2  0  0  0  0  0  0  0  0  0
    0.7019    1.3478    1.3475 O   0  0  0  0  0  0  0  0  0  0  0  0
    1.6162   -2.3865    1.5760 H   0  0  0  0  0  0  0  0  0  0  0  0
    0.9593   -1.4433    2.8215 H   0  0  0  0  0  0  0  0  0  0  0  0
    2.1117   -0.7682    1.7662 H   0  0  0  0  0  0  0  0  0  0  0  0
   -0.6331   -1.7288    1.0722 H   0  0  0  0  0  0  0  0  0  0  0  0
    0.8270   -2.1186   -0.8167 H   0  0  0  0  0  0  0  0  0  0  0  0
    2.1945   -0.5910   -1.6019 H   0  0  0  0  0  0  0  0  0  0  0  0
   -0.1132   -0.3794   -2.4692 H   0  0  0  0  0  0  0  0  0  0  0  0
   -1.3493   -2.1361   -2.0147 H   0  0  0  0  0  0  0  0  0  0  0  0
   -0.0770    1.6006   -0.9717 H   0  0  0  0  0  0  0  0  0  0  0  0
   -2.9554    0.8188   -1.7164 H   0  0  0  0  0  0  0  0  0  0  0  0
   -2.3790    2.4664   -1.3174 H   0  0  0  0  0  0  0  0  0  0  0  0
   -1.0632    2.4384   -3.0991 H   0  0  0  0  0  0  0  0  0  0  0  0
   -0.7605    0.3144    2.3449 H   0  0  0  0  0  0  0  0  0  0  0  0
    0.3015    2.1832    1.7038 H   0  0  0  0  0  0  0  0  0  0  0  0
  1  2  1  0  0  0  0
  1 13  1  0  0  0  0
  1 14  1  0  0  0  0
  1 15  1  0  0  0  0
  2  3  1  0  0  0  0
  2 16  1  1  0  0  0
  3  4  1  0  0  0  0
  3  5  1  0  0  0  0
  3 17  1  6  0  0  0
  4 18  1  0  0  0  0
  5  6  1  0  0  0  0
  5  7  1  0  0  0  0
  5 19  1  6  0  0  0
  6 20  1  0  0  0  0
  7  8  1  0  0  0  0
  7 10  1  0  0  0  0
  7 21  1  6  0  0  0
  8  9  1  0  0  0  0
  8 22  1  0  0  0  0
  8 23  1  0  0  0  0
  9 24  1  0  0  0  0
 10 11  1  0  0  0  0
 11 12  1  0  0  0  0
 11  2  1  0  0  0  0
 11 25  1  1  0  0  0
 12 26  1  0  0  0  0
M  CHG  1   1   1
M  END
>  <UniqueID>
193

>  <SMILES>
[NH3+][C@H]1[C@@H](O)O[C@H](CO)[C@H](O)[C@H]1O

>  <Energy>
25.059616863585

>  <Genealogy>
[NH3+]C1C(O)[C@@H](O)C(CO)O[C@@H]1O (protonated)
[NH3+][C@H]1[C@@H](O)O[C@H](CO)[C@H](O)[C@H]1O (chirality)
[NH3+][C@H]1[C@@H](O)O[C@H](CO)[C@H](O)[C@H]1O (3D coordinates assigned)
[NH3+][C@H]1[C@@H](O)O[C@H](CO)[C@H](O)[C@H]1O (nonaromatic ring conformer: 25.059616863585 kcal/mol)

$$$$
18897
 OpenBabel03032110343D

 26 26  0  0  0  0  0  0  0  0999 V2000
    1.7177   -0.3415    1.1594 N   0  3  0  0  0  0  0  0  0  0  0  0
    0.2676   -0.5678    1.0231 C   0  0  2  0  0  0  0  0  0  0  0  0
   -0.0796   -1.3873   -0.2389 C   0  0  2  0  0  0  0  0  0  0  0  0
    0.6980   -2.5569   -0.2872 O   0  0  0  0  0  0  0  0  0  0  0  0
    0.1368   -0.5455   -1.5087 C   0  0  1  0  0  0  0  0  0  0  0  0
   -0.3474   -1.2469   -2.6257 O   0  0  0  0  0  0  0  0  0  0  0  0
   -0.5502    0.8427   -1.3893 C   0  0  1  0  0  0  0  0  0  0  0  0
   -2.0767    0.8084   -1.6188 C   0  0  0  0  0  0  0  0  0  0  0  0
   -2.6213    2.0761   -1.3762 O   0  0  0  0  0  0  0  0  0  0  0  0
   -0.1960    1.5198   -0.1881 O   0  0  0  0  0  0  0  0  0  0  0  0
   -0.5116    0.7676    0.9775 C   0  0  2  0  0  0  0  0  0  0  0  0
   -0.2409    1.5302    2.1261 O   0  0  0  0  0  0  0  0  0  0  0  0
    2.0736    0.3070    0.4212 H   0  0  0  0  0  0  0  0  0  0  0  0
    1.9227    0.0722    2.0973 H   0  0  0  0  0  0  0  0  0  0  0  0
    2.2389   -1.2455    1.1038 H   0  0  0  0  0  0  0  0  0  0  0  0
   -0.0825   -1.1441    1.9098 H   0  0  0  0  0  0  0  0  0  0  0  0
   -1.1565   -1.6713   -0.1710 H   0  0  0  0  0  0  0  0  0  0  0  0
    0.2357   -3.1880   -0.8985 H   0  0  0  0  0  0  0  0  0  0  0  0
    1.2330   -0.3845   -1.6333 H   0  0  0  0  0  0  0  0  0  0  0  0
    0.0265   -0.7992   -3.4292 H   0  0  0  0  0  0  0  0  0  0  0  0
   -0.1396    1.4578   -2.2202 H   0  0  0  0  0  0  0  0  0  0  0  0
   -2.2813    0.5201   -2.6743 H   0  0  0  0  0  0  0  0  0  0  0  0
   -2.5661    0.0563   -0.9640 H   0  0  0  0  0  0  0  0  0  0  0  0
   -3.5970    1.9931   -1.5377 H   0  0  0  0  0  0  0  0  0  0  0  0
   -1.5998    0.5465    1.0093 H   0  0  0  0  0  0  0  0  0  0  0  0
    0.5967    2.0371    1.9623 H   0  0  0  0  0  0  0  0  0  0  0  0
  1  2  1  0  0  0  0
  1 13  1  0  0  0  0
  1 14  1  0  0  0  0
  1 15  1  0  0  0  0
  2  3  1  0  0  0  0
  2 16  1  1  0  0  0
  3  4  1  0  0  0  0
  3  5  1  0  0  0  0
  3 17  1  1  0  0  0
  4 18  1  0  0  0  0
  5  6  1  0  0  0  0
  5  7  1  0  0  0  0
  5 19  1  6  0  0  0
  6 20  1  0  0  0  0
  7  8  1  0  0  0  0
  7 10  1  0  0  0  0
  7 21  1  6  0  0  0
  8  9  1  0  0  0  0
  8 22  1  0  0  0  0
  8 23  1  0  0  0  0
  9 24  1  0  0  0  0
 10 11  1  0  0  0  0
 11 12  1  0  0  0  0
 11  2  1  0  0  0  0
 11 25  1  6  0  0  0
 12 26  1  0  0  0  0
M  CHG  1   1   1
M  END
>  <UniqueID>
194

>  <SMILES>
[NH3+][C@H]1[C@@H](O)O[C@H](CO)[C@H](O)[C@H]1O

>  <Energy>
28.819056257157534

>  <Genealogy>
[NH3+]C1C(O)[C@@H](O)C(CO)O[C@@H]1O (protonated)
[NH3+][C@H]1[C@@H](O)O[C@H](CO)[C@H](O)[C@H]1O (chirality)
[NH3+][C@H]1[C@@H](O)O[C@H](CO)[C@H](O)[C@H]1O (3D coordinates assigned)
[NH3+][C@H]1[C@@H](O)O[C@H](CO)[C@H](O)[C@H]1O (nonaromatic ring conformer: 28.819056257157534 kcal/mol)

$$$$
5300
 OpenBabel03032110343D

 33 33  0  0  0  0  0  0  0  0999 V2000
    2.0899   -1.6976   -4.4001 C   0  0  0  0  0  0  0  0  0  0  0  0
    0.9991   -1.0306   -3.6827 N   0  0  0  0  0  0  0  0  0  0  0  0
    0.2604   -0.0097   -4.3077 N   0  0  0  0  0  0  0  0  0  0  0  0
    0.4807    0.3283   -5.4893 O   0  0  0  0  0  0  0  0  0  0  0  0
    0.7792   -1.2980   -2.2855 C   0  0  0  0  0  0  0  0  0  0  0  0
    1.5679   -2.0593   -1.6599 O   0  0  0  0  0  0  0  0  0  0  0  0
   -0.3329   -0.7033   -1.5948 N   0  0  0  0  0  0  0  0  0  0  0  0
   -0.5522   -0.9017   -0.1551 C   0  0  2  0  0  0  0  0  0  0  0  0
   -2.0121   -0.5407    0.2343 C   0  0  1  0  0  0  0  0  0  0  0  0
   -2.8383   -1.6630    0.0753 O   0  0  0  0  0  0  0  0  0  0  0  0
   -2.0563   -0.1400    1.5892 O   0  0  0  0  0  0  0  0  0  0  0  0
   -1.5012    1.1601    1.7419 C   0  0  1  0  0  0  0  0  0  0  0  0
   -1.4052    1.4622    3.2420 C   0  0  0  0  0  0  0  0  0  0  0  0
   -1.0512    2.8033    3.4425 O   0  0  0  0  0  0  0  0  0  0  0  0
   -0.1059    1.3058    1.0441 C   0  0  2  0  0  0  0  0  0  0  0  0
   -0.2315    2.0783   -0.1231 O   0  0  0  0  0  0  0  0  0  0  0  0
    0.4696   -0.0710    0.6700 C   0  0  1  0  0  0  0  0  0  0  0  0
    0.8040   -0.7585    1.8497 O   0  0  0  0  0  0  0  0  0  0  0  0
    1.8583   -1.7703   -5.4833 H   0  0  0  0  0  0  0  0  0  0  0  0
    2.2330   -2.7328   -4.0235 H   0  0  0  0  0  0  0  0  0  0  0  0
    3.0301   -1.1234   -4.2641 H   0  0  0  0  0  0  0  0  0  0  0  0
   -1.0263   -0.1527   -2.1486 H   0  0  0  0  0  0  0  0  0  0  0  0
   -0.3967   -1.9807    0.0743 H   0  0  0  0  0  0  0  0  0  0  0  0
   -2.4103    0.2810   -0.4122 H   0  0  0  0  0  0  0  0  0  0  0  0
   -2.9480   -1.8019   -0.9018 H   0  0  0  0  0  0  0  0  0  0  0  0
   -2.2150    1.9028    1.3150 H   0  0  0  0  0  0  0  0  0  0  0  0
   -2.3939    1.2693    3.7161 H   0  0  0  0  0  0  0  0  0  0  0  0
   -0.6512    0.7932    3.7146 H   0  0  0  0  0  0  0  0  0  0  0  0
   -0.9920    2.9281    4.4252 H   0  0  0  0  0  0  0  0  0  0  0  0
    0.6311    1.8031    1.7188 H   0  0  0  0  0  0  0  0  0  0  0  0
   -0.3371    3.0216    0.1684 H   0  0  0  0  0  0  0  0  0  0  0  0
    1.4004    0.0972    0.0782 H   0  0  0  0  0  0  0  0  0  0  0  0
    1.4390   -1.4778    1.5937 H   0  0  0  0  0  0  0  0  0  0  0  0
  1  2  1  0  0  0  0
  1 19  1  0  0  0  0
  1 20  1  0  0  0  0
  1 21  1  0  0  0  0
  2  3  1  0  0  0  0
  2  5  1  0  0  0  0
  3  4  2  0  0  0  0
  5  6  2  0  0  0  0
  5  7  1  0  0  0  0
  7  8  1  0  0  0  0
  7 22  1  0  0  0  0
  8  9  1  0  0  0  0
  8 23  1  1  0  0  0
  9 10  1  0  0  0  0
  9 11  1  0  0  0  0
  9 24  1  6  0  0  0
 10 25  1  0  0  0  0
 11 12  1  0  0  0  0
 12 13  1  0  0  0  0
 12 15  1  0  0  0  0
 12 26  1  6  0  0  0
 13 14  1  0  0  0  0
 13 27  1  0  0  0  0
 13 28  1  0  0  0  0
 14 29  1  0  0  0  0
 15 16  1  0  0  0  0
 15 17  1  0  0  0  0
 15 30  1  1  0  0  0
 16 31  1  0  0  0  0
 17 18  1  0  0  0  0
 17  8  1  0  0  0  0
 17 32  1  6  0  0  0
 18 33  1  0  0  0  0
M  END
>  <UniqueID>
195

>  <SMILES>
CN(N=O)C(=O)N[C@@H]1[C@@H](O)O[C@@H](CO)[C@H](O)[C@H]1O

>  <Energy>
36.799577805089406

>  <Genealogy>
CN(N=O)C(=O)N[C@@H]1[C@@H](O)O[C@@H](CO)[C@H](O)[C@H]1O (chirality)
CN(N=O)C(=O)N[C@@H]1[C@@H](O)O[C@@H](CO)[C@H](O)[C@H]1O (3D coordinates assigned)
CN(N=O)C(=O)N[C@@H]1[C@@H](O)O[C@@H](CO)[C@H](O)[C@H]1O (nonaromatic ring conformer: 36.799577805089406 kcal/mol)

$$$$
5300
 OpenBabel03032110343D

 33 33  0  0  0  0  0  0  0  0999 V2000
    2.4387   -0.7338   -4.3007 C   0  0  0  0  0  0  0  0  0  0  0  0
    1.1053   -0.6679   -3.7113 N   0  0  0  0  0  0  0  0  0  0  0  0
    0.0226   -0.3483   -4.5506 N   0  0  0  0  0  0  0  0  0  0  0  0
   -1.1605   -0.5378   -4.1999 O   0  0  0  0  0  0  0  0  0  0  0  0
    0.9057   -1.0927   -2.3509 C   0  0  0  0  0  0  0  0  0  0  0  0
    1.6556   -1.9804   -1.8596 O   0  0  0  0  0  0  0  0  0  0  0  0
   -0.1128   -0.4864   -1.5400 N   0  0  0  0  0  0  0  0  0  0  0  0
   -0.4053   -0.9412   -0.1746 C   0  0  2  0  0  0  0  0  0  0  0  0
   -1.8366   -0.5333    0.2278 C   0  0  1  0  0  0  0  0  0  0  0  0
   -2.2501   -1.2355    1.3704 O   0  0  0  0  0  0  0  0  0  0  0  0
   -1.9938    0.8714    0.3946 O   0  0  0  0  0  0  0  0  0  0  0  0
   -1.0836    1.4644    1.3170 C   0  0  1  0  0  0  0  0  0  0  0  0
   -1.4911    1.2536    2.7909 C   0  0  0  0  0  0  0  0  0  0  0  0
   -2.8005    1.7066    3.0066 O   0  0  0  0  0  0  0  0  0  0  0  0
    0.4015    1.1315    1.0302 C   0  0  2  0  0  0  0  0  0  0  0  0
    0.8127    1.8415   -0.1115 O   0  0  0  0  0  0  0  0  0  0  0  0
    0.6251   -0.3781    0.8165 C   0  0  1  0  0  0  0  0  0  0  0  0
    0.5309   -1.0693    2.0358 O   0  0  0  0  0  0  0  0  0  0  0  0
    3.2009   -0.3959   -3.5661 H   0  0  0  0  0  0  0  0  0  0  0  0
    2.6593   -1.7775   -4.6081 H   0  0  0  0  0  0  0  0  0  0  0  0
    2.4971   -0.0734   -5.1919 H   0  0  0  0  0  0  0  0  0  0  0  0
   -0.6202    0.3461   -1.9161 H   0  0  0  0  0  0  0  0  0  0  0  0
   -0.3534   -2.0535   -0.1565 H   0  0  0  0  0  0  0  0  0  0  0  0
   -2.4991   -0.8392   -0.6149 H   0  0  0  0  0  0  0  0  0  0  0  0
   -3.2323   -1.1102    1.4390 H   0  0  0  0  0  0  0  0  0  0  0  0
   -1.1742    2.5629    1.1634 H   0  0  0  0  0  0  0  0  0  0  0  0
   -0.8149    1.8521    3.4380 H   0  0  0  0  0  0  0  0  0  0  0  0
   -1.3821    0.1994    3.1191 H   0  0  0  0  0  0  0  0  0  0  0  0
   -3.4079    0.9768    2.7200 H   0  0  0  0  0  0  0  0  0  0  0  0
    1.0171    1.4709    1.8967 H   0  0  0  0  0  0  0  0  0  0  0  0
    1.8058    1.8453   -0.1094 H   0  0  0  0  0  0  0  0  0  0  0  0
    1.6465   -0.5391    0.3991 H   0  0  0  0  0  0  0  0  0  0  0  0
    1.3578   -0.8677    2.5473 H   0  0  0  0  0  0  0  0  0  0  0  0
  1  2  1  0  0  0  0
  1 19  1  0  0  0  0
  1 20  1  0  0  0  0
  1 21  1  0  0  0  0
  2  3  1  0  0  0  0
  2  5  1  0  0  0  0
  3  4  2  0  0  0  0
  5  6  2  0  0  0  0
  5  7  1  0  0  0  0
  7  8  1  0  0  0  0
  7 22  1  0  0  0  0
  8  9  1  0  0  0  0
  8 23  1  1  0  0  0
  9 10  1  0  0  0  0
  9 11  1  0  0  0  0
  9 24  1  6  0  0  0
 10 25  1  0  0  0  0
 11 12  1  0  0  0  0
 12 13  1  0  0  0  0
 12 15  1  0  0  0  0
 12 26  1  6  0  0  0
 13 14  1  0  0  0  0
 13 27  1  0  0  0  0
 13 28  1  0  0  0  0
 14 29  1  0  0  0  0
 15 16  1  0  0  0  0
 15 17  1  0  0  0  0
 15 30  1  1  0  0  0
 16 31  1  0  0  0  0
 17 18  1  0  0  0  0
 17  8  1  0  0  0  0
 17 32  1  6  0  0  0
 18 33  1  0  0  0  0
M  END
>  <UniqueID>
196

>  <SMILES>
CN(N=O)C(=O)N[C@@H]1[C@@H](O)O[C@@H](CO)[C@H](O)[C@H]1O

>  <Energy>
38.847274616853

>  <Genealogy>
CN(N=O)C(=O)N[C@@H]1[C@@H](O)O[C@@H](CO)[C@H](O)[C@H]1O (chirality)
CN(N=O)C(=O)N[C@@H]1[C@@H](O)O[C@@H](CO)[C@H](O)[C@H]1O (3D coordinates assigned)
CN(N=O)C(=O)N[C@@H]1[C@@H](O)O[C@@H](CO)[C@H](O)[C@H]1O (nonaromatic ring conformer: 38.847274616853 kcal/mol)

$$$$
899
 OpenBabel03032110343D

 30 30  0  0  0  0  0  0  0  0999 V2000
   -4.2196    1.3259   -1.7331 H   0  0  0  0  0  0  0  0  0  0  0  0
   -4.3364    0.6233   -1.0123 O   0  0  0  0  0  0  0  0  0  0  0  0
   -3.2367   -0.0080   -0.4379 C   0  0  0  0  0  0  0  0  0  0  0  0
   -2.0402    0.3100   -0.8459 N   0  0  0  0  0  0  0  0  0  0  0  0
   -0.7689   -0.2275   -0.3485 C   0  0  2  0  0  0  0  0  0  0  0  0
   -0.8830   -1.3026   -0.0857 H   0  0  0  0  0  0  0  0  0  0  0  0
   -0.3039    0.5471    0.9109 C   0  0  2  0  0  0  0  0  0  0  0  0
   -0.9343    0.2255    1.7658 H   0  0  0  0  0  0  0  0  0  0  0  0
   -0.4936    1.9367    0.7791 O   0  0  0  0  0  0  0  0  0  0  0  0
    0.0227    2.2519   -0.0049 H   0  0  0  0  0  0  0  0  0  0  0  0
    1.1633    0.2135    1.2635 C   0  0  1  0  0  0  0  0  0  0  0  0
    1.5410    0.9622    1.9998 H   0  0  0  0  0  0  0  0  0  0  0  0
    1.2291   -1.0750    1.8231 O   0  0  0  0  0  0  0  0  0  0  0  0
    0.9366   -0.9941    2.7685 H   0  0  0  0  0  0  0  0  0  0  0  0
    2.0494    0.2737   -0.0022 C   0  0  1  0  0  0  0  0  0  0  0  0
    2.0846    1.3210   -0.3822 H   0  0  0  0  0  0  0  0  0  0  0  0
    3.4995   -0.1163    0.3211 C   0  0  0  0  0  0  0  0  0  0  0  0
    3.8977    0.5221    1.1432 H   0  0  0  0  0  0  0  0  0  0  0  0
    3.5408   -1.1729    0.6615 H   0  0  0  0  0  0  0  0  0  0  0  0
    4.3052    0.0096   -0.8197 O   0  0  0  0  0  0  0  0  0  0  0  0
    4.4819    0.9794   -0.9381 H   0  0  0  0  0  0  0  0  0  0  0  0
    1.5471   -0.6029   -0.9956 O   0  0  0  0  0  0  0  0  0  0  0  0
    0.2898   -0.1473   -1.4672 C   0  0  1  0  0  0  0  0  0  0  0  0
    0.3647    0.8997   -1.8482 H   0  0  0  0  0  0  0  0  0  0  0  0
   -0.1163   -0.9675   -2.5294 O   0  0  0  0  0  0  0  0  0  0  0  0
    0.5326   -0.8166   -3.2654 H   0  0  0  0  0  0  0  0  0  0  0  0
   -3.4825   -1.0445    0.6192 C   0  0  0  0  0  0  0  0  0  0  0  0
   -4.5737   -1.1562    0.7906 H   0  0  0  0  0  0  0  0  0  0  0  0
   -3.0830   -2.0272    0.2932 H   0  0  0  0  0  0  0  0  0  0  0  0
   -3.0141   -0.7427    1.5767 H   0  0  0  0  0  0  0  0  0  0  0  0
  1  2  1  0  0  0  0
  2  3  1  0  0  0  0
  3  4  2  0  0  0  0
  3 27  1  0  0  0  0
  4  5  1  0  0  0  0
  5  6  1  1  0  0  0
  5  7  1  0  0  0  0
  7  8  1  1  0  0  0
  7  9  1  0  0  0  0
  7 11  1  0  0  0  0
  9 10  1  0  0  0  0
 11 12  1  1  0  0  0
 11 13  1  0  0  0  0
 11 15  1  0  0  0  0
 13 14  1  0  0  0  0
 15 16  1  6  0  0  0
 15 17  1  0  0  0  0
 15 22  1  0  0  0  0
 17 18  1  0  0  0  0
 17 19  1  0  0  0  0
 17 20  1  0  0  0  0
 20 21  1  0  0  0  0
 22 23  1  0  0  0  0
 23 24  1  6  0  0  0
 23 25  1  0  0  0  0
 23  5  1  0  0  0  0
 25 26  1  0  0  0  0
 27 28  1  0  0  0  0
 27 29  1  0  0  0  0
 27 30  1  0  0  0  0
M  END
>  <UniqueID>
197

>  <SMILES>
C/C(O)=N/[C@@H]1[C@H](O)[C@@H](O)[C@@H](CO)O[C@H]1O

>  <Energy>
28.098061787065106

>  <Genealogy>
CC(O)=NC1C(O)OC(CO)C(O)C1O (tautomer)
CC(O)=N[C@@H]1[C@H](O)[C@@H](O)[C@@H](CO)O[C@H]1O (chirality)
C/C(O)=N/[C@@H]1[C@H](O)[C@@H](O)[C@@H](CO)O[C@H]1O (cis-trans isomerization)
C/C(O)=N/[C@@H]1[C@H](O)[C@@H](O)[C@@H](CO)O[C@H]1O (3D coordinates assigned)
C/C(O)=N/[C@@H]1[C@H](O)[C@@H](O)[C@@H](CO)O[C@H]1O (nonaromatic ring conformer: 28.098061787065106 kcal/mol)

$$$$
899
 OpenBabel03032110343D

 30 30  0  0  0  0  0  0  0  0999 V2000
   -2.5153   -1.5218   -1.6140 H   0  0  0  0  0  0  0  0  0  0  0  0
   -1.6716   -1.2065   -1.1506 O   0  0  0  0  0  0  0  0  0  0  0  0
   -1.6955   -0.7725    0.1747 C   0  0  0  0  0  0  0  0  0  0  0  0
   -0.6108   -0.3494    0.7515 N   0  0  0  0  0  0  0  0  0  0  0  0
    0.7015   -0.2933    0.0997 C   0  0  2  0  0  0  0  0  0  0  0  0
    0.8820   -1.2617   -0.4212 H   0  0  0  0  0  0  0  0  0  0  0  0
    1.7979   -0.1209    1.1688 C   0  0  2  0  0  0  0  0  0  0  0  0
    2.7840   -0.2060    0.6530 H   0  0  0  0  0  0  0  0  0  0  0  0
    1.7010   -1.1268    2.1449 O   0  0  0  0  0  0  0  0  0  0  0  0
    2.0129   -1.9691    1.7216 H   0  0  0  0  0  0  0  0  0  0  0  0
    1.7052    1.2704    1.8455 C   0  0  1  0  0  0  0  0  0  0  0  0
    1.0023    1.2016    2.7055 H   0  0  0  0  0  0  0  0  0  0  0  0
    2.9622    1.6407    2.3597 O   0  0  0  0  0  0  0  0  0  0  0  0
    3.5859    1.7322    1.5924 H   0  0  0  0  0  0  0  0  0  0  0  0
    1.1288    2.3337    0.8654 C   0  0  1  0  0  0  0  0  0  0  0  0
    0.0158    2.3377    0.9654 H   0  0  0  0  0  0  0  0  0  0  0  0
    1.5858    3.7636    1.1954 C   0  0  0  0  0  0  0  0  0  0  0  0
    1.3929    3.9720    2.2695 H   0  0  0  0  0  0  0  0  0  0  0  0
    2.6780    3.8838    1.0132 H   0  0  0  0  0  0  0  0  0  0  0  0
    0.8655    4.6941    0.4325 O   0  0  0  0  0  0  0  0  0  0  0  0
    1.2668    4.6909   -0.4756 H   0  0  0  0  0  0  0  0  0  0  0  0
    1.5008    2.0099   -0.4610 O   0  0  0  0  0  0  0  0  0  0  0  0
    0.7606    0.8863   -0.9279 C   0  0  1  0  0  0  0  0  0  0  0  0
   -0.2705    1.2263   -1.1717 H   0  0  0  0  0  0  0  0  0  0  0  0
    1.3272    0.4385   -2.1307 O   0  0  0  0  0  0  0  0  0  0  0  0
    2.2843    0.2486   -1.9459 H   0  0  0  0  0  0  0  0  0  0  0  0
   -2.9841   -0.7617    0.9316 C   0  0  0  0  0  0  0  0  0  0  0  0
   -3.5754    0.1305    0.6386 H   0  0  0  0  0  0  0  0  0  0  0  0
   -2.7963   -0.7307    2.0262 H   0  0  0  0  0  0  0  0  0  0  0  0
   -3.5655   -1.6777    0.6975 H   0  0  0  0  0  0  0  0  0  0  0  0
  1  2  1  0  0  0  0
  2  3  1  0  0  0  0
  3  4  2  0  0  0  0
  3 27  1  0  0  0  0
  4  5  1  0  0  0  0
  5  6  1  6  0  0  0
  5  7  1  0  0  0  0
  7  8  1  6  0  0  0
  7  9  1  0  0  0  0
  7 11  1  0  0  0  0
  9 10  1  0  0  0  0
 11 12  1  1  0  0  0
 11 13  1  0  0  0  0
 11 15  1  0  0  0  0
 13 14  1  0  0  0  0
 15 16  1  1  0  0  0
 15 17  1  0  0  0  0
 15 22  1  0  0  0  0
 17 18  1  0  0  0  0
 17 19  1  0  0  0  0
 17 20  1  0  0  0  0
 20 21  1  0  0  0  0
 22 23  1  0  0  0  0
 23 24  1  6  0  0  0
 23 25  1  0  0  0  0
 23  5  1  0  0  0  0
 25 26  1  0  0  0  0
 27 28  1  0  0  0  0
 27 29  1  0  0  0  0
 27 30  1  0  0  0  0
M  END
>  <UniqueID>
198

>  <SMILES>
C/C(O)=N\[C@@H]1[C@H](O)[C@@H](O)[C@@H](CO)O[C@H]1O

>  <Energy>
33.90360144532422

>  <Genealogy>
CC(O)=NC1C(O)OC(CO)C(O)C1O (tautomer)
CC(O)=N[C@@H]1[C@H](O)[C@@H](O)[C@@H](CO)O[C@H]1O (chirality)
C/C(O)=N\[C@@H]1[C@H](O)[C@@H](O)[C@@H](CO)O[C@H]1O (cis-trans isomerization)
C/C(O)=N\[C@@H]1[C@H](O)[C@@H](O)[C@@H](CO)O[C@H]1O (3D coordinates assigned)
C/C(O)=N\[C@@H]1[C@H](O)[C@@H](O)[C@@H](CO)O[C@H]1O (nonaromatic ring conformer: 33.90360144532422 kcal/mol)

$$$$
739
 OpenBabel03032110343D

 26 26  0  0  0  0  0  0  0  0999 V2000
    0.0479    1.3479   -1.8125 N   0  3  0  0  0  0  0  0  0  0  0  0
    0.7236    1.0839   -0.5312 C   0  0  1  0  0  0  0  0  0  0  0  0
   -0.0603    1.7236    0.6356 C   0  0  2  0  0  0  0  0  0  0  0  0
    0.7195    1.7367    1.8056 O   0  0  0  0  0  0  0  0  0  0  0  0
   -1.3004    1.0640    0.8476 O   0  0  0  0  0  0  0  0  0  0  0  0
   -1.1185   -0.2924    1.2284 C   0  0  1  0  0  0  0  0  0  0  0  0
   -2.4936   -0.8863    1.5564 C   0  0  0  0  0  0  0  0  0  0  0  0
   -3.1009   -0.1365    2.5722 O   0  0  0  0  0  0  0  0  0  0  0  0
   -0.4271   -1.0971    0.1009 C   0  0  2  0  0  0  0  0  0  0  0  0
   -0.1698   -2.4094    0.5367 O   0  0  0  0  0  0  0  0  0  0  0  0
    0.9088   -0.4288   -0.2705 C   0  0  1  0  0  0  0  0  0  0  0  0
    1.4707   -1.0500   -1.3989 O   0  0  0  0  0  0  0  0  0  0  0  0
    0.5904    0.9330   -2.6037 H   0  0  0  0  0  0  0  0  0  0  0  0
   -0.9229    0.9611   -1.8168 H   0  0  0  0  0  0  0  0  0  0  0  0
   -0.0041    2.3798   -1.9749 H   0  0  0  0  0  0  0  0  0  0  0  0
    1.7336    1.5525   -0.5701 H   0  0  0  0  0  0  0  0  0  0  0  0
   -0.2801    2.7796    0.3590 H   0  0  0  0  0  0  0  0  0  0  0  0
    0.2012    2.2462    2.4817 H   0  0  0  0  0  0  0  0  0  0  0  0
   -0.5071   -0.3601    2.1581 H   0  0  0  0  0  0  0  0  0  0  0  0
   -3.1350   -0.8705    0.6463 H   0  0  0  0  0  0  0  0  0  0  0  0
   -2.3801   -1.9389    1.8991 H   0  0  0  0  0  0  0  0  0  0  0  0
   -3.9860   -0.5559    2.7328 H   0  0  0  0  0  0  0  0  0  0  0  0
   -1.0829   -1.1096   -0.8024 H   0  0  0  0  0  0  0  0  0  0  0  0
   -0.9209   -2.9773    0.2221 H   0  0  0  0  0  0  0  0  0  0  0  0
    1.6098   -0.5346    0.5926 H   0  0  0  0  0  0  0  0  0  0  0  0
    1.8760   -1.9020   -1.0898 H   0  0  0  0  0  0  0  0  0  0  0  0
  1  2  1  0  0  0  0
  1 13  1  0  0  0  0
  1 14  1  0  0  0  0
  1 15  1  0  0  0  0
  2  3  1  0  0  0  0
  2 16  1  6  0  0  0
  3  4  1  0  0  0  0
  3  5  1  0  0  0  0
  3 17  1  6  0  0  0
  4 18  1  0  0  0  0
  5  6  1  0  0  0  0
  6  7  1  0  0  0  0
  6  9  1  0  0  0  0
  6 19  1  1  0  0  0
  7  8  1  0  0  0  0
  7 20  1  0  0  0  0
  7 21  1  0  0  0  0
  8 22  1  0  0  0  0
  9 10  1  0  0  0  0
  9 11  1  0  0  0  0
  9 23  1  6  0  0  0
 10 24  1  0  0  0  0
 11 12  1  0  0  0  0
 11  2  1  0  0  0  0
 11 25  1  1  0  0  0
 12 26  1  0  0  0  0
M  CHG  1   1   1
M  END
>  <UniqueID>
199

>  <SMILES>
[NH3+][C@@H]1[C@H](O)[C@@H](O)[C@H](CO)O[C@H]1O

>  <Energy>
24.76480741120639

>  <Genealogy>
[NH3+]C1C(O)OC(CO)C(O)C1O (protonated)
[NH3+][C@@H]1[C@H](O)[C@@H](O)[C@H](CO)O[C@H]1O (chirality)
[NH3+][C@@H]1[C@H](O)[C@@H](O)[C@H](CO)O[C@H]1O (3D coordinates assigned)
[NH3+][C@@H]1[C@H](O)[C@@H](O)[C@H](CO)O[C@H]1O (nonaromatic ring conformer: 24.76480741120639 kcal/mol)

$$$$
739
 OpenBabel03032110343D

 25 25  0  0  0  0  0  0  0  0999 V2000
    1.0483    0.7990    1.8294 N   0  0  0  0  0  0  0  0  0  0  0  0
    0.8842    0.4875    0.4056 C   0  0  1  0  0  0  0  0  0  0  0  0
   -0.2890   -0.4935    0.1589 C   0  0  1  0  0  0  0  0  0  0  0  0
   -1.4877   -0.0104    0.7135 O   0  0  0  0  0  0  0  0  0  0  0  0
   -0.4427   -0.7758   -1.2259 O   0  0  0  0  0  0  0  0  0  0  0  0
   -0.7524    0.3969   -1.9650 C   0  0  2  0  0  0  0  0  0  0  0  0
   -1.0932    0.0107   -3.4112 C   0  0  0  0  0  0  0  0  0  0  0  0
   -0.0743   -0.7726   -3.9699 O   0  0  0  0  0  0  0  0  0  0  0  0
    0.4029    1.4318   -1.8964 C   0  0  2  0  0  0  0  0  0  0  0  0
    1.5567    0.9922   -2.5737 O   0  0  0  0  0  0  0  0  0  0  0  0
    0.7263    1.7775   -0.4296 C   0  0  1  0  0  0  0  0  0  0  0  0
   -0.3074    2.5792    0.0885 O   0  0  0  0  0  0  0  0  0  0  0  0
    1.2791   -0.0852    2.3385 H   0  0  0  0  0  0  0  0  0  0  0  0
    0.1488    1.1547    2.2262 H   0  0  0  0  0  0  0  0  0  0  0  0
    1.8168   -0.0184    0.0701 H   0  0  0  0  0  0  0  0  0  0  0  0
   -0.0287   -1.4492    0.6676 H   0  0  0  0  0  0  0  0  0  0  0  0
   -2.1546   -0.7391    0.6162 H   0  0  0  0  0  0  0  0  0  0  0  0
   -1.6735    0.8759   -1.5592 H   0  0  0  0  0  0  0  0  0  0  0  0
   -2.0434   -0.5692   -3.4122 H   0  0  0  0  0  0  0  0  0  0  0  0
   -1.2460    0.9295   -4.0212 H   0  0  0  0  0  0  0  0  0  0  0  0
   -0.3592   -0.9729   -4.8992 H   0  0  0  0  0  0  0  0  0  0  0  0
    0.0642    2.3643   -2.3998 H   0  0  0  0  0  0  0  0  0  0  0  0
    1.8041    0.0996   -2.2199 H   0  0  0  0  0  0  0  0  0  0  0  0
    1.6891    2.3427   -0.4096 H   0  0  0  0  0  0  0  0  0  0  0  0
    0.0979    3.1755    0.7710 H   0  0  0  0  0  0  0  0  0  0  0  0
  1  2  1  0  0  0  0
  1 13  1  0  0  0  0
  1 14  1  0  0  0  0
  2  3  1  0  0  0  0
  2 15  1  6  0  0  0
  3  4  1  0  0  0  0
  3  5  1  0  0  0  0
  3 16  1  1  0  0  0
  4 17  1  0  0  0  0
  5  6  1  0  0  0  0
  6  7  1  0  0  0  0
  6  9  1  0  0  0  0
  6 18  1  1  0  0  0
  7  8  1  0  0  0  0
  7 19  1  0  0  0  0
  7 20  1  0  0  0  0
  8 21  1  0  0  0  0
  9 10  1  0  0  0  0
  9 11  1  0  0  0  0
  9 22  1  6  0  0  0
 10 23  1  0  0  0  0
 11 12  1  0  0  0  0
 11  2  1  0  0  0  0
 11 24  1  1  0  0  0
 12 25  1  0  0  0  0
M  END
>  <UniqueID>
200

>  <SMILES>
N[C@H]1[C@@H](O)O[C@H](CO)[C@H](O)[C@H]1O

>  <Energy>
26.35659237935197

>  <Genealogy>
N[C@H]1[C@@H](O)O[C@H](CO)[C@H](O)[C@H]1O (chirality)
N[C@H]1[C@@H](O)O[C@H](CO)[C@H](O)[C@H]1O (3D coordinates assigned)
N[C@H]1[C@@H](O)O[C@H](CO)[C@H](O)[C@H]1O (nonaromatic ring conformer: 26.35659237935197 kcal/mol)

$$$$
ZINC000001471333
 OpenBabel03032110343D

 43 44  0  0  0  0  0  0  0  0999 V2000
   -3.2545    3.6351   -2.9354 C   0  0  0  0  0  0  0  0  0  0  0  0
   -2.9223    2.1786   -2.9338 C   0  0  0  0  0  0  0  0  0  0  0  0
   -3.4367    1.4207   -3.8003 O   0  0  0  0  0  0  0  0  0  0  0  0
   -2.0214    1.6531   -1.9494 N   0  0  0  0  0  0  0  0  0  0  0  0
   -1.6833    0.2267   -1.8759 C   0  0  1  0  0  0  0  0  0  0  0  0
   -0.4053    0.0106   -1.0408 C   0  0  2  0  0  0  0  0  0  0  0  0
    0.6716    0.7131   -1.6601 O   0  0  0  0  0  0  0  0  0  0  0  0
    1.9626    0.8370   -1.1235 C   0  0  0  0  0  0  0  0  0  0  0  0
    2.3221    0.2885    0.1231 C   0  0  0  0  0  0  0  0  0  0  0  0
    3.6233    0.4414    0.6115 C   0  0  0  0  0  0  0  0  0  0  0  0
    4.5787    1.1538   -0.1284 C   0  0  0  0  0  0  0  0  0  0  0  0
    5.9844    1.2824    0.3789 C   0  0  0  0  0  0  0  0  0  0  0  0
    4.2250    1.6866   -1.3766 C   0  0  0  0  0  0  0  0  0  0  0  0
    2.9240    1.5337   -1.8647 C   0  0  0  0  0  0  0  0  0  0  0  0
   -0.0850   -1.3689   -0.9930 O   0  0  0  0  0  0  0  0  0  0  0  0
   -1.0740   -2.0887   -0.2765 C   0  0  2  0  0  0  0  0  0  0  0  0
   -0.5748   -3.5338   -0.1103 C   0  0  0  0  0  0  0  0  0  0  0  0
   -1.4073   -4.2650    0.7496 O   0  0  0  0  0  0  0  0  0  0  0  0
   -2.4219   -2.0380   -1.0383 C   0  0  1  0  0  0  0  0  0  0  0  0
   -3.4143   -2.7226   -0.3173 O   0  0  0  0  0  0  0  0  0  0  0  0
   -2.8485   -0.5717   -1.2616 C   0  0  1  0  0  0  0  0  0  0  0  0
   -3.2330    0.0165   -0.0424 O   0  0  0  0  0  0  0  0  0  0  0  0
   -2.3222    4.2290   -3.0383 H   0  0  0  0  0  0  0  0  0  0  0  0
   -3.9337    3.8813   -3.7793 H   0  0  0  0  0  0  0  0  0  0  0  0
   -3.7539    3.9016   -1.9806 H   0  0  0  0  0  0  0  0  0  0  0  0
   -1.5787    2.3228   -1.2790 H   0  0  0  0  0  0  0  0  0  0  0  0
   -1.4847   -0.1529   -2.9041 H   0  0  0  0  0  0  0  0  0  0  0  0
   -0.5531    0.4257   -0.0158 H   0  0  0  0  0  0  0  0  0  0  0  0
    1.6076   -0.2597    0.7215 H   0  0  0  0  0  0  0  0  0  0  0  0
    3.8856    0.0047    1.5674 H   0  0  0  0  0  0  0  0  0  0  0  0
    6.4574    2.2114   -0.0049 H   0  0  0  0  0  0  0  0  0  0  0  0
    6.5793    0.4076    0.0428 H   0  0  0  0  0  0  0  0  0  0  0  0
    5.9970    1.3245    1.4890 H   0  0  0  0  0  0  0  0  0  0  0  0
    4.9553    2.2205   -1.9719 H   0  0  0  0  0  0  0  0  0  0  0  0
    2.6619    1.9556   -2.8267 H   0  0  0  0  0  0  0  0  0  0  0  0
   -1.1986   -1.6594    0.7459 H   0  0  0  0  0  0  0  0  0  0  0  0
    0.4654   -3.5268    0.2891 H   0  0  0  0  0  0  0  0  0  0  0  0
   -0.5450   -4.0397   -1.0990 H   0  0  0  0  0  0  0  0  0  0  0  0
   -1.2057   -3.9564    1.6715 H   0  0  0  0  0  0  0  0  0  0  0  0
   -2.2806   -2.5226   -2.0338 H   0  0  0  0  0  0  0  0  0  0  0  0
   -4.1630   -2.8878   -0.9480 H   0  0  0  0  0  0  0  0  0  0  0  0
   -3.7036   -0.5535   -1.9777 H   0  0  0  0  0  0  0  0  0  0  0  0
   -4.1814   -0.2316    0.1138 H   0  0  0  0  0  0  0  0  0  0  0  0
  1  2  1  0  0  0  0
  1 23  1  0  0  0  0
  1 24  1  0  0  0  0
  1 25  1  0  0  0  0
  2  3  2  0  0  0  0
  2  4  1  0  0  0  0
  4  5  1  0  0  0  0
  4 26  1  0  0  0  0
  5  6  1  0  0  0  0
  5 27  1  6  0  0  0
  6  7  1  0  0  0  0
  6 15  1  0  0  0  0
  6 28  1  1  0  0  0
  7  8  1  0  0  0  0
  8  9  2  0  0  0  0
  9 10  1  0  0  0  0
  9 29  1  0  0  0  0
 10 11  2  0  0  0  0
 10 30  1  0  0  0  0
 11 12  1  0  0  0  0
 11 13  1  0  0  0  0
 12 31  1  0  0  0  0
 12 32  1  0  0  0  0
 12 33  1  0  0  0  0
 13 14  2  0  0  0  0
 13 34  1  0  0  0  0
 14  8  1  0  0  0  0
 14 35  1  0  0  0  0
 15 16  1  0  0  0  0
 16 17  1  0  0  0  0
 16 19  1  0  0  0  0
 16 36  1  1  0  0  0
 17 18  1  0  0  0  0
 17 37  1  0  0  0  0
 17 38  1  0  0  0  0
 18 39  1  0  0  0  0
 19 20  1  0  0  0  0
 19 21  1  0  0  0  0
 19 40  1  6  0  0  0
 20 41  1  0  0  0  0
 21 22  1  0  0  0  0
 21  5  1  0  0  0  0
 21 42  1  6  0  0  0
 22 43  1  0  0  0  0
M  END
>  <UniqueID>
201

>  <SMILES>
CC(=O)N[C@H]1[C@H](Oc2ccc(C)cc2)O[C@H](CO)[C@@H](O)[C@H]1O

>  <Energy>
37.85111654017617

>  <Genealogy>
CC(=O)N[C@H]1[C@H](Oc2ccc(C)cc2)O[C@H](CO)[C@@H](O)[C@H]1O (3D coordinates assigned)
CC(=O)N[C@H]1[C@H](Oc2ccc(C)cc2)O[C@H](CO)[C@@H](O)[C@H]1O (nonaromatic ring conformer: 37.85111654017617 kcal/mol)

$$$$
ZINC000001471333
 OpenBabel03032110343D

 43 44  0  0  0  0  0  0  0  0999 V2000
    1.7684   -0.0732    4.3898 H   0  0  0  0  0  0  0  0  0  0  0  0
    1.8268   -0.0925    3.3788 O   0  0  0  0  0  0  0  0  0  0  0  0
    2.7785    0.6642    2.6956 C   0  0  0  0  0  0  0  0  0  0  0  0
    2.8570    0.6195    1.3990 N   0  0  0  0  0  0  0  0  0  0  0  0
    1.9683   -0.1615    0.5341 C   0  0  1  0  0  0  0  0  0  0  0  0
    1.7089   -1.1243    1.0311 H   0  0  0  0  0  0  0  0  0  0  0  0
    0.6707    0.6205    0.2330 C   0  0  2  0  0  0  0  0  0  0  0  0
    0.9287    1.5982   -0.2384 H   0  0  0  0  0  0  0  0  0  0  0  0
   -0.0152    0.8822    1.4558 O   0  0  0  0  0  0  0  0  0  0  0  0
   -1.1717    1.6677    1.5764 C   0  0  0  0  0  0  0  0  0  0  0  0
   -1.7778    2.3006    0.4737 C   0  0  0  0  0  0  0  0  0  0  0  0
   -1.3709    2.2014   -0.5231 H   0  0  0  0  0  0  0  0  0  0  0  0
   -2.9305    3.0720    0.6503 C   0  0  0  0  0  0  0  0  0  0  0  0
   -3.3898    3.5431   -0.2100 H   0  0  0  0  0  0  0  0  0  0  0  0
   -3.4850    3.2352    1.9284 C   0  0  0  0  0  0  0  0  0  0  0  0
   -4.7437    4.0304    2.1105 C   0  0  0  0  0  0  0  0  0  0  0  0
   -5.6224    3.3632    1.9891 H   0  0  0  0  0  0  0  0  0  0  0  0
   -4.8027    4.8477    1.3605 H   0  0  0  0  0  0  0  0  0  0  0  0
   -4.7742    4.4897    3.1215 H   0  0  0  0  0  0  0  0  0  0  0  0
   -2.8900    2.5923    3.0237 C   0  0  0  0  0  0  0  0  0  0  0  0
   -3.3169    2.6887    4.0144 H   0  0  0  0  0  0  0  0  0  0  0  0
   -1.7380    1.8206    2.8470 C   0  0  0  0  0  0  0  0  0  0  0  0
   -1.2840    1.3349    3.7016 H   0  0  0  0  0  0  0  0  0  0  0  0
   -0.1753   -0.1466   -0.6070 O   0  0  0  0  0  0  0  0  0  0  0  0
    0.4109   -0.3199   -1.8860 C   0  0  2  0  0  0  0  0  0  0  0  0
    0.6439    0.6703   -2.3443 H   0  0  0  0  0  0  0  0  0  0  0  0
   -0.6085   -1.0155   -2.7992 C   0  0  0  0  0  0  0  0  0  0  0  0
   -0.8844   -2.0131   -2.3856 H   0  0  0  0  0  0  0  0  0  0  0  0
   -0.1633   -1.1770   -3.8037 H   0  0  0  0  0  0  0  0  0  0  0  0
   -1.7504   -0.2158   -2.9539 O   0  0  0  0  0  0  0  0  0  0  0  0
   -2.3126   -0.3590   -2.1482 H   0  0  0  0  0  0  0  0  0  0  0  0
    1.7064   -1.1640   -1.7621 C   0  0  1  0  0  0  0  0  0  0  0  0
    1.4344   -2.1573   -1.3401 H   0  0  0  0  0  0  0  0  0  0  0  0
    2.3140   -1.3856   -3.0122 O   0  0  0  0  0  0  0  0  0  0  0  0
    2.4370   -0.5048   -3.4531 H   0  0  0  0  0  0  0  0  0  0  0  0
    2.6921   -0.4921   -0.7862 C   0  0  1  0  0  0  0  0  0  0  0  0
    3.5181   -1.2132   -0.5775 H   0  0  0  0  0  0  0  0  0  0  0  0
    3.2123    0.6807   -1.3657 O   0  0  0  0  0  0  0  0  0  0  0  0
    4.1067    0.8334   -0.9628 H   0  0  0  0  0  0  0  0  0  0  0  0
    3.7473    1.5054    3.4621 C   0  0  0  0  0  0  0  0  0  0  0  0
    4.1912    2.2869    2.8089 H   0  0  0  0  0  0  0  0  0  0  0  0
    3.2266    2.0037    4.3063 H   0  0  0  0  0  0  0  0  0  0  0  0
    4.5579    0.8618    3.8623 H   0  0  0  0  0  0  0  0  0  0  0  0
  1  2  1  0  0  0  0
  2  3  1  0  0  0  0
  3  4  2  0  0  0  0
  3 40  1  0  0  0  0
  4  5  1  0  0  0  0
  5  6  1  1  0  0  0
  5  7  1  0  0  0  0
  7  8  1  6  0  0  0
  7  9  1  0  0  0  0
  7 24  1  0  0  0  0
  9 10  1  0  0  0  0
 10 11  2  0  0  0  0
 11 12  1  0  0  0  0
 11 13  1  0  0  0  0
 13 14  1  0  0  0  0
 13 15  2  0  0  0  0
 15 16  1  0  0  0  0
 15 20  1  0  0  0  0
 16 17  1  0  0  0  0
 16 18  1  0  0  0  0
 16 19  1  0  0  0  0
 20 21  1  0  0  0  0
 20 22  2  0  0  0  0
 22 23  1  0  0  0  0
 22 10  1  0  0  0  0
 24 25  1  0  0  0  0
 25 26  1  6  0  0  0
 25 27  1  0  0  0  0
 25 32  1  0  0  0  0
 27 28  1  0  0  0  0
 27 29  1  0  0  0  0
 27 30  1  0  0  0  0
 30 31  1  0  0  0  0
 32 33  1  1  0  0  0
 32 34  1  0  0  0  0
 32 36  1  0  0  0  0
 34 35  1  0  0  0  0
 36 37  1  1  0  0  0
 36 38  1  0  0  0  0
 36  5  1  0  0  0  0
 38 39  1  0  0  0  0
 40 41  1  0  0  0  0
 40 42  1  0  0  0  0
 40 43  1  0  0  0  0
M  END
>  <UniqueID>
202

>  <SMILES>
C/C(O)=N/[C@H]1[C@H](Oc2ccc(C)cc2)O[C@H](CO)[C@@H](O)[C@H]1O

>  <Energy>
39.146357771489974

>  <Genealogy>
CC(O)=N[C@H]1[C@H](Oc2ccc(C)cc2)O[C@H](CO)[C@@H](O)[C@H]1O (tautomer)
C/C(O)=N/[C@H]1[C@H](Oc2ccc(C)cc2)O[C@H](CO)[C@@H](O)[C@H]1O (cis-trans isomerization)
C/C(O)=N/[C@H]1[C@H](Oc2ccc(C)cc2)O[C@H](CO)[C@@H](O)[C@H]1O (3D coordinates assigned)
C/C(O)=N/[C@H]1[C@H](Oc2ccc(C)cc2)O[C@H](CO)[C@@H](O)[C@H]1O (nonaromatic ring conformer: 39.146357771489974 kcal/mol)

$$$$
ZINC000003956714
 OpenBabel03032110343D

 43 44  0  0  0  0  0  0  0  0999 V2000
   -1.2297   -2.9513    3.1016 H   0  0  0  0  0  0  0  0  0  0  0  0
   -1.0834   -2.1532    2.4954 O   0  0  0  0  0  0  0  0  0  0  0  0
   -0.2884   -2.2450    1.3528 C   0  0  0  0  0  0  0  0  0  0  0  0
   -0.0905   -1.2059    0.5997 N   0  0  0  0  0  0  0  0  0  0  0  0
   -0.6769    0.1157    0.8326 C   0  0  1  0  0  0  0  0  0  0  0  0
   -0.5870    0.3721    1.9135 H   0  0  0  0  0  0  0  0  0  0  0  0
    0.1153    1.1727    0.0376 C   0  0  1  0  0  0  0  0  0  0  0  0
    1.1238    1.2011    0.5155 H   0  0  0  0  0  0  0  0  0  0  0  0
    0.1730    0.8192   -1.3403 O   0  0  0  0  0  0  0  0  0  0  0  0
    1.4815    0.9485   -1.8600 C   0  0  0  0  0  0  0  0  0  0  0  0
    1.9886    1.8752   -1.5022 H   0  0  0  0  0  0  0  0  0  0  0  0
    1.4042    1.0558   -2.9625 H   0  0  0  0  0  0  0  0  0  0  0  0
    2.2839   -0.2903   -1.5608 C   0  0  0  0  0  0  0  0  0  0  0  0
    1.9361   -1.5118   -2.1604 C   0  0  0  0  0  0  0  0  0  0  0  0
    1.1115   -1.5621   -2.8607 H   0  0  0  0  0  0  0  0  0  0  0  0
    2.6435   -2.6766   -1.8477 C   0  0  0  0  0  0  0  0  0  0  0  0
    2.3693   -3.6161   -2.3098 H   0  0  0  0  0  0  0  0  0  0  0  0
    3.6974   -2.6310   -0.9312 C   0  0  0  0  0  0  0  0  0  0  0  0
    4.2406   -3.5344   -0.6863 H   0  0  0  0  0  0  0  0  0  0  0  0
    4.0469   -1.4200   -0.3275 C   0  0  0  0  0  0  0  0  0  0  0  0
    4.8606   -1.3868    0.3853 H   0  0  0  0  0  0  0  0  0  0  0  0
    3.3432   -0.2523   -0.6389 C   0  0  0  0  0  0  0  0  0  0  0  0
    3.6185    0.6768   -0.1556 H   0  0  0  0  0  0  0  0  0  0  0  0
   -0.4490    2.4647    0.1999 O   0  0  0  0  0  0  0  0  0  0  0  0
   -1.7812    2.5262   -0.2894 C   0  0  2  0  0  0  0  0  0  0  0  0
   -1.8175    2.2542   -1.3696 H   0  0  0  0  0  0  0  0  0  0  0  0
   -2.2706    3.9780   -0.1777 C   0  0  0  0  0  0  0  0  0  0  0  0
   -2.2622    4.3106    0.8863 H   0  0  0  0  0  0  0  0  0  0  0  0
   -3.3156    4.0527   -0.5463 H   0  0  0  0  0  0  0  0  0  0  0  0
   -1.4735    4.8238   -0.9629 O   0  0  0  0  0  0  0  0  0  0  0  0
   -0.6619    5.0301   -0.4297 H   0  0  0  0  0  0  0  0  0  0  0  0
   -2.7008    1.5780    0.5144 C   0  0  1  0  0  0  0  0  0  0  0  0
   -2.6973    1.9063    1.5813 H   0  0  0  0  0  0  0  0  0  0  0  0
   -4.0106    1.6339    0.0089 O   0  0  0  0  0  0  0  0  0  0  0  0
   -4.5995    1.2251    0.6958 H   0  0  0  0  0  0  0  0  0  0  0  0
   -2.1659    0.1348    0.4405 C   0  0  1  0  0  0  0  0  0  0  0  0
   -2.7288   -0.4923    1.1713 H   0  0  0  0  0  0  0  0  0  0  0  0
   -2.3273   -0.3853   -0.8570 O   0  0  0  0  0  0  0  0  0  0  0  0
   -3.2587   -0.7226   -0.9213 H   0  0  0  0  0  0  0  0  0  0  0  0
    0.3814   -3.5347    1.0032 C   0  0  0  0  0  0  0  0  0  0  0  0
    1.4428   -3.4993    1.3256 H   0  0  0  0  0  0  0  0  0  0  0  0
   -0.1246   -4.3841    1.5075 H   0  0  0  0  0  0  0  0  0  0  0  0
    0.3390   -3.7003   -0.0942 H   0  0  0  0  0  0  0  0  0  0  0  0
  1  2  1  0  0  0  0
  2  3  1  0  0  0  0
  3  4  2  0  0  0  0
  3 40  1  0  0  0  0
  4  5  1  0  0  0  0
  5  6  1  1  0  0  0
  5  7  1  0  0  0  0
  7  8  1  1  0  0  0
  7  9  1  0  0  0  0
  7 24  1  0  0  0  0
  9 10  1  0  0  0  0
 10 11  1  0  0  0  0
 10 12  1  0  0  0  0
 10 13  1  0  0  0  0
 13 14  2  0  0  0  0
 14 15  1  0  0  0  0
 14 16  1  0  0  0  0
 16 17  1  0  0  0  0
 16 18  2  0  0  0  0
 18 19  1  0  0  0  0
 18 20  1  0  0  0  0
 20 21  1  0  0  0  0
 20 22  2  0  0  0  0
 22 23  1  0  0  0  0
 22 13  1  0  0  0  0
 24 25  1  0  0  0  0
 25 26  1  6  0  0  0
 25 27  1  0  0  0  0
 25 32  1  0  0  0  0
 27 28  1  0  0  0  0
 27 29  1  0  0  0  0
 27 30  1  0  0  0  0
 30 31  1  0  0  0  0
 32 33  1  1  0  0  0
 32 34  1  0  0  0  0
 32 36  1  0  0  0  0
 34 35  1  0  0  0  0
 36 37  1  1  0  0  0
 36 38  1  0  0  0  0
 36  5  1  0  0  0  0
 38 39  1  0  0  0  0
 40 41  1  0  0  0  0
 40 42  1  0  0  0  0
 40 43  1  0  0  0  0
M  END
>  <UniqueID>
203

>  <SMILES>
C/C(O)=N/[C@H]1[C@@H](OCc2ccccc2)O[C@H](CO)[C@@H](O)[C@H]1O

>  <Energy>
41.876171255463774

>  <Genealogy>
CC(O)=N[C@H]1[C@@H](OCc2ccccc2)O[C@H](CO)[C@@H](O)[C@H]1O (tautomer)
C/C(O)=N/[C@H]1[C@@H](OCc2ccccc2)O[C@H](CO)[C@@H](O)[C@H]1O (cis-trans isomerization)
C/C(O)=N/[C@H]1[C@@H](OCc2ccccc2)O[C@H](CO)[C@@H](O)[C@H]1O (3D coordinates assigned)
C/C(O)=N/[C@H]1[C@@H](OCc2ccccc2)O[C@H](CO)[C@@H](O)[C@H]1O (nonaromatic ring conformer: 41.876171255463774 kcal/mol)

$$$$
ZINC000003956714
 OpenBabel03032110343D

 43 44  0  0  0  0  0  0  0  0999 V2000
    4.7113    1.1835    0.5310 C   0  0  0  0  0  0  0  0  0  0  0  0
    3.4939    0.3297    0.3899 C   0  0  0  0  0  0  0  0  0  0  0  0
    3.4909   -0.8351    0.8731 O   0  0  0  0  0  0  0  0  0  0  0  0
    2.3465    0.8322   -0.3088 N   0  0  0  0  0  0  0  0  0  0  0  0
    1.1429    0.0219   -0.5438 C   0  0  1  0  0  0  0  0  0  0  0  0
   -0.1106    0.9153   -0.6025 C   0  0  1  0  0  0  0  0  0  0  0  0
   -0.1612    1.6836    0.5867 O   0  0  0  0  0  0  0  0  0  0  0  0
   -1.4646    2.1860    0.8144 C   0  0  0  0  0  0  0  0  0  0  0  0
   -2.2809    1.1889    1.5929 C   0  0  0  0  0  0  0  0  0  0  0  0
   -3.3766    0.5409    0.9985 C   0  0  0  0  0  0  0  0  0  0  0  0
   -4.1139   -0.4015    1.7222 C   0  0  0  0  0  0  0  0  0  0  0  0
   -3.7613   -0.7054    3.0401 C   0  0  0  0  0  0  0  0  0  0  0  0
   -2.6695   -0.0682    3.6361 C   0  0  0  0  0  0  0  0  0  0  0  0
   -1.9294    0.8747    2.9157 C   0  0  0  0  0  0  0  0  0  0  0  0
   -0.0632    1.7937   -1.7200 O   0  0  0  0  0  0  0  0  0  0  0  0
   -0.0290    1.1058   -2.9661 C   0  0  2  0  0  0  0  0  0  0  0  0
   -1.3747    0.4381   -3.3250 C   0  0  0  0  0  0  0  0  0  0  0  0
   -2.4201    1.3686   -3.2438 O   0  0  0  0  0  0  0  0  0  0  0  0
    1.1766    0.1423   -3.0784 C   0  0  1  0  0  0  0  0  0  0  0  0
    2.3550    0.8999   -3.2014 O   0  0  0  0  0  0  0  0  0  0  0  0
    1.2586   -0.7856   -1.8485 C   0  0  1  0  0  0  0  0  0  0  0  0
    2.4535   -1.5237   -1.8580 O   0  0  0  0  0  0  0  0  0  0  0  0
    5.1890    1.3121   -0.4627 H   0  0  0  0  0  0  0  0  0  0  0  0
    5.4399    0.7142    1.2262 H   0  0  0  0  0  0  0  0  0  0  0  0
    4.4251    2.1789    0.9309 H   0  0  0  0  0  0  0  0  0  0  0  0
    2.3879    1.8070   -0.6845 H   0  0  0  0  0  0  0  0  0  0  0  0
    1.0062   -0.6887    0.3022 H   0  0  0  0  0  0  0  0  0  0  0  0
   -0.9978    0.2429   -0.6578 H   0  0  0  0  0  0  0  0  0  0  0  0
   -1.3743    3.1108    1.4224 H   0  0  0  0  0  0  0  0  0  0  0  0
   -1.9781    2.4956   -0.1258 H   0  0  0  0  0  0  0  0  0  0  0  0
   -3.6583    0.7611   -0.0231 H   0  0  0  0  0  0  0  0  0  0  0  0
   -4.9574   -0.8985    1.2604 H   0  0  0  0  0  0  0  0  0  0  0  0
   -4.3322   -1.4360    3.5983 H   0  0  0  0  0  0  0  0  0  0  0  0
   -2.3950   -0.3066    4.6557 H   0  0  0  0  0  0  0  0  0  0  0  0
   -1.0820    1.3582    3.3861 H   0  0  0  0  0  0  0  0  0  0  0  0
    0.1241    1.8844   -3.7461 H   0  0  0  0  0  0  0  0  0  0  0  0
   -1.5883   -0.4503   -2.6915 H   0  0  0  0  0  0  0  0  0  0  0  0
   -1.3238    0.0712   -4.3723 H   0  0  0  0  0  0  0  0  0  0  0  0
   -2.6973    1.4038   -2.2920 H   0  0  0  0  0  0  0  0  0  0  0  0
    1.0468   -0.4837   -3.9934 H   0  0  0  0  0  0  0  0  0  0  0  0
    3.0327    0.3184   -3.6351 H   0  0  0  0  0  0  0  0  0  0  0  0
    0.4004   -1.4972   -1.8816 H   0  0  0  0  0  0  0  0  0  0  0  0
    2.3703   -2.1940   -2.5860 H   0  0  0  0  0  0  0  0  0  0  0  0
  1  2  1  0  0  0  0
  1 23  1  0  0  0  0
  1 24  1  0  0  0  0
  1 25  1  0  0  0  0
  2  3  2  0  0  0  0
  2  4  1  0  0  0  0
  4  5  1  0  0  0  0
  4 26  1  0  0  0  0
  5  6  1  0  0  0  0
  5 27  1  1  0  0  0
  6  7  1  0  0  0  0
  6 15  1  0  0  0  0
  6 28  1  6  0  0  0
  7  8  1  0  0  0  0
  8  9  1  0  0  0  0
  8 29  1  0  0  0  0
  8 30  1  0  0  0  0
  9 10  2  0  0  0  0
 10 11  1  0  0  0  0
 10 31  1  0  0  0  0
 11 12  2  0  0  0  0
 11 32  1  0  0  0  0
 12 13  1  0  0  0  0
 12 33  1  0  0  0  0
 13 14  2  0  0  0  0
 13 34  1  0  0  0  0
 14  9  1  0  0  0  0
 14 35  1  0  0  0  0
 15 16  1  0  0  0  0
 16 17  1  0  0  0  0
 16 19  1  0  0  0  0
 16 36  1  6  0  0  0
 17 18  1  0  0  0  0
 17 37  1  0  0  0  0
 17 38  1  0  0  0  0
 18 39  1  0  0  0  0
 19 20  1  0  0  0  0
 19 21  1  0  0  0  0
 19 40  1  6  0  0  0
 20 41  1  0  0  0  0
 21 22  1  0  0  0  0
 21  5  1  0  0  0  0
 21 42  1  6  0  0  0
 22 43  1  0  0  0  0
M  END
>  <UniqueID>
204

>  <SMILES>
CC(=O)N[C@H]1[C@@H](OCc2ccccc2)O[C@H](CO)[C@@H](O)[C@H]1O

>  <Energy>
45.26628241491866

>  <Genealogy>
CC(=O)N[C@H]1[C@@H](OCc2ccccc2)O[C@H](CO)[C@@H](O)[C@H]1O (3D coordinates assigned)
CC(=O)N[C@H]1[C@@H](OCc2ccccc2)O[C@H](CO)[C@@H](O)[C@H]1O (nonaromatic ring conformer: 45.26628241491866 kcal/mol)

$$$$
ZINC000004027857
 OpenBabel03032110343D

 41 43  0  0  0  0  0  0  0  0999 V2000
   -2.3240   -1.2921   -5.6588 C   0  0  0  0  0  0  0  0  0  0  0  0
   -1.6807   -0.5277   -4.5482 C   0  0  0  0  0  0  0  0  0  0  0  0
   -0.4628   -0.2126   -4.6328 O   0  0  0  0  0  0  0  0  0  0  0  0
   -2.4443   -0.1771   -3.3859 N   0  0  0  0  0  0  0  0  0  0  0  0
   -1.8543    0.5302   -2.2433 C   0  0  2  0  0  0  0  0  0  0  0  0
   -0.9665   -0.4243   -1.4122 C   0  0  2  0  0  0  0  0  0  0  0  0
   -1.6822   -1.5824   -1.0571 O   0  0  0  0  0  0  0  0  0  0  0  0
   -0.4936    0.2983   -0.1440 C   0  0  2  0  0  0  0  0  0  0  0  0
    0.2216   -0.5950    0.6909 O   0  0  0  0  0  0  0  0  0  0  0  0
    0.4192   -0.0767    2.0066 C   0  0  1  0  0  0  0  0  0  0  0  0
    1.8427   -0.3422    2.4177 C   0  0  0  0  0  0  0  0  0  0  0  0
    2.9031    0.1514    1.6375 C   0  0  0  0  0  0  0  0  0  0  0  0
    4.2280   -0.0814    2.0188 C   0  0  0  0  0  0  0  0  0  0  0  0
    4.5053   -0.8036    3.1824 C   0  0  0  0  0  0  0  0  0  0  0  0
    3.4582   -1.2926    3.9678 C   0  0  0  0  0  0  0  0  0  0  0  0
    2.1313   -1.0625    3.5905 C   0  0  0  0  0  0  0  0  0  0  0  0
    0.1774    1.3211    2.1055 O   0  0  0  0  0  0  0  0  0  0  0  0
   -1.1909    1.5970    1.8650 C   0  0  0  0  0  0  0  0  0  0  0  0
   -1.7051    0.8975    0.5934 C   0  0  1  0  0  0  0  0  0  0  0  0
   -2.3842    1.8212   -0.2396 O   0  0  0  0  0  0  0  0  0  0  0  0
   -2.9573    1.1484   -1.3512 C   0  0  1  0  0  0  0  0  0  0  0  0
   -3.6878    2.0732   -2.1104 O   0  0  0  0  0  0  0  0  0  0  0  0
   -2.5362   -2.3273   -5.3195 H   0  0  0  0  0  0  0  0  0  0  0  0
   -1.6561   -1.3304   -6.5456 H   0  0  0  0  0  0  0  0  0  0  0  0
   -3.2760   -0.8003   -5.9491 H   0  0  0  0  0  0  0  0  0  0  0  0
   -3.4601   -0.4248   -3.3694 H   0  0  0  0  0  0  0  0  0  0  0  0
   -1.2233    1.3654   -2.6239 H   0  0  0  0  0  0  0  0  0  0  0  0
   -0.0633   -0.7026   -2.0045 H   0  0  0  0  0  0  0  0  0  0  0  0
   -1.6191   -2.2091   -1.8243 H   0  0  0  0  0  0  0  0  0  0  0  0
    0.1907    1.1210   -0.4594 H   0  0  0  0  0  0  0  0  0  0  0  0
   -0.2630   -0.6259    2.6976 H   0  0  0  0  0  0  0  0  0  0  0  0
    2.7021    0.7154    0.7349 H   0  0  0  0  0  0  0  0  0  0  0  0
    5.0398    0.2991    1.4125 H   0  0  0  0  0  0  0  0  0  0  0  0
    5.5315   -0.9826    3.4763 H   0  0  0  0  0  0  0  0  0  0  0  0
    3.6746   -1.8492    4.8705 H   0  0  0  0  0  0  0  0  0  0  0  0
    1.3326   -1.4462    4.2131 H   0  0  0  0  0  0  0  0  0  0  0  0
   -1.3010    2.6975    1.7598 H   0  0  0  0  0  0  0  0  0  0  0  0
   -1.7991    1.2967    2.7475 H   0  0  0  0  0  0  0  0  0  0  0  0
   -2.3926    0.0796    0.9164 H   0  0  0  0  0  0  0  0  0  0  0  0
   -3.6537    0.3451   -1.0068 H   0  0  0  0  0  0  0  0  0  0  0  0
   -4.4496    2.3622   -1.5434 H   0  0  0  0  0  0  0  0  0  0  0  0
  1  2  1  0  0  0  0
  1 23  1  0  0  0  0
  1 24  1  0  0  0  0
  1 25  1  0  0  0  0
  2  3  2  0  0  0  0
  2  4  1  0  0  0  0
  4  5  1  0  0  0  0
  4 26  1  0  0  0  0
  5  6  1  0  0  0  0
  5 27  1  6  0  0  0
  6  7  1  0  0  0  0
  6  8  1  0  0  0  0
  6 28  1  6  0  0  0
  7 29  1  0  0  0  0
  8  9  1  0  0  0  0
  8 30  1  6  0  0  0
  9 10  1  0  0  0  0
 10 11  1  0  0  0  0
 10 17  1  0  0  0  0
 10 31  1  1  0  0  0
 11 12  2  0  0  0  0
 12 13  1  0  0  0  0
 12 32  1  0  0  0  0
 13 14  2  0  0  0  0
 13 33  1  0  0  0  0
 14 15  1  0  0  0  0
 14 34  1  0  0  0  0
 15 16  2  0  0  0  0
 15 35  1  0  0  0  0
 16 11  1  0  0  0  0
 16 36  1  0  0  0  0
 17 18  1  0  0  0  0
 18 19  1  0  0  0  0
 18 37  1  0  0  0  0
 18 38  1  0  0  0  0
 19 20  1  0  0  0  0
 19  8  1  0  0  0  0
 19 39  1  1  0  0  0
 20 21  1  0  0  0  0
 21 22  1  0  0  0  0
 21  5  1  0  0  0  0
 21 40  1  1  0  0  0
 22 41  1  0  0  0  0
M  END
>  <UniqueID>
205

>  <SMILES>
CC(=O)N[C@@H]1[C@H](O)[C@@H]2O[C@@H](c3ccccc3)OC[C@H]2O[C@H]1O

>  <Energy>
53.19337877560101

>  <Genealogy>
CC(=O)N[C@@H]1[C@H](O)[C@@H]2O[C@@H](c3ccccc3)OC[C@H]2O[C@H]1O (3D coordinates assigned)
CC(=O)N[C@@H]1[C@H](O)[C@@H]2O[C@@H](c3ccccc3)OC[C@H]2O[C@H]1O (nonaromatic ring conformer: 53.19337877560101 kcal/mol)

$$$$
ZINC000004027857
 OpenBabel03032110343D

 41 43  0  0  0  0  0  0  0  0999 V2000
   -4.1956    1.3019   -1.9874 H   0  0  0  0  0  0  0  0  0  0  0  0
   -4.9127    1.5590   -1.3244 O   0  0  0  0  0  0  0  0  0  0  0  0
   -4.7290    1.5631    0.0611 C   0  0  0  0  0  0  0  0  0  0  0  0
   -3.5913    1.2631    0.6211 N   0  0  0  0  0  0  0  0  0  0  0  0
   -2.3286    0.9305   -0.0456 C   0  0  2  0  0  0  0  0  0  0  0  0
   -2.5187    0.3452   -0.9711 H   0  0  0  0  0  0  0  0  0  0  0  0
   -1.4910    0.0325    0.8879 C   0  0  2  0  0  0  0  0  0  0  0  0
   -1.9948   -0.9606    0.9623 H   0  0  0  0  0  0  0  0  0  0  0  0
   -1.4010    0.6181    2.1645 O   0  0  0  0  0  0  0  0  0  0  0  0
   -1.1933   -0.1124    2.8039 H   0  0  0  0  0  0  0  0  0  0  0  0
   -0.0907   -0.1609    0.2854 C   0  0  2  0  0  0  0  0  0  0  0  0
   -0.2185   -0.7247   -0.6683 H   0  0  0  0  0  0  0  0  0  0  0  0
    0.7354   -0.8885    1.1739 O   0  0  0  0  0  0  0  0  0  0  0  0
    2.0462   -1.0615    0.6400 C   0  0  1  0  0  0  0  0  0  0  0  0
    2.6477   -1.5110    1.4575 H   0  0  0  0  0  0  0  0  0  0  0  0
    2.1127   -2.0770   -0.4935 C   0  0  0  0  0  0  0  0  0  0  0  0
    1.1914   -3.1403   -0.5535 C   0  0  0  0  0  0  0  0  0  0  0  0
    0.3966   -3.2241    0.1768 H   0  0  0  0  0  0  0  0  0  0  0  0
    1.2868   -4.1051   -1.5608 C   0  0  0  0  0  0  0  0  0  0  0  0
    0.5655   -4.9108   -1.6074 H   0  0  0  0  0  0  0  0  0  0  0  0
    2.3170   -4.0371   -2.5010 C   0  0  0  0  0  0  0  0  0  0  0  0
    2.3908   -4.7865   -3.2784 H   0  0  0  0  0  0  0  0  0  0  0  0
    3.2611   -3.0107   -2.4282 C   0  0  0  0  0  0  0  0  0  0  0  0
    4.0694   -2.9687   -3.1468 H   0  0  0  0  0  0  0  0  0  0  0  0
    3.1698   -2.0433   -1.4230 C   0  0  0  0  0  0  0  0  0  0  0  0
    3.9247   -1.2690   -1.3730 H   0  0  0  0  0  0  0  0  0  0  0  0
    2.6780    0.1792    0.3314 O   0  0  0  0  0  0  0  0  0  0  0  0
    1.9117    0.9510   -0.5735 C   0  0  0  0  0  0  0  0  0  0  0  0
    1.8505    0.4549   -1.5680 H   0  0  0  0  0  0  0  0  0  0  0  0
    2.4234    1.9248   -0.7257 H   0  0  0  0  0  0  0  0  0  0  0  0
    0.5237    1.2087   -0.0086 C   0  0  1  0  0  0  0  0  0  0  0  0
    0.6446    1.7991    0.9307 H   0  0  0  0  0  0  0  0  0  0  0  0
   -0.2647    1.9122   -0.9504 O   0  0  0  0  0  0  0  0  0  0  0  0
   -1.5354    2.2211   -0.3907 C   0  0  1  0  0  0  0  0  0  0  0  0
   -1.4046    2.8293    0.5341 H   0  0  0  0  0  0  0  0  0  0  0  0
   -2.2590    3.0118   -1.2958 O   0  0  0  0  0  0  0  0  0  0  0  0
   -2.1843    2.5798   -2.1866 H   0  0  0  0  0  0  0  0  0  0  0  0
   -5.8932    1.8923    0.9337 C   0  0  0  0  0  0  0  0  0  0  0  0
   -6.2642    0.9675    1.4227 H   0  0  0  0  0  0  0  0  0  0  0  0
   -6.7122    2.3355    0.3291 H   0  0  0  0  0  0  0  0  0  0  0  0
   -5.5894    2.6232    1.7128 H   0  0  0  0  0  0  0  0  0  0  0  0
  1  2  1  0  0  0  0
  2  3  1  0  0  0  0
  3  4  2  0  0  0  0
  3 38  1  0  0  0  0
  4  5  1  0  0  0  0
  5  6  1  6  0  0  0
  5  7  1  0  0  0  0
  7  8  1  1  0  0  0
  7  9  1  0  0  0  0
  7 11  1  0  0  0  0
  9 10  1  0  0  0  0
 11 12  1  6  0  0  0
 11 13  1  0  0  0  0
 13 14  1  0  0  0  0
 14 15  1  1  0  0  0
 14 16  1  0  0  0  0
 14 27  1  0  0  0  0
 16 17  2  0  0  0  0
 17 18  1  0  0  0  0
 17 19  1  0  0  0  0
 19 20  1  0  0  0  0
 19 21  2  0  0  0  0
 21 22  1  0  0  0  0
 21 23  1  0  0  0  0
 23 24  1  0  0  0  0
 23 25  2  0  0  0  0
 25 26  1  0  0  0  0
 25 16  1  0  0  0  0
 27 28  1  0  0  0  0
 28 29  1  0  0  0  0
 28 30  1  0  0  0  0
 28 31  1  0  0  0  0
 31 32  1  1  0  0  0
 31 33  1  0  0  0  0
 31 11  1  0  0  0  0
 33 34  1  0  0  0  0
 34 35  1  1  0  0  0
 34 36  1  0  0  0  0
 34  5  1  0  0  0  0
 36 37  1  0  0  0  0
 38 39  1  0  0  0  0
 38 40  1  0  0  0  0
 38 41  1  0  0  0  0
M  END
>  <UniqueID>
206

>  <SMILES>
C/C(O)=N/[C@@H]1[C@H](O)[C@@H]2O[C@@H](c3ccccc3)OC[C@H]2O[C@H]1O

>  <Energy>
54.732051263083335

>  <Genealogy>
CC(O)=N[C@@H]1[C@H](O)[C@@H]2O[C@@H](c3ccccc3)OC[C@H]2O[C@H]1O (tautomer)
C/C(O)=N/[C@@H]1[C@H](O)[C@@H]2O[C@@H](c3ccccc3)OC[C@H]2O[C@H]1O (cis-trans isomerization)
C/C(O)=N/[C@@H]1[C@H](O)[C@@H]2O[C@@H](c3ccccc3)OC[C@H]2O[C@H]1O (3D coordinates assigned)
C/C(O)=N/[C@@H]1[C@H](O)[C@@H]2O[C@@H](c3ccccc3)OC[C@H]2O[C@H]1O (nonaromatic ring conformer: 54.732051263083335 kcal/mol)

$$$$
ZINC000004027859
 OpenBabel03032110343D

 41 43  0  0  0  0  0  0  0  0999 V2000
    5.3451    2.6000   -0.4069 C   0  0  0  0  0  0  0  0  0  0  0  0
    4.1964    1.7598   -0.8608 C   0  0  0  0  0  0  0  0  0  0  0  0
    3.6267    2.0231   -1.9543 O   0  0  0  0  0  0  0  0  0  0  0  0
    3.7751    0.6383   -0.0722 N   0  0  0  0  0  0  0  0  0  0  0  0
    2.6369   -0.2066   -0.4533 C   0  0  2  0  0  0  0  0  0  0  0  0
    1.3060    0.5347   -0.1951 C   0  0  2  0  0  0  0  0  0  0  0  0
    1.2767    1.0170    1.1262 O   0  0  0  0  0  0  0  0  0  0  0  0
    0.1382   -0.4323   -0.4431 C   0  0  2  0  0  0  0  0  0  0  0  0
   -1.0957    0.1662   -0.0997 O   0  0  0  0  0  0  0  0  0  0  0  0
   -2.1541   -0.7454   -0.3629 C   0  0  2  0  0  0  0  0  0  0  0  0
   -3.4576   -0.0613   -0.0456 C   0  0  0  0  0  0  0  0  0  0  0  0
   -3.6992    0.4241    1.2518 C   0  0  0  0  0  0  0  0  0  0  0  0
   -4.9074    1.0593    1.5547 C   0  0  0  0  0  0  0  0  0  0  0  0
   -5.8838    1.2144    0.5674 C   0  0  0  0  0  0  0  0  0  0  0  0
   -5.6538    0.7344   -0.7246 C   0  0  0  0  0  0  0  0  0  0  0  0
   -4.4469    0.0985   -1.0326 C   0  0  0  0  0  0  0  0  0  0  0  0
   -2.0473   -1.9038    0.4533 O   0  0  0  0  0  0  0  0  0  0  0  0
   -0.8561   -2.6043    0.1502 C   0  0  0  0  0  0  0  0  0  0  0  0
    0.3537   -1.7047    0.3867 C   0  0  1  0  0  0  0  0  0  0  0  0
    1.5448   -2.3551   -0.0148 O   0  0  0  0  0  0  0  0  0  0  0  0
    2.6686   -1.5510    0.3183 C   0  0  1  0  0  0  0  0  0  0  0  0
    3.8375   -2.2430   -0.0279 O   0  0  0  0  0  0  0  0  0  0  0  0
    6.2903    2.0319   -0.5318 H   0  0  0  0  0  0  0  0  0  0  0  0
    5.4025    3.5364   -1.0016 H   0  0  0  0  0  0  0  0  0  0  0  0
    5.2159    2.8644    0.6635 H   0  0  0  0  0  0  0  0  0  0  0  0
    4.3193    0.4104    0.7912 H   0  0  0  0  0  0  0  0  0  0  0  0
    2.7107   -0.4419   -1.5395 H   0  0  0  0  0  0  0  0  0  0  0  0
    1.2258    1.3861   -0.9107 H   0  0  0  0  0  0  0  0  0  0  0  0
    0.6125    1.7543    1.1502 H   0  0  0  0  0  0  0  0  0  0  0  0
    0.1464   -0.6862   -1.5309 H   0  0  0  0  0  0  0  0  0  0  0  0
   -2.1598   -1.0335   -1.4430 H   0  0  0  0  0  0  0  0  0  0  0  0
   -2.9510    0.3102    2.0268 H   0  0  0  0  0  0  0  0  0  0  0  0
   -5.0868    1.4310    2.5552 H   0  0  0  0  0  0  0  0  0  0  0  0
   -6.8186    1.7062    0.8034 H   0  0  0  0  0  0  0  0  0  0  0  0
   -6.4113    0.8549   -1.4882 H   0  0  0  0  0  0  0  0  0  0  0  0
   -4.2869   -0.2673   -2.0392 H   0  0  0  0  0  0  0  0  0  0  0  0
   -0.7849   -3.4882    0.8187 H   0  0  0  0  0  0  0  0  0  0  0  0
   -0.8763   -2.9814   -0.8981 H   0  0  0  0  0  0  0  0  0  0  0  0
    0.3783   -1.4631    1.4763 H   0  0  0  0  0  0  0  0  0  0  0  0
    2.6908   -1.3488    1.4173 H   0  0  0  0  0  0  0  0  0  0  0  0
    3.8793   -3.0378    0.5655 H   0  0  0  0  0  0  0  0  0  0  0  0
  1  2  1  0  0  0  0
  1 23  1  0  0  0  0
  1 24  1  0  0  0  0
  1 25  1  0  0  0  0
  2  3  2  0  0  0  0
  2  4  1  0  0  0  0
  4  5  1  0  0  0  0
  4 26  1  0  0  0  0
  5  6  1  0  0  0  0
  5 27  1  6  0  0  0
  6  7  1  0  0  0  0
  6  8  1  0  0  0  0
  6 28  1  6  0  0  0
  7 29  1  0  0  0  0
  8  9  1  0  0  0  0
  8 30  1  6  0  0  0
  9 10  1  0  0  0  0
 10 11  1  0  0  0  0
 10 17  1  0  0  0  0
 10 31  1  6  0  0  0
 11 12  2  0  0  0  0
 12 13  1  0  0  0  0
 12 32  1  0  0  0  0
 13 14  2  0  0  0  0
 13 33  1  0  0  0  0
 14 15  1  0  0  0  0
 14 34  1  0  0  0  0
 15 16  2  0  0  0  0
 15 35  1  0  0  0  0
 16 11  1  0  0  0  0
 16 36  1  0  0  0  0
 17 18  1  0  0  0  0
 18 19  1  0  0  0  0
 18 37  1  0  0  0  0
 18 38  1  0  0  0  0
 19 20  1  0  0  0  0
 19  8  1  0  0  0  0
 19 39  1  1  0  0  0
 20 21  1  0  0  0  0
 21 22  1  0  0  0  0
 21  5  1  0  0  0  0
 21 40  1  1  0  0  0
 22 41  1  0  0  0  0
M  END
>  <UniqueID>
207

>  <SMILES>
CC(=O)N[C@@H]1[C@H](O)[C@@H]2O[C@H](c3ccccc3)OC[C@H]2O[C@H]1O

>  <Energy>
45.34578717604753

>  <Genealogy>
CC(=O)N[C@@H]1[C@H](O)[C@@H]2O[C@H](c3ccccc3)OC[C@H]2O[C@H]1O (3D coordinates assigned)
CC(=O)N[C@@H]1[C@H](O)[C@@H]2O[C@H](c3ccccc3)OC[C@H]2O[C@H]1O (nonaromatic ring conformer: 45.34578717604753 kcal/mol)

$$$$
ZINC000004027859
 OpenBabel03032110343D

 41 43  0  0  0  0  0  0  0  0999 V2000
   -5.1724   -3.2063    2.1948 H   0  0  0  0  0  0  0  0  0  0  0  0
   -4.3761   -3.1017    1.5775 O   0  0  0  0  0  0  0  0  0  0  0  0
   -3.2598   -2.3540    1.9438 C   0  0  0  0  0  0  0  0  0  0  0  0
   -2.2680   -2.2738    1.1035 N   0  0  0  0  0  0  0  0  0  0  0  0
   -1.0186   -1.5272    1.2863 C   0  0  2  0  0  0  0  0  0  0  0  0
   -0.7167   -1.5359    2.3572 H   0  0  0  0  0  0  0  0  0  0  0  0
   -1.1922   -0.0628    0.8238 C   0  0  2  0  0  0  0  0  0  0  0  0
   -1.8617    0.4664    1.5391 H   0  0  0  0  0  0  0  0  0  0  0  0
   -1.7547   -0.0315   -0.4654 O   0  0  0  0  0  0  0  0  0  0  0  0
   -2.1582    0.8678   -0.5836 H   0  0  0  0  0  0  0  0  0  0  0  0
    0.1802    0.6282    0.8307 C   0  0  2  0  0  0  0  0  0  0  0  0
    0.5237    0.6681    1.8930 H   0  0  0  0  0  0  0  0  0  0  0  0
    0.0888    1.9382    0.3072 O   0  0  0  0  0  0  0  0  0  0  0  0
    1.3682    2.5561    0.3496 C   0  0  2  0  0  0  0  0  0  0  0  0
    1.7479    2.5928    1.4003 H   0  0  0  0  0  0  0  0  0  0  0  0
    1.2288    3.9677   -0.1560 C   0  0  0  0  0  0  0  0  0  0  0  0
    0.7447    4.2047   -1.4549 C   0  0  0  0  0  0  0  0  0  0  0  0
    0.4691    3.3760   -2.0958 H   0  0  0  0  0  0  0  0  0  0  0  0
    0.6136    5.5124   -1.9321 C   0  0  0  0  0  0  0  0  0  0  0  0
    0.2398    5.6878   -2.9326 H   0  0  0  0  0  0  0  0  0  0  0  0
    0.9648    6.5931   -1.1191 C   0  0  0  0  0  0  0  0  0  0  0  0
    0.8628    7.6048   -1.4900 H   0  0  0  0  0  0  0  0  0  0  0  0
    1.4480    6.3680    0.1726 C   0  0  0  0  0  0  0  0  0  0  0  0
    1.7200    7.2062    0.8010 H   0  0  0  0  0  0  0  0  0  0  0  0
    1.5808    5.0619    0.6546 C   0  0  0  0  0  0  0  0  0  0  0  0
    1.9575    4.9073    1.6580 H   0  0  0  0  0  0  0  0  0  0  0  0
    2.2946    1.8726   -0.4834 O   0  0  0  0  0  0  0  0  0  0  0  0
    2.4924    0.5539   -0.0111 C   0  0  0  0  0  0  0  0  0  0  0  0
    2.9558    0.5632    1.0022 H   0  0  0  0  0  0  0  0  0  0  0  0
    3.1988    0.0353   -0.6932 H   0  0  0  0  0  0  0  0  0  0  0  0
    1.1669   -0.2023   -0.0013 C   0  0  1  0  0  0  0  0  0  0  0  0
    0.8209   -0.2771   -1.0599 H   0  0  0  0  0  0  0  0  0  0  0  0
    1.3308   -1.4876    0.5683 O   0  0  0  0  0  0  0  0  0  0  0  0
    0.1116   -2.2143    0.4774 C   0  0  1  0  0  0  0  0  0  0  0  0
   -0.1991   -2.3040   -0.5894 H   0  0  0  0  0  0  0  0  0  0  0  0
    0.3144   -3.5193    0.9528 O   0  0  0  0  0  0  0  0  0  0  0  0
    0.7142   -3.4420    1.8585 H   0  0  0  0  0  0  0  0  0  0  0  0
   -3.2258   -1.6917    3.2949 C   0  0  0  0  0  0  0  0  0  0  0  0
   -3.0702   -0.5998    3.1903 H   0  0  0  0  0  0  0  0  0  0  0  0
   -4.1854   -1.8489    3.8295 H   0  0  0  0  0  0  0  0  0  0  0  0
   -2.4130   -2.1300    3.9106 H   0  0  0  0  0  0  0  0  0  0  0  0
  1  2  1  0  0  0  0
  2  3  1  0  0  0  0
  3  4  2  0  0  0  0
  3 38  1  0  0  0  0
  4  5  1  0  0  0  0
  5  6  1  1  0  0  0
  5  7  1  0  0  0  0
  7  8  1  1  0  0  0
  7  9  1  0  0  0  0
  7 11  1  0  0  0  0
  9 10  1  0  0  0  0
 11 12  1  1  0  0  0
 11 13  1  0  0  0  0
 13 14  1  0  0  0  0
 14 15  1  1  0  0  0
 14 16  1  0  0  0  0
 14 27  1  0  0  0  0
 16 17  2  0  0  0  0
 17 18  1  0  0  0  0
 17 19  1  0  0  0  0
 19 20  1  0  0  0  0
 19 21  2  0  0  0  0
 21 22  1  0  0  0  0
 21 23  1  0  0  0  0
 23 24  1  0  0  0  0
 23 25  2  0  0  0  0
 25 26  1  0  0  0  0
 25 16  1  0  0  0  0
 27 28  1  0  0  0  0
 28 29  1  0  0  0  0
 28 30  1  0  0  0  0
 28 31  1  0  0  0  0
 31 32  1  6  0  0  0
 31 33  1  0  0  0  0
 31 11  1  0  0  0  0
 33 34  1  0  0  0  0
 34 35  1  6  0  0  0
 34 36  1  0  0  0  0
 34  5  1  0  0  0  0
 36 37  1  0  0  0  0
 38 39  1  0  0  0  0
 38 40  1  0  0  0  0
 38 41  1  0  0  0  0
M  END
>  <UniqueID>
208

>  <SMILES>
C/C(O)=N/[C@@H]1[C@H](O)[C@@H]2O[C@H](c3ccccc3)OC[C@H]2O[C@H]1O

>  <Energy>
48.699882878932875

>  <Genealogy>
CC(O)=N[C@@H]1[C@H](O)[C@@H]2O[C@H](c3ccccc3)OC[C@H]2O[C@H]1O (tautomer)
C/C(O)=N/[C@@H]1[C@H](O)[C@@H]2O[C@H](c3ccccc3)OC[C@H]2O[C@H]1O (cis-trans isomerization)
C/C(O)=N/[C@@H]1[C@H](O)[C@@H]2O[C@H](c3ccccc3)OC[C@H]2O[C@H]1O (3D coordinates assigned)
C/C(O)=N/[C@@H]1[C@H](O)[C@@H]2O[C@H](c3ccccc3)OC[C@H]2O[C@H]1O (nonaromatic ring conformer: 48.699882878932875 kcal/mol)

$$$$
ZINC000012364260
 OpenBabel03032110343D

 41 43  0  0  0  0  0  0  0  0999 V2000
    2.4419   -1.9096    4.2658 C   0  0  0  0  0  0  0  0  0  0  0  0
    1.4876   -1.8232    3.1190 C   0  0  0  0  0  0  0  0  0  0  0  0
    1.7544   -2.4207    2.0410 O   0  0  0  0  0  0  0  0  0  0  0  0
    0.2885   -1.0460    3.2429 N   0  0  0  0  0  0  0  0  0  0  0  0
   -0.6673   -0.8968    2.1379 C   0  0  1  0  0  0  0  0  0  0  0  0
   -2.0418   -0.3851    2.6440 C   0  0  1  0  0  0  0  0  0  0  0  0
   -1.9072    0.8179    3.3682 O   0  0  0  0  0  0  0  0  0  0  0  0
   -2.9591   -0.2162    1.5708 O   0  0  0  0  0  0  0  0  0  0  0  0
   -2.4810    0.7347    0.6307 C   0  0  2  0  0  0  0  0  0  0  0  0
   -3.5236    0.9644   -0.4793 C   0  0  0  0  0  0  0  0  0  0  0  0
   -2.9660    0.7949   -1.7701 O   0  0  0  0  0  0  0  0  0  0  0  0
   -1.7791    1.5701   -1.8954 C   0  0  2  0  0  0  0  0  0  0  0  0
   -1.2778    1.4428   -3.3093 C   0  0  0  0  0  0  0  0  0  0  0  0
   -0.7404    0.2238   -3.7590 C   0  0  0  0  0  0  0  0  0  0  0  0
   -0.2913    0.0931   -5.0765 C   0  0  0  0  0  0  0  0  0  0  0  0
   -0.3893    1.1718   -5.9602 C   0  0  0  0  0  0  0  0  0  0  0  0
   -0.9385    2.3820   -5.5278 C   0  0  0  0  0  0  0  0  0  0  0  0
   -1.3832    2.5193   -4.2089 C   0  0  0  0  0  0  0  0  0  0  0  0
   -0.7362    1.1744   -1.0016 O   0  0  0  0  0  0  0  0  0  0  0  0
   -1.1817    0.2451   -0.0312 C   0  0  1  0  0  0  0  0  0  0  0  0
   -0.1032    0.0296    1.0365 C   0  0  1  0  0  0  0  0  0  0  0  0
    0.2919    1.2675    1.5752 O   0  0  0  0  0  0  0  0  0  0  0  0
    2.9237   -0.9214    4.4191 H   0  0  0  0  0  0  0  0  0  0  0  0
    3.2280   -2.6684    4.0638 H   0  0  0  0  0  0  0  0  0  0  0  0
    1.8951   -2.1982    5.1867 H   0  0  0  0  0  0  0  0  0  0  0  0
    0.0793   -0.6202    4.1734 H   0  0  0  0  0  0  0  0  0  0  0  0
   -0.8436   -1.9016    1.6904 H   0  0  0  0  0  0  0  0  0  0  0  0
   -2.4630   -1.1818    3.3032 H   0  0  0  0  0  0  0  0  0  0  0  0
   -2.0448    0.6098    4.3296 H   0  0  0  0  0  0  0  0  0  0  0  0
   -2.3021    1.7198    1.1217 H   0  0  0  0  0  0  0  0  0  0  0  0
   -4.3571    0.2375   -0.3709 H   0  0  0  0  0  0  0  0  0  0  0  0
   -3.9719    1.9793   -0.3896 H   0  0  0  0  0  0  0  0  0  0  0  0
   -2.0117    2.6421   -1.6926 H   0  0  0  0  0  0  0  0  0  0  0  0
   -0.6653   -0.6233   -3.0879 H   0  0  0  0  0  0  0  0  0  0  0  0
    0.1295   -0.8440   -5.4146 H   0  0  0  0  0  0  0  0  0  0  0  0
   -0.0455    1.0681   -6.9819 H   0  0  0  0  0  0  0  0  0  0  0  0
   -1.0216    3.2144   -6.2165 H   0  0  0  0  0  0  0  0  0  0  0  0
   -1.8074    3.4643   -3.8921 H   0  0  0  0  0  0  0  0  0  0  0  0
   -1.3642   -0.7383   -0.5271 H   0  0  0  0  0  0  0  0  0  0  0  0
    0.7680   -0.4628    0.5443 H   0  0  0  0  0  0  0  0  0  0  0  0
    1.1963    1.1374    1.9633 H   0  0  0  0  0  0  0  0  0  0  0  0
  1  2  1  0  0  0  0
  1 23  1  0  0  0  0
  1 24  1  0  0  0  0
  1 25  1  0  0  0  0
  2  3  2  0  0  0  0
  2  4  1  0  0  0  0
  4  5  1  0  0  0  0
  4 26  1  0  0  0  0
  5  6  1  0  0  0  0
  5 27  1  6  0  0  0
  6  7  1  0  0  0  0
  6  8  1  0  0  0  0
  6 28  1  1  0  0  0
  7 29  1  0  0  0  0
  8  9  1  0  0  0  0
  9 10  1  0  0  0  0
  9 30  1  1  0  0  0
 10 11  1  0  0  0  0
 10 31  1  0  0  0  0
 10 32  1  0  0  0  0
 11 12  1  0  0  0  0
 12 13  1  0  0  0  0
 12 19  1  0  0  0  0
 12 33  1  1  0  0  0
 13 14  2  0  0  0  0
 14 15  1  0  0  0  0
 14 34  1  0  0  0  0
 15 16  2  0  0  0  0
 15 35  1  0  0  0  0
 16 17  1  0  0  0  0
 16 36  1  0  0  0  0
 17 18  2  0  0  0  0
 17 37  1  0  0  0  0
 18 13  1  0  0  0  0
 18 38  1  0  0  0  0
 19 20  1  0  0  0  0
 20 21  1  0  0  0  0
 20  9  1  0  0  0  0
 20 39  1  6  0  0  0
 21 22  1  0  0  0  0
 21  5  1  0  0  0  0
 21 40  1  6  0  0  0
 22 41  1  0  0  0  0
M  END
>  <UniqueID>
209

>  <SMILES>
CC(=O)N[C@H]1[C@@H](O)O[C@@H]2CO[C@H](c3ccccc3)O[C@H]2[C@H]1O

>  <Energy>
56.42878247662942

>  <Genealogy>
CC(=O)N[C@H]1[C@@H](O)O[C@@H]2CO[C@H](c3ccccc3)O[C@H]2[C@H]1O (3D coordinates assigned)
CC(=O)N[C@H]1[C@@H](O)O[C@@H]2CO[C@H](c3ccccc3)O[C@H]2[C@H]1O (nonaromatic ring conformer: 56.42878247662942 kcal/mol)

$$$$
ZINC000012364260
 OpenBabel03032110343D

 41 43  0  0  0  0  0  0  0  0999 V2000
    0.3263    0.2175   -6.4554 H   0  0  0  0  0  0  0  0  0  0  0  0
    1.0305    0.8338   -6.0667 O   0  0  0  0  0  0  0  0  0  0  0  0
    0.8810    1.3874   -4.7983 C   0  0  0  0  0  0  0  0  0  0  0  0
   -0.1908    1.1110   -4.1097 N   0  0  0  0  0  0  0  0  0  0  0  0
   -0.5126    1.5786   -2.7570 C   0  0  1  0  0  0  0  0  0  0  0  0
   -0.1341    2.6153   -2.6164 H   0  0  0  0  0  0  0  0  0  0  0  0
   -2.0498    1.6398   -2.5757 C   0  0  1  0  0  0  0  0  0  0  0  0
   -2.4363    2.4279   -3.2632 H   0  0  0  0  0  0  0  0  0  0  0  0
   -2.6630    0.4135   -2.8979 O   0  0  0  0  0  0  0  0  0  0  0  0
   -2.7369    0.3737   -3.8871 H   0  0  0  0  0  0  0  0  0  0  0  0
   -2.4022    2.0397   -1.2585 O   0  0  0  0  0  0  0  0  0  0  0  0
   -1.9090    1.1229   -0.2938 C   0  0  2  0  0  0  0  0  0  0  0  0
   -2.3061    0.0985   -0.4836 H   0  0  0  0  0  0  0  0  0  0  0  0
   -2.3677    1.5342    1.1177 C   0  0  0  0  0  0  0  0  0  0  0  0
   -3.1637    0.8480    1.4843 H   0  0  0  0  0  0  0  0  0  0  0  0
   -2.8122    2.5520    1.0871 H   0  0  0  0  0  0  0  0  0  0  0  0
   -1.2921    1.5612    2.0388 O   0  0  0  0  0  0  0  0  0  0  0  0
   -0.5355    0.3611    1.9425 C   0  0  2  0  0  0  0  0  0  0  0  0
   -1.2067   -0.5180    2.0872 H   0  0  0  0  0  0  0  0  0  0  0  0
    0.5022    0.3649    3.0328 C   0  0  0  0  0  0  0  0  0  0  0  0
    1.5210    1.3338    3.0294 C   0  0  0  0  0  0  0  0  0  0  0  0
    1.5676    2.0762    2.2421 H   0  0  0  0  0  0  0  0  0  0  0  0
    2.4845    1.3486    4.0426 C   0  0  0  0  0  0  0  0  0  0  0  0
    3.2671    2.0962    4.0334 H   0  0  0  0  0  0  0  0  0  0  0  0
    2.4376    0.4002    5.0676 C   0  0  0  0  0  0  0  0  0  0  0  0
    3.1839    0.4132    5.8513 H   0  0  0  0  0  0  0  0  0  0  0  0
    1.4263   -0.5640    5.0819 C   0  0  0  0  0  0  0  0  0  0  0  0
    1.3902   -1.2969    5.8776 H   0  0  0  0  0  0  0  0  0  0  0  0
    0.4603   -0.5831    4.0707 C   0  0  0  0  0  0  0  0  0  0  0  0
   -0.3173   -1.3362    4.0994 H   0  0  0  0  0  0  0  0  0  0  0  0
    0.1265    0.2067    0.6870 O   0  0  0  0  0  0  0  0  0  0  0  0
   -0.3703    1.0901   -0.3027 C   0  0  1  0  0  0  0  0  0  0  0  0
    0.0228    2.1143   -0.0995 H   0  0  0  0  0  0  0  0  0  0  0  0
    0.1303    0.6661   -1.6881 C   0  0  1  0  0  0  0  0  0  0  0  0
    1.2366    0.7926   -1.7003 H   0  0  0  0  0  0  0  0  0  0  0  0
   -0.1955   -0.6827   -1.9194 O   0  0  0  0  0  0  0  0  0  0  0  0
    0.4429   -1.0223   -2.5995 H   0  0  0  0  0  0  0  0  0  0  0  0
    1.9583    2.2988   -4.2874 C   0  0  0  0  0  0  0  0  0  0  0  0
    2.7715    2.3795   -5.0390 H   0  0  0  0  0  0  0  0  0  0  0  0
    2.3954    1.9004   -3.3507 H   0  0  0  0  0  0  0  0  0  0  0  0
    1.5481    3.3150   -4.1125 H   0  0  0  0  0  0  0  0  0  0  0  0
  1  2  1  0  0  0  0
  2  3  1  0  0  0  0
  3  4  2  0  0  0  0
  3 38  1  0  0  0  0
  4  5  1  0  0  0  0
  5  6  1  1  0  0  0
  5  7  1  0  0  0  0
  7  8  1  6  0  0  0
  7  9  1  0  0  0  0
  7 11  1  0  0  0  0
  9 10  1  0  0  0  0
 11 12  1  0  0  0  0
 12 13  1  6  0  0  0
 12 14  1  0  0  0  0
 14 15  1  0  0  0  0
 14 16  1  0  0  0  0
 14 17  1  0  0  0  0
 17 18  1  0  0  0  0
 18 19  1  1  0  0  0
 18 20  1  0  0  0  0
 18 31  1  0  0  0  0
 20 21  2  0  0  0  0
 21 22  1  0  0  0  0
 21 23  1  0  0  0  0
 23 24  1  0  0  0  0
 23 25  2  0  0  0  0
 25 26  1  0  0  0  0
 25 27  1  0  0  0  0
 27 28  1  0  0  0  0
 27 29  2  0  0  0  0
 29 30  1  0  0  0  0
 29 20  1  0  0  0  0
 31 32  1  0  0  0  0
 32 33  1  1  0  0  0
 32 34  1  0  0  0  0
 32 12  1  0  0  0  0
 34 35  1  6  0  0  0
 34 36  1  0  0  0  0
 34  5  1  0  0  0  0
 36 37  1  0  0  0  0
 38 39  1  0  0  0  0
 38 40  1  0  0  0  0
 38 41  1  0  0  0  0
M  END
>  <UniqueID>
210

>  <SMILES>
C/C(O)=N/[C@H]1[C@@H](O)O[C@@H]2CO[C@H](c3ccccc3)O[C@H]2[C@H]1O

>  <Energy>
58.24135269676571

>  <Genealogy>
CC(O)=N[C@H]1[C@@H](O)O[C@@H]2CO[C@H](c3ccccc3)O[C@H]2[C@H]1O (tautomer)
C/C(O)=N/[C@H]1[C@@H](O)O[C@@H]2CO[C@H](c3ccccc3)O[C@H]2[C@H]1O (cis-trans isomerization)
C/C(O)=N/[C@H]1[C@@H](O)O[C@@H]2CO[C@H](c3ccccc3)O[C@H]2[C@H]1O (3D coordinates assigned)
C/C(O)=N/[C@H]1[C@@H](O)O[C@@H]2CO[C@H](c3ccccc3)O[C@H]2[C@H]1O (nonaromatic ring conformer: 58.24135269676571 kcal/mol)

$$$$
ZINC000013545464
 OpenBabel03032110343D

 40 41  0  0  0  0  0  0  0  0999 V2000
   -1.8904    3.3384   -1.3392 H   0  0  0  0  0  0  0  0  0  0  0  0
   -1.5310    2.4559   -0.9960 O   0  0  0  0  0  0  0  0  0  0  0  0
   -0.7222    2.3982    0.1386 C   0  0  0  0  0  0  0  0  0  0  0  0
   -0.2827    1.2592    0.5818 N   0  0  0  0  0  0  0  0  0  0  0  0
   -0.5646   -0.0377   -0.0348 C   0  0  1  0  0  0  0  0  0  0  0  0
   -0.4586    0.0490   -1.1406 H   0  0  0  0  0  0  0  0  0  0  0  0
    0.4534   -1.0952    0.4546 C   0  0  2  0  0  0  0  0  0  0  0  0
    0.4107   -1.2143    1.5601 H   0  0  0  0  0  0  0  0  0  0  0  0
    1.7758   -0.7097    0.0683 O   0  0  0  0  0  0  0  0  0  0  0  0
    2.6172    0.1959    0.7390 C   0  0  0  0  0  0  0  0  0  0  0  0
    2.3273    0.7205    2.0165 C   0  0  0  0  0  0  0  0  0  0  0  0
    1.4304    0.4489    2.5523 H   0  0  0  0  0  0  0  0  0  0  0  0
    3.2065    1.6233    2.6230 C   0  0  0  0  0  0  0  0  0  0  0  0
    2.9765    2.0274    3.6004 H   0  0  0  0  0  0  0  0  0  0  0  0
    4.3813    2.0049    1.9712 C   0  0  0  0  0  0  0  0  0  0  0  0
    5.0600    2.7035    2.4431 H   0  0  0  0  0  0  0  0  0  0  0  0
    4.6806    1.4827    0.7112 C   0  0  0  0  0  0  0  0  0  0  0  0
    5.5920    1.7765    0.2068 H   0  0  0  0  0  0  0  0  0  0  0  0
    3.8035    0.5816    0.1004 C   0  0  0  0  0  0  0  0  0  0  0  0
    4.0435    0.1840   -0.8776 H   0  0  0  0  0  0  0  0  0  0  0  0
    0.1774   -2.3424   -0.1593 O   0  0  0  0  0  0  0  0  0  0  0  0
   -1.0723   -2.8562    0.2728 C   0  0  2  0  0  0  0  0  0  0  0  0
   -1.0943   -2.9433    1.3848 H   0  0  0  0  0  0  0  0  0  0  0  0
   -1.2428   -4.2714   -0.2983 C   0  0  0  0  0  0  0  0  0  0  0  0
   -2.2235   -4.6871    0.0158 H   0  0  0  0  0  0  0  0  0  0  0  0
   -1.2266   -4.2460   -1.4126 H   0  0  0  0  0  0  0  0  0  0  0  0
   -0.2368   -5.1188    0.1884 O   0  0  0  0  0  0  0  0  0  0  0  0
    0.5675   -4.9608   -0.3718 H   0  0  0  0  0  0  0  0  0  0  0  0
   -2.2193   -1.9297   -0.2075 C   0  0  1  0  0  0  0  0  0  0  0  0
   -2.1971   -1.8996   -1.3198 H   0  0  0  0  0  0  0  0  0  0  0  0
   -3.4850   -2.4099    0.1781 O   0  0  0  0  0  0  0  0  0  0  0  0
   -3.4590   -2.5934    1.1532 H   0  0  0  0  0  0  0  0  0  0  0  0
   -1.9982   -0.4919    0.3033 C   0  0  1  0  0  0  0  0  0  0  0  0
   -2.7158    0.1847   -0.2184 H   0  0  0  0  0  0  0  0  0  0  0  0
   -2.1955   -0.4261    1.6954 O   0  0  0  0  0  0  0  0  0  0  0  0
   -3.1585   -0.2369    1.8452 H   0  0  0  0  0  0  0  0  0  0  0  0
   -0.3752    3.6534    0.8717 C   0  0  0  0  0  0  0  0  0  0  0  0
   -1.2195    3.9393    1.5326 H   0  0  0  0  0  0  0  0  0  0  0  0
   -0.1846    4.4725    0.1474 H   0  0  0  0  0  0  0  0  0  0  0  0
    0.5374    3.5069    1.4887 H   0  0  0  0  0  0  0  0  0  0  0  0
  1  2  1  0  0  0  0
  2  3  1  0  0  0  0
  3  4  2  0  0  0  0
  3 37  1  0  0  0  0
  4  5  1  0  0  0  0
  5  6  1  6  0  0  0
  5  7  1  0  0  0  0
  7  8  1  1  0  0  0
  7  9  1  0  0  0  0
  7 21  1  0  0  0  0
  9 10  1  0  0  0  0
 10 11  2  0  0  0  0
 11 12  1  0  0  0  0
 11 13  1  0  0  0  0
 13 14  1  0  0  0  0
 13 15  2  0  0  0  0
 15 16  1  0  0  0  0
 15 17  1  0  0  0  0
 17 18  1  0  0  0  0
 17 19  2  0  0  0  0
 19 20  1  0  0  0  0
 19 10  1  0  0  0  0
 21 22  1  0  0  0  0
 22 23  1  1  0  0  0
 22 24  1  0  0  0  0
 22 29  1  0  0  0  0
 24 25  1  0  0  0  0
 24 26  1  0  0  0  0
 24 27  1  0  0  0  0
 27 28  1  0  0  0  0
 29 30  1  6  0  0  0
 29 31  1  0  0  0  0
 29 33  1  0  0  0  0
 31 32  1  0  0  0  0
 33 34  1  6  0  0  0
 33 35  1  0  0  0  0
 33  5  1  0  0  0  0
 35 36  1  0  0  0  0
 37 38  1  0  0  0  0
 37 39  1  0  0  0  0
 37 40  1  0  0  0  0
M  END
>  <UniqueID>
211

>  <SMILES>
C/C(O)=N\[C@H]1[C@H](Oc2ccccc2)O[C@H](CO)[C@@H](O)[C@H]1O

>  <Energy>
39.02239722894072

>  <Genealogy>
CC(O)=N[C@H]1[C@H](Oc2ccccc2)O[C@H](CO)[C@@H](O)[C@H]1O (tautomer)
C/C(O)=N\[C@H]1[C@H](Oc2ccccc2)O[C@H](CO)[C@@H](O)[C@H]1O (cis-trans isomerization)
C/C(O)=N\[C@H]1[C@H](Oc2ccccc2)O[C@H](CO)[C@@H](O)[C@H]1O (3D coordinates assigned)
C/C(O)=N\[C@H]1[C@H](Oc2ccccc2)O[C@H](CO)[C@@H](O)[C@H]1O (nonaromatic ring conformer: 39.02239722894072 kcal/mol)

$$$$
ZINC000013545464
 OpenBabel03032110343D

 40 41  0  0  0  0  0  0  0  0999 V2000
   -3.9301    2.4413   -1.4696 H   0  0  0  0  0  0  0  0  0  0  0  0
   -3.2614    1.7527   -1.1459 O   0  0  0  0  0  0  0  0  0  0  0  0
   -2.4272    2.0120   -0.0589 C   0  0  0  0  0  0  0  0  0  0  0  0
   -1.5574    1.1305    0.3361 N   0  0  0  0  0  0  0  0  0  0  0  0
   -1.3782   -0.1968   -0.2622 C   0  0  1  0  0  0  0  0  0  0  0  0
   -1.6065   -0.1521   -1.3518 H   0  0  0  0  0  0  0  0  0  0  0  0
    0.0991   -0.6228   -0.0932 C   0  0  2  0  0  0  0  0  0  0  0  0
    0.5280   -0.1394    0.8182 H   0  0  0  0  0  0  0  0  0  0  0  0
    0.8457   -0.1738   -1.2237 O   0  0  0  0  0  0  0  0  0  0  0  0
    2.2377   -0.2876   -1.3634 C   0  0  0  0  0  0  0  0  0  0  0  0
    3.0594   -0.8411   -0.3603 C   0  0  0  0  0  0  0  0  0  0  0  0
    2.6437   -1.2035    0.5694 H   0  0  0  0  0  0  0  0  0  0  0  0
    4.4418   -0.9295   -0.5532 C   0  0  0  0  0  0  0  0  0  0  0  0
    5.0691   -1.3552    0.2195 H   0  0  0  0  0  0  0  0  0  0  0  0
    5.0154   -0.4686   -1.7408 C   0  0  0  0  0  0  0  0  0  0  0  0
    6.0855   -0.5381   -1.8878 H   0  0  0  0  0  0  0  0  0  0  0  0
    4.2073    0.0821   -2.7384 C   0  0  0  0  0  0  0  0  0  0  0  0
    4.6518    0.4394   -3.6583 H   0  0  0  0  0  0  0  0  0  0  0  0
    2.8248    0.1721   -2.5495 C   0  0  0  0  0  0  0  0  0  0  0  0
    2.2059    0.6003   -3.3279 H   0  0  0  0  0  0  0  0  0  0  0  0
    0.1906   -2.0325   -0.0028 O   0  0  0  0  0  0  0  0  0  0  0  0
   -0.2844   -2.4788    1.2608 C   0  0  2  0  0  0  0  0  0  0  0  0
    0.4541   -2.1867    2.0433 H   0  0  0  0  0  0  0  0  0  0  0  0
   -0.3076   -4.0141    1.2532 C   0  0  0  0  0  0  0  0  0  0  0  0
   -0.6687   -4.4051    2.2329 H   0  0  0  0  0  0  0  0  0  0  0  0
    0.7302   -4.3863    1.1165 H   0  0  0  0  0  0  0  0  0  0  0  0
   -1.0908   -4.4984    0.1940 O   0  0  0  0  0  0  0  0  0  0  0  0
   -2.0191   -4.5821    0.5343 H   0  0  0  0  0  0  0  0  0  0  0  0
   -1.6862   -1.8841    1.6246 C   0  0  1  0  0  0  0  0  0  0  0  0
   -2.3771   -2.6800    1.9905 H   0  0  0  0  0  0  0  0  0  0  0  0
   -1.5506   -0.9113    2.6302 O   0  0  0  0  0  0  0  0  0  0  0  0
   -1.3914   -1.3996    3.4800 H   0  0  0  0  0  0  0  0  0  0  0  0
   -2.3285   -1.2433    0.3834 C   0  0  1  0  0  0  0  0  0  0  0  0
   -2.4963   -2.0631   -0.3560 H   0  0  0  0  0  0  0  0  0  0  0  0
   -3.5670   -0.6769    0.7290 O   0  0  0  0  0  0  0  0  0  0  0  0
   -4.0949   -0.6099   -0.1091 H   0  0  0  0  0  0  0  0  0  0  0  0
   -2.5041    3.3320    0.6379 C   0  0  0  0  0  0  0  0  0  0  0  0
   -1.9576    4.0941    0.0447 H   0  0  0  0  0  0  0  0  0  0  0  0
   -3.5651    3.6414    0.7406 H   0  0  0  0  0  0  0  0  0  0  0  0
   -2.0540    3.2676    1.6517 H   0  0  0  0  0  0  0  0  0  0  0  0
  1  2  1  0  0  0  0
  2  3  1  0  0  0  0
  3  4  2  0  0  0  0
  3 37  1  0  0  0  0
  4  5  1  0  0  0  0
  5  6  1  6  0  0  0
  5  7  1  0  0  0  0
  7  8  1  1  0  0  0
  7  9  1  0  0  0  0
  7 21  1  0  0  0  0
  9 10  1  0  0  0  0
 10 11  2  0  0  0  0
 11 12  1  0  0  0  0
 11 13  1  0  0  0  0
 13 14  1  0  0  0  0
 13 15  2  0  0  0  0
 15 16  1  0  0  0  0
 15 17  1  0  0  0  0
 17 18  1  0  0  0  0
 17 19  2  0  0  0  0
 19 20  1  0  0  0  0
 19 10  1  0  0  0  0
 21 22  1  0  0  0  0
 22 23  1  1  0  0  0
 22 24  1  0  0  0  0
 22 29  1  0  0  0  0
 24 25  1  0  0  0  0
 24 26  1  0  0  0  0
 24 27  1  0  0  0  0
 27 28  1  0  0  0  0
 29 30  1  1  0  0  0
 29 31  1  0  0  0  0
 29 33  1  0  0  0  0
 31 32  1  0  0  0  0
 33 34  1  6  0  0  0
 33 35  1  0  0  0  0
 33  5  1  0  0  0  0
 35 36  1  0  0  0  0
 37 38  1  0  0  0  0
 37 39  1  0  0  0  0
 37 40  1  0  0  0  0
M  END
>  <UniqueID>
212

>  <SMILES>
C/C(O)=N/[C@H]1[C@H](Oc2ccccc2)O[C@H](CO)[C@@H](O)[C@H]1O

>  <Energy>
45.31746765311474

>  <Genealogy>
CC(O)=N[C@H]1[C@H](Oc2ccccc2)O[C@H](CO)[C@@H](O)[C@H]1O (tautomer)
C/C(O)=N/[C@H]1[C@H](Oc2ccccc2)O[C@H](CO)[C@@H](O)[C@H]1O (cis-trans isomerization)
C/C(O)=N/[C@H]1[C@H](Oc2ccccc2)O[C@H](CO)[C@@H](O)[C@H]1O (3D coordinates assigned)
C/C(O)=N/[C@H]1[C@H](Oc2ccccc2)O[C@H](CO)[C@@H](O)[C@H]1O (nonaromatic ring conformer: 45.31746765311474 kcal/mol)

$$$$
ZINC000015205814
 OpenBabel03032110343D

 42 43  0  0  0  0  0  0  0  0999 V2000
    2.5270   -0.6674    4.4399 C   0  0  0  0  0  0  0  0  0  0  0  0
    1.2698   -0.8254    3.6485 C   0  0  0  0  0  0  0  0  0  0  0  0
    0.1827   -0.3917    4.1172 O   0  0  0  0  0  0  0  0  0  0  0  0
    1.3154   -1.4319    2.3489 N   0  0  0  0  0  0  0  0  0  0  0  0
    0.1436   -1.5129    1.4688 C   0  0  1  0  0  0  0  0  0  0  0  0
    0.1893   -0.3925    0.4135 C   0  0  2  0  0  0  0  0  0  0  0  0
    0.1980    0.8678    1.0825 O   0  0  0  0  0  0  0  0  0  0  0  0
    0.3536    2.1113    0.4513 C   0  0  0  0  0  0  0  0  0  0  0  0
    0.3266    3.2635    1.2434 C   0  0  0  0  0  0  0  0  0  0  0  0
    0.4768    4.5278    0.6669 C   0  0  0  0  0  0  0  0  0  0  0  0
    0.6583    4.6619   -0.7201 C   0  0  0  0  0  0  0  0  0  0  0  0
    0.8126    5.9649   -1.3120 N   0  3  0  0  0  0  0  0  0  0  0  0
    0.9741    6.0900   -2.5438 O   0  0  0  0  0  0  0  0  0  0  0  0
    0.7845    7.0964   -0.5291 O   0  5  0  0  0  0  0  0  0  0  0  0
    0.6867    3.5030   -1.5167 C   0  0  0  0  0  0  0  0  0  0  0  0
    0.5366    2.2391   -0.9383 C   0  0  0  0  0  0  0  0  0  0  0  0
   -0.9558   -0.4622   -0.4196 O   0  0  0  0  0  0  0  0  0  0  0  0
   -0.9503   -1.6589   -1.1809 C   0  0  2  0  0  0  0  0  0  0  0  0
   -2.1010   -1.5929   -2.1931 C   0  0  0  0  0  0  0  0  0  0  0  0
   -3.3310   -1.4834   -1.5301 O   0  0  0  0  0  0  0  0  0  0  0  0
   -1.0738   -2.8922   -0.2485 C   0  0  1  0  0  0  0  0  0  0  0  0
   -1.0294   -4.0832   -0.9945 O   0  0  0  0  0  0  0  0  0  0  0  0
    0.0772   -2.8875    0.7756 C   0  0  1  0  0  0  0  0  0  0  0  0
    1.2989   -3.1631    0.1332 O   0  0  0  0  0  0  0  0  0  0  0  0
    2.2941   -0.4027    5.4932 H   0  0  0  0  0  0  0  0  0  0  0  0
    3.0993   -1.6185    4.4291 H   0  0  0  0  0  0  0  0  0  0  0  0
    3.1461    0.1372    3.9916 H   0  0  0  0  0  0  0  0  0  0  0  0
    2.2531   -1.6839    1.9618 H   0  0  0  0  0  0  0  0  0  0  0  0
   -0.7884   -1.3928    2.0661 H   0  0  0  0  0  0  0  0  0  0  0  0
    1.1277   -0.4804   -0.1831 H   0  0  0  0  0  0  0  0  0  0  0  0
    0.1879    3.1780    2.3139 H   0  0  0  0  0  0  0  0  0  0  0  0
    0.4509    5.3998    1.3074 H   0  0  0  0  0  0  0  0  0  0  0  0
    0.8254    3.5734   -2.5879 H   0  0  0  0  0  0  0  0  0  0  0  0
    0.5649    1.3706   -1.5816 H   0  0  0  0  0  0  0  0  0  0  0  0
   -0.0087   -1.7348   -1.7744 H   0  0  0  0  0  0  0  0  0  0  0  0
   -2.0949   -2.4991   -2.8389 H   0  0  0  0  0  0  0  0  0  0  0  0
   -1.9524   -0.7049   -2.8477 H   0  0  0  0  0  0  0  0  0  0  0  0
   -4.0239   -1.4491   -2.2397 H   0  0  0  0  0  0  0  0  0  0  0  0
   -2.0322   -2.8277    0.3218 H   0  0  0  0  0  0  0  0  0  0  0  0
   -1.9670   -4.3321   -1.2056 H   0  0  0  0  0  0  0  0  0  0  0  0
   -0.1258   -3.6600    1.5552 H   0  0  0  0  0  0  0  0  0  0  0  0
    1.3790   -4.1507    0.0718 H   0  0  0  0  0  0  0  0  0  0  0  0
  1  2  1  0  0  0  0
  1 25  1  0  0  0  0
  1 26  1  0  0  0  0
  1 27  1  0  0  0  0
  2  3  2  0  0  0  0
  2  4  1  0  0  0  0
  4  5  1  0  0  0  0
  4 28  1  0  0  0  0
  5  6  1  0  0  0  0
  5 29  1  1  0  0  0
  6  7  1  0  0  0  0
  6 17  1  0  0  0  0
  6 30  1  6  0  0  0
  7  8  1  0  0  0  0
  8  9  2  0  0  0  0
  9 10  1  0  0  0  0
  9 31  1  0  0  0  0
 10 11  2  0  0  0  0
 10 32  1  0  0  0  0
 11 12  1  0  0  0  0
 11 15  1  0  0  0  0
 12 13  2  0  0  0  0
 12 14  1  0  0  0  0
 15 16  2  0  0  0  0
 15 33  1  0  0  0  0
 16  8  1  0  0  0  0
 16 34  1  0  0  0  0
 17 18  1  0  0  0  0
 18 19  1  0  0  0  0
 18 21  1  0  0  0  0
 18 35  1  6  0  0  0
 19 20  1  0  0  0  0
 19 36  1  0  0  0  0
 19 37  1  0  0  0  0
 20 38  1  0  0  0  0
 21 22  1  0  0  0  0
 21 23  1  0  0  0  0
 21 39  1  1  0  0  0
 22 40  1  0  0  0  0
 23 24  1  0  0  0  0
 23  5  1  0  0  0  0
 23 41  1  1  0  0  0
 24 42  1  0  0  0  0
M  CHG  2  12   1  14  -1
M  END
>  <UniqueID>
213

>  <SMILES>
CC(=O)N[C@H]1[C@H](Oc2ccc([N+](=O)[O-])cc2)O[C@H](CO)[C@@H](O)[C@H]1O

>  <Energy>
39.506567098286204

>  <Genealogy>
CC(=O)N[C@H]1[C@H](Oc2ccc([N+](=O)[O-])cc2)O[C@H](CO)[C@@H](O)[C@H]1O (3D coordinates assigned)
CC(=O)N[C@H]1[C@H](Oc2ccc([N+](=O)[O-])cc2)O[C@H](CO)[C@@H](O)[C@H]1O (nonaromatic ring conformer: 39.506567098286204 kcal/mol)

$$$$
ZINC000015205814
 OpenBabel03032110343D

 42 43  0  0  0  0  0  0  0  0999 V2000
   -0.1713   -3.3172    0.2005 H   0  0  0  0  0  0  0  0  0  0  0  0
    0.4242   -3.1653    1.0032 O   0  0  0  0  0  0  0  0  0  0  0  0
    0.8247   -1.8995    1.4398 C   0  0  0  0  0  0  0  0  0  0  0  0
    0.4751   -0.8063    0.8255 N   0  0  0  0  0  0  0  0  0  0  0  0
   -0.3451   -0.7017   -0.3822 C   0  0  1  0  0  0  0  0  0  0  0  0
   -1.2122   -1.3955   -0.3100 H   0  0  0  0  0  0  0  0  0  0  0  0
   -0.9156    0.7299   -0.5125 C   0  0  2  0  0  0  0  0  0  0  0  0
   -0.1013    1.4862   -0.5661 H   0  0  0  0  0  0  0  0  0  0  0  0
   -1.7599    1.0188    0.6060 O   0  0  0  0  0  0  0  0  0  0  0  0
   -1.3483    1.4411    1.8828 C   0  0  0  0  0  0  0  0  0  0  0  0
   -0.0302    1.8429    2.1757 C   0  0  0  0  0  0  0  0  0  0  0  0
    0.7414    1.8492    1.4207 H   0  0  0  0  0  0  0  0  0  0  0  0
    0.3161    2.2412    3.4703 C   0  0  0  0  0  0  0  0  0  0  0  0
    1.3380    2.5376    3.6684 H   0  0  0  0  0  0  0  0  0  0  0  0
   -0.6445    2.2566    4.4951 C   0  0  0  0  0  0  0  0  0  0  0  0
   -0.2829    2.6659    5.8269 N   0  3  0  0  0  0  0  0  0  0  0  0
   -1.1331    2.6824    6.7411 O   0  0  0  0  0  0  0  0  0  0  0  0
    1.0083    3.0447    6.1157 O   0  5  0  0  0  0  0  0  0  0  0  0
   -1.9618    1.8675    4.1960 C   0  0  0  0  0  0  0  0  0  0  0  0
   -2.7263    1.8708    4.9624 H   0  0  0  0  0  0  0  0  0  0  0  0
   -2.3061    1.4672    2.9022 C   0  0  0  0  0  0  0  0  0  0  0  0
   -3.3249    1.1675    2.6911 H   0  0  0  0  0  0  0  0  0  0  0  0
   -1.7121    0.8182   -1.6808 O   0  0  0  0  0  0  0  0  0  0  0  0
   -0.9226    0.6651   -2.8494 C   0  0  2  0  0  0  0  0  0  0  0  0
   -0.1004    1.4193   -2.8627 H   0  0  0  0  0  0  0  0  0  0  0  0
   -1.8185    0.9473   -4.0636 C   0  0  0  0  0  0  0  0  0  0  0  0
   -2.5825    0.1439   -4.1683 H   0  0  0  0  0  0  0  0  0  0  0  0
   -2.3475    1.9137   -3.9040 H   0  0  0  0  0  0  0  0  0  0  0  0
   -1.0491    1.0355   -5.2313 O   0  0  0  0  0  0  0  0  0  0  0  0
   -1.6893    1.2027   -5.9709 H   0  0  0  0  0  0  0  0  0  0  0  0
   -0.3291   -0.7640   -2.9044 C   0  0  1  0  0  0  0  0  0  0  0  0
   -1.1723   -1.4940   -2.9490 H   0  0  0  0  0  0  0  0  0  0  0  0
    0.4820   -0.9110   -4.0420 O   0  0  0  0  0  0  0  0  0  0  0  0
    0.6211   -1.8857   -4.1697 H   0  0  0  0  0  0  0  0  0  0  0  0
    0.4935   -1.0409   -1.6300 C   0  0  1  0  0  0  0  0  0  0  0  0
    0.7534   -2.1243   -1.6024 H   0  0  0  0  0  0  0  0  0  0  0  0
    1.6708   -0.2694   -1.6312 O   0  0  0  0  0  0  0  0  0  0  0  0
    2.3414   -0.7624   -2.1724 H   0  0  0  0  0  0  0  0  0  0  0  0
    1.6750   -1.7943    2.6605 C   0  0  0  0  0  0  0  0  0  0  0  0
    1.1500   -1.1908    3.4310 H   0  0  0  0  0  0  0  0  0  0  0  0
    1.8828   -2.8038    3.0733 H   0  0  0  0  0  0  0  0  0  0  0  0
    2.6378   -1.3041    2.4050 H   0  0  0  0  0  0  0  0  0  0  0  0
  1  2  1  0  0  0  0
  2  3  1  0  0  0  0
  3  4  2  0  0  0  0
  3 39  1  0  0  0  0
  4  5  1  0  0  0  0
  5  6  1  1  0  0  0
  5  7  1  0  0  0  0
  7  8  1  6  0  0  0
  7  9  1  0  0  0  0
  7 23  1  0  0  0  0
  9 10  1  0  0  0  0
 10 11  2  0  0  0  0
 11 12  1  0  0  0  0
 11 13  1  0  0  0  0
 13 14  1  0  0  0  0
 13 15  2  0  0  0  0
 15 16  1  0  0  0  0
 15 19  1  0  0  0  0
 16 17  2  0  0  0  0
 16 18  1  0  0  0  0
 19 20  1  0  0  0  0
 19 21  2  0  0  0  0
 21 22  1  0  0  0  0
 21 10  1  0  0  0  0
 23 24  1  0  0  0  0
 24 25  1  1  0  0  0
 24 26  1  0  0  0  0
 24 31  1  0  0  0  0
 26 27  1  0  0  0  0
 26 28  1  0  0  0  0
 26 29  1  0  0  0  0
 29 30  1  0  0  0  0
 31 32  1  6  0  0  0
 31 33  1  0  0  0  0
 31 35  1  0  0  0  0
 33 34  1  0  0  0  0
 35 36  1  1  0  0  0
 35 37  1  0  0  0  0
 35  5  1  0  0  0  0
 37 38  1  0  0  0  0
 39 40  1  0  0  0  0
 39 41  1  0  0  0  0
 39 42  1  0  0  0  0
M  CHG  2  16   1  18  -1
M  END
>  <UniqueID>
214

>  <SMILES>
C/C(O)=N/[C@H]1[C@H](Oc2ccc([N+](=O)[O-])cc2)O[C@H](CO)[C@@H](O)[C@H]1O

>  <Energy>
42.86369644860873

>  <Genealogy>
CC(O)=N[C@H]1[C@H](Oc2ccc([N+](=O)[O-])cc2)O[C@H](CO)[C@@H](O)[C@H]1O (tautomer)
C/C(O)=N/[C@H]1[C@H](Oc2ccc([N+](=O)[O-])cc2)O[C@H](CO)[C@@H](O)[C@H]1O (cis-trans isomerization)
C/C(O)=N/[C@H]1[C@H](Oc2ccc([N+](=O)[O-])cc2)O[C@H](CO)[C@@H](O)[C@H]1O (3D coordinates assigned)
C/C(O)=N/[C@H]1[C@H](Oc2ccc([N+](=O)[O-])cc2)O[C@H](CO)[C@@H](O)[C@H]1O (nonaromatic ring conformer: 42.86369644860873 kcal/mol)

$$$$
ZINC000015205840
 OpenBabel03032110343D

 42 43  0  0  0  0  0  0  0  0999 V2000
   -0.7848   -3.6273    0.4082 H   0  0  0  0  0  0  0  0  0  0  0  0
   -0.7646   -2.6223    0.5325 O   0  0  0  0  0  0  0  0  0  0  0  0
   -1.5315   -1.7814   -0.2736 C   0  0  0  0  0  0  0  0  0  0  0  0
   -1.4823   -0.4907   -0.1245 N   0  0  0  0  0  0  0  0  0  0  0  0
   -0.6490    0.2042    0.8601 C   0  0  1  0  0  0  0  0  0  0  0  0
   -0.4738   -0.4530    1.7427 H   0  0  0  0  0  0  0  0  0  0  0  0
    0.7200    0.6136    0.2612 C   0  0  2  0  0  0  0  0  0  0  0  0
    0.5922    1.3007   -0.6031 H   0  0  0  0  0  0  0  0  0  0  0  0
    1.4483   -0.5469   -0.1500 O   0  0  0  0  0  0  0  0  0  0  0  0
    1.4011   -1.1855   -1.4045 C   0  0  0  0  0  0  0  0  0  0  0  0
    0.6410   -0.6734   -2.4795 C   0  0  0  0  0  0  0  0  0  0  0  0
    0.0624    0.2324   -2.3886 H   0  0  0  0  0  0  0  0  0  0  0  0
    0.5878   -1.3494   -3.6984 C   0  0  0  0  0  0  0  0  0  0  0  0
   -0.0062   -0.9518   -4.5113 H   0  0  0  0  0  0  0  0  0  0  0  0
    1.2891   -2.5392   -3.8697 C   0  0  0  0  0  0  0  0  0  0  0  0
    1.2429   -3.0620   -4.8164 H   0  0  0  0  0  0  0  0  0  0  0  0
    2.0514   -3.0575   -2.8237 C   0  0  0  0  0  0  0  0  0  0  0  0
    2.5926   -3.9808   -2.9860 H   0  0  0  0  0  0  0  0  0  0  0  0
    2.1255   -2.3903   -1.5853 C   0  0  0  0  0  0  0  0  0  0  0  0
    2.9239   -2.9528   -0.5223 N   0  3  0  0  0  0  0  0  0  0  0  0
    3.3376   -4.1285   -0.5989 O   0  0  0  0  0  0  0  0  0  0  0  0
    3.2977   -2.1975    0.5653 O   0  5  0  0  0  0  0  0  0  0  0  0
    1.4888    1.2669    1.2562 O   0  0  0  0  0  0  0  0  0  0  0  0
    0.8986    2.5043    1.6235 C   0  0  2  0  0  0  0  0  0  0  0  0
    0.7672    3.1574    0.7284 H   0  0  0  0  0  0  0  0  0  0  0  0
    1.8532    3.2315    2.5774 C   0  0  0  0  0  0  0  0  0  0  0  0
    1.4163    4.2109    2.8756 H   0  0  0  0  0  0  0  0  0  0  0  0
    2.0113    2.6152    3.4914 H   0  0  0  0  0  0  0  0  0  0  0  0
    3.0812    3.4493    1.9395 O   0  0  0  0  0  0  0  0  0  0  0  0
    3.6581    3.9105    2.6024 H   0  0  0  0  0  0  0  0  0  0  0  0
   -0.4723    2.2650    2.2981 C   0  0  1  0  0  0  0  0  0  0  0  0
   -0.3081    1.6729    3.2299 H   0  0  0  0  0  0  0  0  0  0  0  0
   -1.0709    3.4944    2.6207 O   0  0  0  0  0  0  0  0  0  0  0  0
   -1.8042    3.2956    3.2599 H   0  0  0  0  0  0  0  0  0  0  0  0
   -1.3886    1.4572    1.3561 C   0  0  1  0  0  0  0  0  0  0  0  0
   -2.2902    1.1252    1.9240 H   0  0  0  0  0  0  0  0  0  0  0  0
   -1.7789    2.2451    0.2571 O   0  0  0  0  0  0  0  0  0  0  0  0
   -2.5544    2.7903    0.5518 H   0  0  0  0  0  0  0  0  0  0  0  0
   -2.4035   -2.3692   -1.3353 C   0  0  0  0  0  0  0  0  0  0  0  0
   -3.0979   -3.1052   -0.8795 H   0  0  0  0  0  0  0  0  0  0  0  0
   -2.9979   -1.5799   -1.8434 H   0  0  0  0  0  0  0  0  0  0  0  0
   -1.7700   -2.8829   -2.0881 H   0  0  0  0  0  0  0  0  0  0  0  0
  1  2  1  0  0  0  0
  2  3  1  0  0  0  0
  3  4  2  0  0  0  0
  3 39  1  0  0  0  0
  4  5  1  0  0  0  0
  5  6  1  1  0  0  0
  5  7  1  0  0  0  0
  7  8  1  6  0  0  0
  7  9  1  0  0  0  0
  7 23  1  0  0  0  0
  9 10  1  0  0  0  0
 10 11  2  0  0  0  0
 11 12  1  0  0  0  0
 11 13  1  0  0  0  0
 13 14  1  0  0  0  0
 13 15  2  0  0  0  0
 15 16  1  0  0  0  0
 15 17  1  0  0  0  0
 17 18  1  0  0  0  0
 17 19  2  0  0  0  0
 19 20  1  0  0  0  0
 19 10  1  0  0  0  0
 20 21  2  0  0  0  0
 20 22  1  0  0  0  0
 23 24  1  0  0  0  0
 24 25  1  6  0  0  0
 24 26  1  0  0  0  0
 24 31  1  0  0  0  0
 26 27  1  0  0  0  0
 26 28  1  0  0  0  0
 26 29  1  0  0  0  0
 29 30  1  0  0  0  0
 31 32  1  1  0  0  0
 31 33  1  0  0  0  0
 31 35  1  0  0  0  0
 33 34  1  0  0  0  0
 35 36  1  1  0  0  0
 35 37  1  0  0  0  0
 35  5  1  0  0  0  0
 37 38  1  0  0  0  0
 39 40  1  0  0  0  0
 39 41  1  0  0  0  0
 39 42  1  0  0  0  0
M  CHG  2  20   1  22  -1
M  END
>  <UniqueID>
215

>  <SMILES>
C/C(O)=N/[C@H]1[C@H](Oc2ccccc2[N+](=O)[O-])O[C@H](CO)[C@@H](O)[C@H]1O

>  <Energy>
43.27467861961955

>  <Genealogy>
CC(O)=N[C@H]1[C@H](Oc2ccccc2[N+](=O)[O-])O[C@H](CO)[C@@H](O)[C@H]1O (tautomer)
C/C(O)=N/[C@H]1[C@H](Oc2ccccc2[N+](=O)[O-])O[C@H](CO)[C@@H](O)[C@H]1O (cis-trans isomerization)
C/C(O)=N/[C@H]1[C@H](Oc2ccccc2[N+](=O)[O-])O[C@H](CO)[C@@H](O)[C@H]1O (3D coordinates assigned)
C/C(O)=N/[C@H]1[C@H](Oc2ccccc2[N+](=O)[O-])O[C@H](CO)[C@@H](O)[C@H]1O (nonaromatic ring conformer: 43.27467861961955 kcal/mol)

$$$$
ZINC000015205840
 OpenBabel03032110343D

 42 43  0  0  0  0  0  0  0  0999 V2000
   -1.1985   -1.4947    3.6827 H   0  0  0  0  0  0  0  0  0  0  0  0
   -1.2497   -0.8954    2.8677 O   0  0  0  0  0  0  0  0  0  0  0  0
   -2.3460   -0.9407    2.0066 C   0  0  0  0  0  0  0  0  0  0  0  0
   -2.3903   -0.1823    0.9525 N   0  0  0  0  0  0  0  0  0  0  0  0
   -1.3398    0.7682    0.5768 C   0  0  1  0  0  0  0  0  0  0  0  0
   -1.0681    1.3649    1.4780 H   0  0  0  0  0  0  0  0  0  0  0  0
   -0.0796    0.0151    0.0426 C   0  0  2  0  0  0  0  0  0  0  0  0
   -0.1783   -1.0749    0.2516 H   0  0  0  0  0  0  0  0  0  0  0  0
    1.0666    0.4926    0.7473 O   0  0  0  0  0  0  0  0  0  0  0  0
    2.3656   -0.0347    0.6488 C   0  0  0  0  0  0  0  0  0  0  0  0
    2.6434   -1.1589   -0.1574 C   0  0  0  0  0  0  0  0  0  0  0  0
    1.8673   -1.6438   -0.7323 H   0  0  0  0  0  0  0  0  0  0  0  0
    3.9351   -1.6808   -0.2279 C   0  0  0  0  0  0  0  0  0  0  0  0
    4.1361   -2.5448   -0.8484 H   0  0  0  0  0  0  0  0  0  0  0  0
    4.9661   -1.0955    0.5023 C   0  0  0  0  0  0  0  0  0  0  0  0
    5.9669   -1.5044    0.4467 H   0  0  0  0  0  0  0  0  0  0  0  0
    4.7112    0.0177    1.3035 C   0  0  0  0  0  0  0  0  0  0  0  0
    5.5328    0.4567    1.8550 H   0  0  0  0  0  0  0  0  0  0  0  0
    3.4160    0.5666    1.3859 C   0  0  0  0  0  0  0  0  0  0  0  0
    3.1847    1.7241    2.2177 N   0  3  0  0  0  0  0  0  0  0  0  0
    4.0638    2.1144    3.0141 O   0  0  0  0  0  0  0  0  0  0  0  0
    2.0228    2.4544    2.1184 O   0  5  0  0  0  0  0  0  0  0  0  0
    0.1300    0.2091   -1.3497 O   0  0  0  0  0  0  0  0  0  0  0  0
   -1.0550   -0.0688   -2.0707 C   0  0  2  0  0  0  0  0  0  0  0  0
   -1.5005   -1.0325   -1.7237 H   0  0  0  0  0  0  0  0  0  0  0  0
   -0.7113   -0.2684   -3.5526 C   0  0  0  0  0  0  0  0  0  0  0  0
   -1.6432   -0.4325   -4.1437 H   0  0  0  0  0  0  0  0  0  0  0  0
   -0.0922   -1.1853   -3.6541 H   0  0  0  0  0  0  0  0  0  0  0  0
    0.0301    0.8181   -4.0447 O   0  0  0  0  0  0  0  0  0  0  0  0
   -0.5875    1.3731   -4.5882 H   0  0  0  0  0  0  0  0  0  0  0  0
   -2.0743    1.0831   -1.8632 C   0  0  1  0  0  0  0  0  0  0  0  0
   -1.8979    1.8757   -2.6225 H   0  0  0  0  0  0  0  0  0  0  0  0
   -3.3918    0.6240   -2.0505 O   0  0  0  0  0  0  0  0  0  0  0  0
   -3.5813   -0.0553   -1.3532 H   0  0  0  0  0  0  0  0  0  0  0  0
   -1.8825    1.7562   -0.4789 C   0  0  1  0  0  0  0  0  0  0  0  0
   -1.1163    2.5590   -0.6048 H   0  0  0  0  0  0  0  0  0  0  0  0
   -3.0856    2.3408   -0.0472 O   0  0  0  0  0  0  0  0  0  0  0  0
   -2.8532    2.9688    0.6861 H   0  0  0  0  0  0  0  0  0  0  0  0
   -3.4672   -1.8904    2.2788 C   0  0  0  0  0  0  0  0  0  0  0  0
   -3.1612   -2.9152    1.9833 H   0  0  0  0  0  0  0  0  0  0  0  0
   -3.7125   -1.8806    3.3612 H   0  0  0  0  0  0  0  0  0  0  0  0
   -4.3747   -1.6023    1.7061 H   0  0  0  0  0  0  0  0  0  0  0  0
  1  2  1  0  0  0  0
  2  3  1  0  0  0  0
  3  4  2  0  0  0  0
  3 39  1  0  0  0  0
  4  5  1  0  0  0  0
  5  6  1  1  0  0  0
  5  7  1  0  0  0  0
  7  8  1  1  0  0  0
  7  9  1  0  0  0  0
  7 23  1  0  0  0  0
  9 10  1  0  0  0  0
 10 11  2  0  0  0  0
 11 12  1  0  0  0  0
 11 13  1  0  0  0  0
 13 14  1  0  0  0  0
 13 15  2  0  0  0  0
 15 16  1  0  0  0  0
 15 17  1  0  0  0  0
 17 18  1  0  0  0  0
 17 19  2  0  0  0  0
 19 20  1  0  0  0  0
 19 10  1  0  0  0  0
 20 21  2  0  0  0  0
 20 22  1  0  0  0  0
 23 24  1  0  0  0  0
 24 25  1  1  0  0  0
 24 26  1  0  0  0  0
 24 31  1  0  0  0  0
 26 27  1  0  0  0  0
 26 28  1  0  0  0  0
 26 29  1  0  0  0  0
 29 30  1  0  0  0  0
 31 32  1  6  0  0  0
 31 33  1  0  0  0  0
 31 35  1  0  0  0  0
 33 34  1  0  0  0  0
 35 36  1  6  0  0  0
 35 37  1  0  0  0  0
 35  5  1  0  0  0  0
 37 38  1  0  0  0  0
 39 40  1  0  0  0  0
 39 41  1  0  0  0  0
 39 42  1  0  0  0  0
M  CHG  2  20   1  22  -1
M  END
>  <UniqueID>
216

>  <SMILES>
C/C(O)=N\[C@H]1[C@H](Oc2ccccc2[N+](=O)[O-])O[C@H](CO)[C@@H](O)[C@H]1O

>  <Energy>
51.15983541568761

>  <Genealogy>
CC(O)=N[C@H]1[C@H](Oc2ccccc2[N+](=O)[O-])O[C@H](CO)[C@@H](O)[C@H]1O (tautomer)
C/C(O)=N\[C@H]1[C@H](Oc2ccccc2[N+](=O)[O-])O[C@H](CO)[C@@H](O)[C@H]1O (cis-trans isomerization)
C/C(O)=N\[C@H]1[C@H](Oc2ccccc2[N+](=O)[O-])O[C@H](CO)[C@@H](O)[C@H]1O (3D coordinates assigned)
C/C(O)=N\[C@H]1[C@H](Oc2ccccc2[N+](=O)[O-])O[C@H](CO)[C@@H](O)[C@H]1O (nonaromatic ring conformer: 51.15983541568761 kcal/mol)

$$$$
ZINC000015205946
 OpenBabel03032110343D

 42 43  0  0  0  0  0  0  0  0999 V2000
    1.0104    3.0356    2.5414 H   0  0  0  0  0  0  0  0  0  0  0  0
    0.8037    2.2985    3.2053 O   0  0  0  0  0  0  0  0  0  0  0  0
    0.7613    0.9649    2.8088 C   0  0  0  0  0  0  0  0  0  0  0  0
    0.9793    0.6697    1.5581 N   0  0  0  0  0  0  0  0  0  0  0  0
    0.9909   -0.6693    0.9549 C   0  0  2  0  0  0  0  0  0  0  0  0
    0.3930   -1.3785    1.5679 H   0  0  0  0  0  0  0  0  0  0  0  0
    2.4270   -1.2105    0.8302 C   0  0  2  0  0  0  0  0  0  0  0  0
    2.3500   -2.2871    0.5485 H   0  0  0  0  0  0  0  0  0  0  0  0
    3.0918   -1.1134    2.0634 O   0  0  0  0  0  0  0  0  0  0  0  0
    3.8943   -1.6950    2.0035 H   0  0  0  0  0  0  0  0  0  0  0  0
    3.2209   -0.4758   -0.2722 C   0  0  2  0  0  0  0  0  0  0  0  0
    4.1213   -1.0870   -0.5001 H   0  0  0  0  0  0  0  0  0  0  0  0
    3.6907    0.7700    0.1885 O   0  0  0  0  0  0  0  0  0  0  0  0
    2.9473    1.4243    0.1401 H   0  0  0  0  0  0  0  0  0  0  0  0
    2.3890   -0.3196   -1.5756 C   0  0  1  0  0  0  0  0  0  0  0  0
    2.9100    0.4438   -2.1950 H   0  0  0  0  0  0  0  0  0  0  0  0
    2.3586   -1.5990   -2.4376 C   0  0  0  0  0  0  0  0  0  0  0  0
    1.6248   -1.4622   -3.2624 H   0  0  0  0  0  0  0  0  0  0  0  0
    2.0540   -2.4800   -1.8327 H   0  0  0  0  0  0  0  0  0  0  0  0
    3.6268   -1.8338   -2.9860 O   0  0  0  0  0  0  0  0  0  0  0  0
    3.5423   -2.6559   -3.5356 H   0  0  0  0  0  0  0  0  0  0  0  0
    1.0875    0.1987   -1.3265 O   0  0  0  0  0  0  0  0  0  0  0  0
    0.3367   -0.6122   -0.4344 C   0  0  2  0  0  0  0  0  0  0  0  0
    0.2236   -1.6484   -0.8213 H   0  0  0  0  0  0  0  0  0  0  0  0
   -0.9709   -0.0571   -0.2907 O   0  0  0  0  0  0  0  0  0  0  0  0
   -1.9312    0.0549   -1.3102 C   0  0  0  0  0  0  0  0  0  0  0  0
   -1.6955   -0.4650   -2.5997 C   0  0  0  0  0  0  0  0  0  0  0  0
   -0.7686   -0.9632   -2.8419 H   0  0  0  0  0  0  0  0  0  0  0  0
   -2.6628   -0.3543   -3.5983 C   0  0  0  0  0  0  0  0  0  0  0  0
   -2.4709   -0.7578   -4.5842 H   0  0  0  0  0  0  0  0  0  0  0  0
   -3.8768    0.2721   -3.3284 C   0  0  0  0  0  0  0  0  0  0  0  0
   -4.6257    0.3557   -4.1055 H   0  0  0  0  0  0  0  0  0  0  0  0
   -4.1290    0.7918   -2.0585 C   0  0  0  0  0  0  0  0  0  0  0  0
   -5.0801    1.2758   -1.8789 H   0  0  0  0  0  0  0  0  0  0  0  0
   -3.1667    0.6953   -1.0348 C   0  0  0  0  0  0  0  0  0  0  0  0
   -3.4620    1.2488    0.2664 N   0  3  0  0  0  0  0  0  0  0  0  0
   -2.5942    1.3013    1.1622 O   0  0  0  0  0  0  0  0  0  0  0  0
   -4.7116    1.7585    0.5363 O   0  5  0  0  0  0  0  0  0  0  0  0
    0.4360   -0.0752    3.8402 C   0  0  0  0  0  0  0  0  0  0  0  0
    1.2156   -0.8634    3.8614 H   0  0  0  0  0  0  0  0  0  0  0  0
    0.3878    0.3916    4.8463 H   0  0  0  0  0  0  0  0  0  0  0  0
   -0.5521   -0.5294    3.6175 H   0  0  0  0  0  0  0  0  0  0  0  0
  1  2  1  0  0  0  0
  2  3  1  0  0  0  0
  3  4  2  0  0  0  0
  3 39  1  0  0  0  0
  4  5  1  0  0  0  0
  5  6  1  1  0  0  0
  5  7  1  0  0  0  0
  7  8  1  6  0  0  0
  7  9  1  0  0  0  0
  7 11  1  0  0  0  0
  9 10  1  0  0  0  0
 11 12  1  6  0  0  0
 11 13  1  0  0  0  0
 11 15  1  0  0  0  0
 13 14  1  0  0  0  0
 15 16  1  6  0  0  0
 15 17  1  0  0  0  0
 15 22  1  0  0  0  0
 17 18  1  0  0  0  0
 17 19  1  0  0  0  0
 17 20  1  0  0  0  0
 20 21  1  0  0  0  0
 22 23  1  0  0  0  0
 23 24  1  6  0  0  0
 23 25  1  0  0  0  0
 23  5  1  0  0  0  0
 25 26  1  0  0  0  0
 26 27  2  0  0  0  0
 27 28  1  0  0  0  0
 27 29  1  0  0  0  0
 29 30  1  0  0  0  0
 29 31  2  0  0  0  0
 31 32  1  0  0  0  0
 31 33  1  0  0  0  0
 33 34  1  0  0  0  0
 33 35  2  0  0  0  0
 35 36  1  0  0  0  0
 35 26  1  0  0  0  0
 36 37  2  0  0  0  0
 36 38  1  0  0  0  0
 39 40  1  0  0  0  0
 39 41  1  0  0  0  0
 39 42  1  0  0  0  0
M  CHG  2  36   1  38  -1
M  END
>  <UniqueID>
217

>  <SMILES>
C/C(O)=N\[C@@H]1[C@H](O)[C@H](O)[C@@H](CO)O[C@@H]1Oc1ccccc1[N+](=O)[O-]

>  <Energy>
49.3500523196302

>  <Genealogy>
CC(O)=N[C@@H]1[C@H](O)[C@H](O)[C@@H](CO)O[C@@H]1Oc1ccccc1[N+](=O)[O-] (tautomer)
C/C(O)=N\[C@@H]1[C@H](O)[C@H](O)[C@@H](CO)O[C@@H]1Oc1ccccc1[N+](=O)[O-] (cis-trans isomerization)
C/C(O)=N\[C@@H]1[C@H](O)[C@H](O)[C@@H](CO)O[C@@H]1Oc1ccccc1[N+](=O)[O-] (3D coordinates assigned)
C/C(O)=N\[C@@H]1[C@H](O)[C@H](O)[C@@H](CO)O[C@@H]1Oc1ccccc1[N+](=O)[O-] (nonaromatic ring conformer: 49.3500523196302 kcal/mol)

$$$$
ZINC000015205946
 OpenBabel03032110343D

 42 43  0  0  0  0  0  0  0  0999 V2000
    0.3097   -2.1129    2.7905 H   0  0  0  0  0  0  0  0  0  0  0  0
   -0.1267   -1.3316    3.2602 O   0  0  0  0  0  0  0  0  0  0  0  0
   -0.2847   -0.0713    2.6779 C   0  0  0  0  0  0  0  0  0  0  0  0
    0.1353    0.1990    1.4754 N   0  0  0  0  0  0  0  0  0  0  0  0
    0.8140   -0.7225    0.5572 C   0  0  2  0  0  0  0  0  0  0  0  0
    0.2940   -1.7045    0.5756 H   0  0  0  0  0  0  0  0  0  0  0  0
    2.2982   -0.9338    0.9715 C   0  0  2  0  0  0  0  0  0  0  0  0
    2.3672   -1.8225    1.6424 H   0  0  0  0  0  0  0  0  0  0  0  0
    2.8063    0.2045    1.6265 O   0  0  0  0  0  0  0  0  0  0  0  0
    2.6396    0.0825    2.5975 H   0  0  0  0  0  0  0  0  0  0  0  0
    3.1538   -1.2162   -0.2733 C   0  0  2  0  0  0  0  0  0  0  0  0
    2.7723   -2.1478   -0.7568 H   0  0  0  0  0  0  0  0  0  0  0  0
    4.4997   -1.3973    0.0868 O   0  0  0  0  0  0  0  0  0  0  0  0
    4.5655   -2.2934    0.5094 H   0  0  0  0  0  0  0  0  0  0  0  0
    3.0311   -0.0280   -1.2704 C   0  0  1  0  0  0  0  0  0  0  0  0
    3.8188    0.7099   -0.9989 H   0  0  0  0  0  0  0  0  0  0  0  0
    3.3144   -0.4644   -2.7147 C   0  0  0  0  0  0  0  0  0  0  0  0
    4.3234   -0.9322   -2.7659 H   0  0  0  0  0  0  0  0  0  0  0  0
    2.5615   -1.2131   -3.0463 H   0  0  0  0  0  0  0  0  0  0  0  0
    3.2745    0.6504   -3.5619 O   0  0  0  0  0  0  0  0  0  0  0  0
    3.4645    0.3098   -4.4745 H   0  0  0  0  0  0  0  0  0  0  0  0
    1.7903    0.6713   -1.1886 O   0  0  0  0  0  0  0  0  0  0  0  0
    0.7050   -0.1908   -0.9000 C   0  0  2  0  0  0  0  0  0  0  0  0
    0.7107   -1.0399   -1.6197 H   0  0  0  0  0  0  0  0  0  0  0  0
   -0.5090    0.5429   -1.0857 O   0  0  0  0  0  0  0  0  0  0  0  0
   -1.8117    0.0121   -1.0666 C   0  0  0  0  0  0  0  0  0  0  0  0
   -2.0443   -1.3773   -1.1389 C   0  0  0  0  0  0  0  0  0  0  0  0
   -1.2303   -2.0825   -1.2136 H   0  0  0  0  0  0  0  0  0  0  0  0
   -3.3452   -1.8809   -1.1342 C   0  0  0  0  0  0  0  0  0  0  0  0
   -3.5117   -2.9490   -1.1915 H   0  0  0  0  0  0  0  0  0  0  0  0
   -4.4309   -1.0121   -1.0629 C   0  0  0  0  0  0  0  0  0  0  0  0
   -5.4390   -1.4064   -1.0610 H   0  0  0  0  0  0  0  0  0  0  0  0
   -4.2211    0.3652   -0.9936 C   0  0  0  0  0  0  0  0  0  0  0  0
   -5.0829    1.0170   -0.9321 H   0  0  0  0  0  0  0  0  0  0  0  0
   -2.9175    0.8963   -0.9894 C   0  0  0  0  0  0  0  0  0  0  0  0
   -2.7385    2.3256   -0.8986 N   0  3  0  0  0  0  0  0  0  0  0  0
   -1.6265    2.8224   -0.6251 O   0  0  0  0  0  0  0  0  0  0  0  0
   -3.8138    3.1705   -1.0537 O   0  5  0  0  0  0  0  0  0  0  0  0
   -0.9532    1.0055    3.4638 C   0  0  0  0  0  0  0  0  0  0  0  0
   -1.7989    1.4271    2.8802 H   0  0  0  0  0  0  0  0  0  0  0  0
   -1.3449    0.5975    4.4192 H   0  0  0  0  0  0  0  0  0  0  0  0
   -0.2234    1.8114    3.6875 H   0  0  0  0  0  0  0  0  0  0  0  0
  1  2  1  0  0  0  0
  2  3  1  0  0  0  0
  3  4  2  0  0  0  0
  3 39  1  0  0  0  0
  4  5  1  0  0  0  0
  5  6  1  1  0  0  0
  5  7  1  0  0  0  0
  7  8  1  1  0  0  0
  7  9  1  0  0  0  0
  7 11  1  0  0  0  0
  9 10  1  0  0  0  0
 11 12  1  6  0  0  0
 11 13  1  0  0  0  0
 11 15  1  0  0  0  0
 13 14  1  0  0  0  0
 15 16  1  1  0  0  0
 15 17  1  0  0  0  0
 15 22  1  0  0  0  0
 17 18  1  0  0  0  0
 17 19  1  0  0  0  0
 17 20  1  0  0  0  0
 20 21  1  0  0  0  0
 22 23  1  0  0  0  0
 23 24  1  6  0  0  0
 23 25  1  0  0  0  0
 23  5  1  0  0  0  0
 25 26  1  0  0  0  0
 26 27  2  0  0  0  0
 27 28  1  0  0  0  0
 27 29  1  0  0  0  0
 29 30  1  0  0  0  0
 29 31  2  0  0  0  0
 31 32  1  0  0  0  0
 31 33  1  0  0  0  0
 33 34  1  0  0  0  0
 33 35  2  0  0  0  0
 35 36  1  0  0  0  0
 35 26  1  0  0  0  0
 36 37  2  0  0  0  0
 36 38  1  0  0  0  0
 39 40  1  0  0  0  0
 39 41  1  0  0  0  0
 39 42  1  0  0  0  0
M  CHG  2  36   1  38  -1
M  END
>  <UniqueID>
218

>  <SMILES>
C/C(O)=N\[C@@H]1[C@H](O)[C@H](O)[C@@H](CO)O[C@@H]1Oc1ccccc1[N+](=O)[O-]

>  <Energy>
52.68764705537755

>  <Genealogy>
CC(O)=N[C@@H]1[C@H](O)[C@H](O)[C@@H](CO)O[C@@H]1Oc1ccccc1[N+](=O)[O-] (tautomer)
C/C(O)=N\[C@@H]1[C@H](O)[C@H](O)[C@@H](CO)O[C@@H]1Oc1ccccc1[N+](=O)[O-] (cis-trans isomerization)
C/C(O)=N\[C@@H]1[C@H](O)[C@H](O)[C@@H](CO)O[C@@H]1Oc1ccccc1[N+](=O)[O-] (3D coordinates assigned)
C/C(O)=N\[C@@H]1[C@H](O)[C@H](O)[C@@H](CO)O[C@@H]1Oc1ccccc1[N+](=O)[O-] (nonaromatic ring conformer: 52.68764705537755 kcal/mol)

$$$$
ZINC000015205949
 OpenBabel03032110343D

 42 43  0  0  0  0  0  0  0  0999 V2000
    0.2233    2.6481   -2.1864 H   0  0  0  0  0  0  0  0  0  0  0  0
    0.4972    3.0476   -1.2991 O   0  0  0  0  0  0  0  0  0  0  0  0
    0.2649    2.4293   -0.0674 C   0  0  0  0  0  0  0  0  0  0  0  0
   -0.3450    1.2829    0.0346 N   0  0  0  0  0  0  0  0  0  0  0  0
   -0.8513    0.4605   -1.0665 C   0  0  2  0  0  0  0  0  0  0  0  0
   -1.3512    1.1131   -1.8166 H   0  0  0  0  0  0  0  0  0  0  0  0
   -1.9236   -0.5031   -0.5337 C   0  0  2  0  0  0  0  0  0  0  0  0
   -2.7977    0.1047   -0.1983 H   0  0  0  0  0  0  0  0  0  0  0  0
   -1.4137   -1.2408    0.5509 O   0  0  0  0  0  0  0  0  0  0  0  0
   -2.1911   -1.5353    1.0932 H   0  0  0  0  0  0  0  0  0  0  0  0
   -2.3767   -1.4461   -1.6649 C   0  0  2  0  0  0  0  0  0  0  0  0
   -2.9100   -0.8416   -2.4363 H   0  0  0  0  0  0  0  0  0  0  0  0
   -3.2413   -2.4309   -1.1584 O   0  0  0  0  0  0  0  0  0  0  0  0
   -4.1100   -1.9843   -0.9807 H   0  0  0  0  0  0  0  0  0  0  0  0
   -1.1450   -2.1117   -2.3231 C   0  0  1  0  0  0  0  0  0  0  0  0
   -0.6425   -2.7718   -1.5791 H   0  0  0  0  0  0  0  0  0  0  0  0
   -1.5579   -3.0202   -3.4929 C   0  0  0  0  0  0  0  0  0  0  0  0
   -2.2317   -3.8238   -3.1270 H   0  0  0  0  0  0  0  0  0  0  0  0
   -0.6559   -3.5196   -3.9154 H   0  0  0  0  0  0  0  0  0  0  0  0
   -2.2243   -2.2934   -4.4914 O   0  0  0  0  0  0  0  0  0  0  0  0
   -1.5259   -1.8273   -5.0208 H   0  0  0  0  0  0  0  0  0  0  0  0
   -0.2378   -1.1326   -2.8101 O   0  0  0  0  0  0  0  0  0  0  0  0
    0.2873   -0.3298   -1.7642 C   0  0  2  0  0  0  0  0  0  0  0  0
    0.9713    0.3893   -2.2523 H   0  0  0  0  0  0  0  0  0  0  0  0
    1.0209   -1.1460   -0.8385 O   0  0  0  0  0  0  0  0  0  0  0  0
    2.0294   -0.7149    0.0384 C   0  0  0  0  0  0  0  0  0  0  0  0
    2.2810   -1.4865    1.1774 C   0  0  0  0  0  0  0  0  0  0  0  0
    1.7014   -2.3828    1.3590 H   0  0  0  0  0  0  0  0  0  0  0  0
    3.2621   -1.1036    2.0959 C   0  0  0  0  0  0  0  0  0  0  0  0
    3.4247   -1.7172    2.9726 H   0  0  0  0  0  0  0  0  0  0  0  0
    4.0219    0.0601    1.8836 C   0  0  0  0  0  0  0  0  0  0  0  0
    5.0304    0.4627    2.8283 N   0  3  0  0  0  0  0  0  0  0  0  0
    5.2460   -0.2124    3.8563 O   0  0  0  0  0  0  0  0  0  0  0  0
    5.7729    1.6018    2.6158 O   0  5  0  0  0  0  0  0  0  0  0  0
    3.7842    0.8236    0.7285 C   0  0  0  0  0  0  0  0  0  0  0  0
    4.3586    1.7195    0.5320 H   0  0  0  0  0  0  0  0  0  0  0  0
    2.8029    0.4383   -0.1897 C   0  0  0  0  0  0  0  0  0  0  0  0
    2.6677    1.0448   -1.0718 H   0  0  0  0  0  0  0  0  0  0  0  0
    0.7155    3.1183    1.1765 C   0  0  0  0  0  0  0  0  0  0  0  0
    1.1862    2.3873    1.8679 H   0  0  0  0  0  0  0  0  0  0  0  0
    1.4605    3.9034    0.9293 H   0  0  0  0  0  0  0  0  0  0  0  0
   -0.1563    3.5887    1.6768 H   0  0  0  0  0  0  0  0  0  0  0  0
  1  2  1  0  0  0  0
  2  3  1  0  0  0  0
  3  4  2  0  0  0  0
  3 39  1  0  0  0  0
  4  5  1  0  0  0  0
  5  6  1  6  0  0  0
  5  7  1  0  0  0  0
  7  8  1  1  0  0  0
  7  9  1  0  0  0  0
  7 11  1  0  0  0  0
  9 10  1  0  0  0  0
 11 12  1  6  0  0  0
 11 13  1  0  0  0  0
 11 15  1  0  0  0  0
 13 14  1  0  0  0  0
 15 16  1  1  0  0  0
 15 17  1  0  0  0  0
 15 22  1  0  0  0  0
 17 18  1  0  0  0  0
 17 19  1  0  0  0  0
 17 20  1  0  0  0  0
 20 21  1  0  0  0  0
 22 23  1  0  0  0  0
 23 24  1  6  0  0  0
 23 25  1  0  0  0  0
 23  5  1  0  0  0  0
 25 26  1  0  0  0  0
 26 27  2  0  0  0  0
 27 28  1  0  0  0  0
 27 29  1  0  0  0  0
 29 30  1  0  0  0  0
 29 31  2  0  0  0  0
 31 32  1  0  0  0  0
 31 35  1  0  0  0  0
 32 33  2  0  0  0  0
 32 34  1  0  0  0  0
 35 36  1  0  0  0  0
 35 37  2  0  0  0  0
 37 38  1  0  0  0  0
 37 26  1  0  0  0  0
 39 40  1  0  0  0  0
 39 41  1  0  0  0  0
 39 42  1  0  0  0  0
M  CHG  2  32   1  34  -1
M  END
>  <UniqueID>
219

>  <SMILES>
C/C(O)=N/[C@@H]1[C@H](O)[C@H](O)[C@@H](CO)O[C@@H]1Oc1ccc([N+](=O)[O-])cc1

>  <Energy>
44.86730244561036

>  <Genealogy>
CC(O)=N[C@@H]1[C@H](O)[C@H](O)[C@@H](CO)O[C@@H]1Oc1ccc([N+](=O)[O-])cc1 (tautomer)
C/C(O)=N/[C@@H]1[C@H](O)[C@H](O)[C@@H](CO)O[C@@H]1Oc1ccc([N+](=O)[O-])cc1 (cis-trans isomerization)
C/C(O)=N/[C@@H]1[C@H](O)[C@H](O)[C@@H](CO)O[C@@H]1Oc1ccc([N+](=O)[O-])cc1 (3D coordinates assigned)
C/C(O)=N/[C@@H]1[C@H](O)[C@H](O)[C@@H](CO)O[C@@H]1Oc1ccc([N+](=O)[O-])cc1 (nonaromatic ring conformer: 44.86730244561036 kcal/mol)

$$$$
ZINC000015205949
 OpenBabel03032110343D

 42 43  0  0  0  0  0  0  0  0999 V2000
   -1.3532   -2.7457   -1.1048 H   0  0  0  0  0  0  0  0  0  0  0  0
   -2.0434   -2.9376   -0.3920 O   0  0  0  0  0  0  0  0  0  0  0  0
   -1.8904   -2.5916    0.9540 C   0  0  0  0  0  0  0  0  0  0  0  0
   -0.8345   -1.9758    1.4055 N   0  0  0  0  0  0  0  0  0  0  0  0
    0.3244   -1.5145    0.6331 C   0  0  2  0  0  0  0  0  0  0  0  0
    0.5646   -2.2467   -0.1677 H   0  0  0  0  0  0  0  0  0  0  0  0
    1.5631   -1.4319    1.5403 C   0  0  2  0  0  0  0  0  0  0  0  0
    2.4486   -1.2738    0.8802 H   0  0  0  0  0  0  0  0  0  0  0  0
    1.7280   -2.6426    2.2340 O   0  0  0  0  0  0  0  0  0  0  0  0
    2.6513   -2.6401    2.5994 H   0  0  0  0  0  0  0  0  0  0  0  0
    1.4753   -0.2467    2.5261 C   0  0  2  0  0  0  0  0  0  0  0  0
    2.4923   -0.0832    2.9447 H   0  0  0  0  0  0  0  0  0  0  0  0
    0.6402   -0.5573    3.6176 O   0  0  0  0  0  0  0  0  0  0  0  0
   -0.3029   -0.4243    3.3416 H   0  0  0  0  0  0  0  0  0  0  0  0
    1.0192    1.0583    1.8164 C   0  0  1  0  0  0  0  0  0  0  0  0
    0.7131    1.7646    2.6194 H   0  0  0  0  0  0  0  0  0  0  0  0
    2.1586    1.7678    1.0494 C   0  0  0  0  0  0  0  0  0  0  0  0
    1.7400    2.5967    0.4350 H   0  0  0  0  0  0  0  0  0  0  0  0
    2.6706    1.0658    0.3609 H   0  0  0  0  0  0  0  0  0  0  0  0
    3.1157    2.2729    1.9422 O   0  0  0  0  0  0  0  0  0  0  0  0
    2.7334    3.1019    2.3327 H   0  0  0  0  0  0  0  0  0  0  0  0
   -0.1361    0.8591    1.0100 O   0  0  0  0  0  0  0  0  0  0  0  0
    0.0555   -0.1297    0.0084 C   0  0  2  0  0  0  0  0  0  0  0  0
    0.9049    0.1285   -0.6606 H   0  0  0  0  0  0  0  0  0  0  0  0
   -1.1190   -0.2011   -0.7984 O   0  0  0  0  0  0  0  0  0  0  0  0
   -1.6006    0.8274   -1.6221 C   0  0  0  0  0  0  0  0  0  0  0  0
   -0.9202    2.0472   -1.7904 C   0  0  0  0  0  0  0  0  0  0  0  0
    0.0154    2.2392   -1.2863 H   0  0  0  0  0  0  0  0  0  0  0  0
   -1.4456    3.0396   -2.6232 C   0  0  0  0  0  0  0  0  0  0  0  0
   -0.9022    3.9690   -2.7338 H   0  0  0  0  0  0  0  0  0  0  0  0
   -2.6577    2.8333   -3.3042 C   0  0  0  0  0  0  0  0  0  0  0  0
   -3.1965    3.8579   -4.1594 N   0  3  0  0  0  0  0  0  0  0  0  0
   -4.2725    3.6796   -4.7674 O   0  0  0  0  0  0  0  0  0  0  0  0
   -2.5345    5.0535   -4.3209 O   0  5  0  0  0  0  0  0  0  0  0  0
   -3.3320    1.6107   -3.1349 C   0  0  0  0  0  0  0  0  0  0  0  0
   -4.2669    1.4202   -3.6461 H   0  0  0  0  0  0  0  0  0  0  0  0
   -2.8050    0.6200   -2.3018 C   0  0  0  0  0  0  0  0  0  0  0  0
   -3.3370   -0.3155   -2.1818 H   0  0  0  0  0  0  0  0  0  0  0  0
   -2.9711   -2.9585    1.9140 C   0  0  0  0  0  0  0  0  0  0  0  0
   -2.5884   -3.7090    2.6375 H   0  0  0  0  0  0  0  0  0  0  0  0
   -3.3079   -2.0547    2.4649 H   0  0  0  0  0  0  0  0  0  0  0  0
   -3.8378   -3.3909    1.3705 H   0  0  0  0  0  0  0  0  0  0  0  0
  1  2  1  0  0  0  0
  2  3  1  0  0  0  0
  3  4  2  0  0  0  0
  3 39  1  0  0  0  0
  4  5  1  0  0  0  0
  5  6  1  6  0  0  0
  5  7  1  0  0  0  0
  7  8  1  6  0  0  0
  7  9  1  0  0  0  0
  7 11  1  0  0  0  0
  9 10  1  0  0  0  0
 11 12  1  1  0  0  0
 11 13  1  0  0  0  0
 11 15  1  0  0  0  0
 13 14  1  0  0  0  0
 15 16  1  1  0  0  0
 15 17  1  0  0  0  0
 15 22  1  0  0  0  0
 17 18  1  0  0  0  0
 17 19  1  0  0  0  0
 17 20  1  0  0  0  0
 20 21  1  0  0  0  0
 22 23  1  0  0  0  0
 23 24  1  6  0  0  0
 23 25  1  0  0  0  0
 23  5  1  0  0  0  0
 25 26  1  0  0  0  0
 26 27  2  0  0  0  0
 27 28  1  0  0  0  0
 27 29  1  0  0  0  0
 29 30  1  0  0  0  0
 29 31  2  0  0  0  0
 31 32  1  0  0  0  0
 31 35  1  0  0  0  0
 32 33  2  0  0  0  0
 32 34  1  0  0  0  0
 35 36  1  0  0  0  0
 35 37  2  0  0  0  0
 37 38  1  0  0  0  0
 37 26  1  0  0  0  0
 39 40  1  0  0  0  0
 39 41  1  0  0  0  0
 39 42  1  0  0  0  0
M  CHG  2  32   1  34  -1
M  END
>  <UniqueID>
220

>  <SMILES>
C/C(O)=N\[C@@H]1[C@H](O)[C@H](O)[C@@H](CO)O[C@@H]1Oc1ccc([N+](=O)[O-])cc1

>  <Energy>
47.80486310630416

>  <Genealogy>
CC(O)=N[C@@H]1[C@H](O)[C@H](O)[C@@H](CO)O[C@@H]1Oc1ccc([N+](=O)[O-])cc1 (tautomer)
C/C(O)=N\[C@@H]1[C@H](O)[C@H](O)[C@@H](CO)O[C@@H]1Oc1ccc([N+](=O)[O-])cc1 (cis-trans isomerization)
C/C(O)=N\[C@@H]1[C@H](O)[C@H](O)[C@@H](CO)O[C@@H]1Oc1ccc([N+](=O)[O-])cc1 (3D coordinates assigned)
C/C(O)=N\[C@@H]1[C@H](O)[C@H](O)[C@@H](CO)O[C@@H]1Oc1ccc([N+](=O)[O-])cc1 (nonaromatic ring conformer: 47.80486310630416 kcal/mol)

$$$$
ZINC000015205956
 OpenBabel03032110343D

 40 41  0  0  0  0  0  0  0  0999 V2000
   -0.8236   -4.5487   -0.6878 H   0  0  0  0  0  0  0  0  0  0  0  0
   -0.6523   -3.6596   -0.2338 O   0  0  0  0  0  0  0  0  0  0  0  0
   -1.6381   -3.0384    0.5326 C   0  0  0  0  0  0  0  0  0  0  0  0
   -1.4006   -1.9084    1.1288 N   0  0  0  0  0  0  0  0  0  0  0  0
   -0.1385   -1.1699    1.0365 C   0  0  2  0  0  0  0  0  0  0  0  0
    0.7103   -1.8822    1.1538 H   0  0  0  0  0  0  0  0  0  0  0  0
   -0.0415   -0.1540    2.1936 C   0  0  2  0  0  0  0  0  0  0  0  0
    0.1719   -0.7274    3.1226 H   0  0  0  0  0  0  0  0  0  0  0  0
   -1.2621    0.5178    2.4070 O   0  0  0  0  0  0  0  0  0  0  0  0
   -1.4323    1.1150    1.6363 H   0  0  0  0  0  0  0  0  0  0  0  0
    1.1375    0.8211    1.9735 C   0  0  2  0  0  0  0  0  0  0  0  0
    2.0763    0.2419    2.1209 H   0  0  0  0  0  0  0  0  0  0  0  0
    1.1185    1.8464    2.9369 O   0  0  0  0  0  0  0  0  0  0  0  0
    0.3611    2.4514    2.7239 H   0  0  0  0  0  0  0  0  0  0  0  0
    1.1498    1.3754    0.5227 C   0  0  1  0  0  0  0  0  0  0  0  0
    0.2615    2.0226    0.3443 H   0  0  0  0  0  0  0  0  0  0  0  0
    2.3898    2.2448    0.2654 C   0  0  0  0  0  0  0  0  0  0  0  0
    2.4399    2.4821   -0.8190 H   0  0  0  0  0  0  0  0  0  0  0  0
    3.3193    1.6828    0.5210 H   0  0  0  0  0  0  0  0  0  0  0  0
    2.3049    3.4577    0.9672 O   0  0  0  0  0  0  0  0  0  0  0  0
    2.9393    3.4008    1.7284 H   0  0  0  0  0  0  0  0  0  0  0  0
    1.1764    0.3065   -0.4096 O   0  0  0  0  0  0  0  0  0  0  0  0
    0.0007   -0.4858   -0.3429 C   0  0  2  0  0  0  0  0  0  0  0  0
    0.1010   -1.2939   -1.0984 H   0  0  0  0  0  0  0  0  0  0  0  0
   -1.1672    0.2765   -0.6645 O   0  0  0  0  0  0  0  0  0  0  0  0
   -1.4066    0.9038   -1.8964 C   0  0  0  0  0  0  0  0  0  0  0  0
   -0.5195    0.8009   -2.9868 C   0  0  0  0  0  0  0  0  0  0  0  0
    0.3909    0.2225   -2.9171 H   0  0  0  0  0  0  0  0  0  0  0  0
   -0.8073    1.4516   -4.1909 C   0  0  0  0  0  0  0  0  0  0  0  0
   -0.1233    1.3706   -5.0258 H   0  0  0  0  0  0  0  0  0  0  0  0
   -1.9766    2.2055   -4.3188 C   0  0  0  0  0  0  0  0  0  0  0  0
   -2.1973    2.7082   -5.2516 H   0  0  0  0  0  0  0  0  0  0  0  0
   -2.8611    2.3098   -3.2425 C   0  0  0  0  0  0  0  0  0  0  0  0
   -3.7670    2.8936   -3.3417 H   0  0  0  0  0  0  0  0  0  0  0  0
   -2.5766    1.6609   -2.0372 C   0  0  0  0  0  0  0  0  0  0  0  0
   -3.2665    1.7479   -1.2073 H   0  0  0  0  0  0  0  0  0  0  0  0
   -2.9691   -3.6956    0.7059 C   0  0  0  0  0  0  0  0  0  0  0  0
   -3.7363   -2.9527    1.0126 H   0  0  0  0  0  0  0  0  0  0  0  0
   -2.8929   -4.4829    1.4841 H   0  0  0  0  0  0  0  0  0  0  0  0
   -3.2879   -4.1584   -0.2514 H   0  0  0  0  0  0  0  0  0  0  0  0
  1  2  1  0  0  0  0
  2  3  1  0  0  0  0
  3  4  2  0  0  0  0
  3 37  1  0  0  0  0
  4  5  1  0  0  0  0
  5  6  1  1  0  0  0
  5  7  1  0  0  0  0
  7  8  1  1  0  0  0
  7  9  1  0  0  0  0
  7 11  1  0  0  0  0
  9 10  1  0  0  0  0
 11 12  1  1  0  0  0
 11 13  1  0  0  0  0
 11 15  1  0  0  0  0
 13 14  1  0  0  0  0
 15 16  1  6  0  0  0
 15 17  1  0  0  0  0
 15 22  1  0  0  0  0
 17 18  1  0  0  0  0
 17 19  1  0  0  0  0
 17 20  1  0  0  0  0
 20 21  1  0  0  0  0
 22 23  1  0  0  0  0
 23 24  1  6  0  0  0
 23 25  1  0  0  0  0
 23  5  1  0  0  0  0
 25 26  1  0  0  0  0
 26 27  2  0  0  0  0
 27 28  1  0  0  0  0
 27 29  1  0  0  0  0
 29 30  1  0  0  0  0
 29 31  2  0  0  0  0
 31 32  1  0  0  0  0
 31 33  1  0  0  0  0
 33 34  1  0  0  0  0
 33 35  2  0  0  0  0
 35 36  1  0  0  0  0
 35 26  1  0  0  0  0
 37 38  1  0  0  0  0
 37 39  1  0  0  0  0
 37 40  1  0  0  0  0
M  END
>  <UniqueID>
221

>  <SMILES>
C/C(O)=N\[C@@H]1[C@H](O)[C@H](O)[C@@H](CO)O[C@@H]1Oc1ccccc1

>  <Energy>
41.646466678698985

>  <Genealogy>
CC(O)=N[C@@H]1[C@H](O)[C@H](O)[C@@H](CO)O[C@@H]1Oc1ccccc1 (tautomer)
C/C(O)=N\[C@@H]1[C@H](O)[C@H](O)[C@@H](CO)O[C@@H]1Oc1ccccc1 (cis-trans isomerization)
C/C(O)=N\[C@@H]1[C@H](O)[C@H](O)[C@@H](CO)O[C@@H]1Oc1ccccc1 (3D coordinates assigned)
C/C(O)=N\[C@@H]1[C@H](O)[C@H](O)[C@@H](CO)O[C@@H]1Oc1ccccc1 (nonaromatic ring conformer: 41.646466678698985 kcal/mol)

$$$$
ZINC000015205956
 OpenBabel03032110343D

 40 41  0  0  0  0  0  0  0  0999 V2000
   -3.2301   -1.6352    2.1268 H   0  0  0  0  0  0  0  0  0  0  0  0
   -2.9079   -2.2581    1.3953 O   0  0  0  0  0  0  0  0  0  0  0  0
   -1.8005   -1.9387    0.6149 C   0  0  0  0  0  0  0  0  0  0  0  0
   -1.1806   -0.8119    0.8270 N   0  0  0  0  0  0  0  0  0  0  0  0
    0.0051   -0.3104    0.1196 C   0  0  2  0  0  0  0  0  0  0  0  0
    0.1189   -0.8144   -0.8619 H   0  0  0  0  0  0  0  0  0  0  0  0
    1.2814   -0.5633    0.9403 C   0  0  2  0  0  0  0  0  0  0  0  0
    2.1542   -0.3054    0.2959 H   0  0  0  0  0  0  0  0  0  0  0  0
    1.3662   -1.9202    1.2931 O   0  0  0  0  0  0  0  0  0  0  0  0
    2.2995   -2.0816    1.5909 H   0  0  0  0  0  0  0  0  0  0  0  0
    1.3125    0.3234    2.1997 C   0  0  2  0  0  0  0  0  0  0  0  0
    2.3327    0.2540    2.6437 H   0  0  0  0  0  0  0  0  0  0  0  0
    0.3755   -0.1542    3.1328 O   0  0  0  0  0  0  0  0  0  0  0  0
    0.6360    0.2124    4.0181 H   0  0  0  0  0  0  0  0  0  0  0  0
    0.9923    1.7992    1.8484 C   0  0  1  0  0  0  0  0  0  0  0  0
    0.7950    2.3204    2.8113 H   0  0  0  0  0  0  0  0  0  0  0  0
    2.1755    2.5582    1.2057 C   0  0  0  0  0  0  0  0  0  0  0  0
    1.8035    3.5266    0.8088 H   0  0  0  0  0  0  0  0  0  0  0  0
    2.6129    1.9978    0.3496 H   0  0  0  0  0  0  0  0  0  0  0  0
    3.1614    2.8355    2.1652 O   0  0  0  0  0  0  0  0  0  0  0  0
    3.7957    2.0722    2.1585 H   0  0  0  0  0  0  0  0  0  0  0  0
   -0.2049    1.9194    1.0889 O   0  0  0  0  0  0  0  0  0  0  0  0
   -0.1547    1.2024   -0.1348 C   0  0  2  0  0  0  0  0  0  0  0  0
    0.6802    1.5842   -0.7596 H   0  0  0  0  0  0  0  0  0  0  0  0
   -1.3790    1.4446   -0.8325 O   0  0  0  0  0  0  0  0  0  0  0  0
   -1.6433    1.1200   -2.1739 C   0  0  0  0  0  0  0  0  0  0  0  0
   -2.9625    1.2365   -2.6311 C   0  0  0  0  0  0  0  0  0  0  0  0
   -3.7409    1.5671   -1.9550 H   0  0  0  0  0  0  0  0  0  0  0  0
   -3.2868    0.9217   -3.9541 C   0  0  0  0  0  0  0  0  0  0  0  0
   -4.3098    1.0112   -4.2962 H   0  0  0  0  0  0  0  0  0  0  0  0
   -2.2918    0.4914   -4.8346 C   0  0  0  0  0  0  0  0  0  0  0  0
   -2.5434    0.2478   -5.8588 H   0  0  0  0  0  0  0  0  0  0  0  0
   -0.9711    0.3788   -4.3937 C   0  0  0  0  0  0  0  0  0  0  0  0
   -0.2001    0.0496   -5.0784 H   0  0  0  0  0  0  0  0  0  0  0  0
   -0.6426    0.6932   -3.0711 C   0  0  0  0  0  0  0  0  0  0  0  0
    0.3896    0.6044   -2.7655 H   0  0  0  0  0  0  0  0  0  0  0  0
   -1.3837   -2.9006   -0.4585 C   0  0  0  0  0  0  0  0  0  0  0  0
   -1.9972   -3.8239   -0.3990 H   0  0  0  0  0  0  0  0  0  0  0  0
   -1.5389   -2.4408   -1.4572 H   0  0  0  0  0  0  0  0  0  0  0  0
   -0.3182   -3.1835   -0.3354 H   0  0  0  0  0  0  0  0  0  0  0  0
  1  2  1  0  0  0  0
  2  3  1  0  0  0  0
  3  4  2  0  0  0  0
  3 37  1  0  0  0  0
  4  5  1  0  0  0  0
  5  6  1  6  0  0  0
  5  7  1  0  0  0  0
  7  8  1  6  0  0  0
  7  9  1  0  0  0  0
  7 11  1  0  0  0  0
  9 10  1  0  0  0  0
 11 12  1  1  0  0  0
 11 13  1  0  0  0  0
 11 15  1  0  0  0  0
 13 14  1  0  0  0  0
 15 16  1  1  0  0  0
 15 17  1  0  0  0  0
 15 22  1  0  0  0  0
 17 18  1  0  0  0  0
 17 19  1  0  0  0  0
 17 20  1  0  0  0  0
 20 21  1  0  0  0  0
 22 23  1  0  0  0  0
 23 24  1  6  0  0  0
 23 25  1  0  0  0  0
 23  5  1  0  0  0  0
 25 26  1  0  0  0  0
 26 27  2  0  0  0  0
 27 28  1  0  0  0  0
 27 29  1  0  0  0  0
 29 30  1  0  0  0  0
 29 31  2  0  0  0  0
 31 32  1  0  0  0  0
 31 33  1  0  0  0  0
 33 34  1  0  0  0  0
 33 35  2  0  0  0  0
 35 36  1  0  0  0  0
 35 26  1  0  0  0  0
 37 38  1  0  0  0  0
 37 39  1  0  0  0  0
 37 40  1  0  0  0  0
M  END
>  <UniqueID>
222

>  <SMILES>
C/C(O)=N\[C@@H]1[C@H](O)[C@H](O)[C@@H](CO)O[C@@H]1Oc1ccccc1

>  <Energy>
44.29462639315299

>  <Genealogy>
CC(O)=N[C@@H]1[C@H](O)[C@H](O)[C@@H](CO)O[C@@H]1Oc1ccccc1 (tautomer)
C/C(O)=N\[C@@H]1[C@H](O)[C@H](O)[C@@H](CO)O[C@@H]1Oc1ccccc1 (cis-trans isomerization)
C/C(O)=N\[C@@H]1[C@H](O)[C@H](O)[C@@H](CO)O[C@@H]1Oc1ccccc1 (3D coordinates assigned)
C/C(O)=N\[C@@H]1[C@H](O)[C@H](O)[C@@H](CO)O[C@@H]1Oc1ccccc1 (nonaromatic ring conformer: 44.29462639315299 kcal/mol)

$$$$
ZINC000019893747
 OpenBabel03032110343D

 46 47  0  0  0  0  0  0  0  0999 V2000
    2.4991   -3.3040    1.7749 H   0  0  0  0  0  0  0  0  0  0  0  0
    2.0820   -2.4245    1.4997 O   0  0  0  0  0  0  0  0  0  0  0  0
    2.0053   -2.0084    0.1673 C   0  0  0  0  0  0  0  0  0  0  0  0
    1.3309   -0.9376   -0.1363 N   0  0  0  0  0  0  0  0  0  0  0  0
    0.6574   -0.0680    0.8330 C   0  0  2  0  0  0  0  0  0  0  0  0
    0.2596   -0.6764    1.6777 H   0  0  0  0  0  0  0  0  0  0  0  0
   -0.5371    0.6294    0.1525 C   0  0  2  0  0  0  0  0  0  0  0  0
   -1.3210   -0.1472   -0.0144 H   0  0  0  0  0  0  0  0  0  0  0  0
   -0.0948    1.2567   -1.0404 O   0  0  0  0  0  0  0  0  0  0  0  0
   -1.0145    0.7304   -2.3667 S   0  0  0  0  0  0  0  0  0  0  0  0
   -2.4491    1.1492   -2.2051 O   0  0  0  0  0  0  0  0  0  0  0  0
   -0.9372   -0.7649   -2.5008 O   0  0  0  0  0  0  0  0  0  0  0  0
   -0.3562    1.4737   -3.8406 C   0  0  0  0  0  0  0  0  0  0  0  0
   -0.4078    2.5785   -3.7528 H   0  0  0  0  0  0  0  0  0  0  0  0
   -0.9476    1.1447   -4.7198 H   0  0  0  0  0  0  0  0  0  0  0  0
    0.7013    1.1638   -3.9701 H   0  0  0  0  0  0  0  0  0  0  0  0
   -1.1286    1.6839    1.1117 C   0  0  2  0  0  0  0  0  0  0  0  0
   -1.5819    1.1425    1.9721 H   0  0  0  0  0  0  0  0  0  0  0  0
   -2.1542    2.4147    0.4840 O   0  0  0  0  0  0  0  0  0  0  0  0
   -1.7352    3.0137   -0.1875 H   0  0  0  0  0  0  0  0  0  0  0  0
   -0.0111    2.6082    1.6597 C   0  0  1  0  0  0  0  0  0  0  0  0
    0.4402    3.1967    0.8262 H   0  0  0  0  0  0  0  0  0  0  0  0
   -0.5809    3.6119    2.6681 C   0  0  0  0  0  0  0  0  0  0  0  0
   -1.0465    3.0650    3.5191 H   0  0  0  0  0  0  0  0  0  0  0  0
   -1.3570    4.2409    2.1773 H   0  0  0  0  0  0  0  0  0  0  0  0
    0.4470    4.4356    3.1448 O   0  0  0  0  0  0  0  0  0  0  0  0
    0.0248    5.0540    3.7962 H   0  0  0  0  0  0  0  0  0  0  0  0
    0.9799    1.8322    2.3110 O   0  0  0  0  0  0  0  0  0  0  0  0
    1.6452    0.9853    1.3869 C   0  0  1  0  0  0  0  0  0  0  0  0
    2.0481    1.5723    0.5226 H   0  0  0  0  0  0  0  0  0  0  0  0
    2.6942    0.3143    2.0586 O   0  0  0  0  0  0  0  0  0  0  0  0
    3.7891    1.1848    2.2434 C   0  0  0  0  0  0  0  0  0  0  0  0
    3.4954    2.1004    2.8033 H   0  0  0  0  0  0  0  0  0  0  0  0
    4.2491    1.4566    1.2679 H   0  0  0  0  0  0  0  0  0  0  0  0
    4.5607    0.6589    2.8422 H   0  0  0  0  0  0  0  0  0  0  0  0
    2.6766   -2.7777   -0.9115 C   0  0  0  0  0  0  0  0  0  0  0  0
    3.7868   -3.5981   -0.6319 C   0  0  0  0  0  0  0  0  0  0  0  0
    4.1908   -3.6722    0.3683 H   0  0  0  0  0  0  0  0  0  0  0  0
    4.4168   -4.3122   -1.6561 C   0  0  0  0  0  0  0  0  0  0  0  0
    5.2707   -4.9384   -1.4318 H   0  0  0  0  0  0  0  0  0  0  0  0
    3.9536   -4.2121   -2.9694 C   0  0  0  0  0  0  0  0  0  0  0  0
    4.4438   -4.7651   -3.7602 H   0  0  0  0  0  0  0  0  0  0  0  0
    2.8628   -3.3921   -3.2631 C   0  0  0  0  0  0  0  0  0  0  0  0
    2.5073   -3.3107   -4.2822 H   0  0  0  0  0  0  0  0  0  0  0  0
    2.2295   -2.6753   -2.2435 C   0  0  0  0  0  0  0  0  0  0  0  0
    1.3860   -2.0479   -2.4971 H   0  0  0  0  0  0  0  0  0  0  0  0
  1  2  1  0  0  0  0
  2  3  1  0  0  0  0
  3  4  2  0  0  0  0
  3 36  1  0  0  0  0
  4  5  1  0  0  0  0
  5  6  1  1  0  0  0
  5  7  1  0  0  0  0
  7  8  1  6  0  0  0
  7  9  1  0  0  0  0
  7 17  1  0  0  0  0
  9 10  1  0  0  0  0
 10 11  2  0  0  0  0
 10 12  2  0  0  0  0
 10 13  1  0  0  0  0
 13 14  1  0  0  0  0
 13 15  1  0  0  0  0
 13 16  1  0  0  0  0
 17 18  1  1  0  0  0
 17 19  1  0  0  0  0
 17 21  1  0  0  0  0
 19 20  1  0  0  0  0
 21 22  1  6  0  0  0
 21 23  1  0  0  0  0
 21 28  1  0  0  0  0
 23 24  1  0  0  0  0
 23 25  1  0  0  0  0
 23 26  1  0  0  0  0
 26 27  1  0  0  0  0
 28 29  1  0  0  0  0
 29 30  1  6  0  0  0
 29 31  1  0  0  0  0
 29  5  1  0  0  0  0
 31 32  1  0  0  0  0
 32 33  1  0  0  0  0
 32 34  1  0  0  0  0
 32 35  1  0  0  0  0
 36 37  2  0  0  0  0
 37 38  1  0  0  0  0
 37 39  1  0  0  0  0
 39 40  1  0  0  0  0
 39 41  2  0  0  0  0
 41 42  1  0  0  0  0
 41 43  1  0  0  0  0
 43 44  1  0  0  0  0
 43 45  2  0  0  0  0
 45 46  1  0  0  0  0
 45 36  1  0  0  0  0
M  END
>  <UniqueID>
223

>  <SMILES>
CO[C@@H]1O[C@H](CO)[C@@H](O)[C@@H](OS(C)(=O)=O)[C@H]1/N=C(\O)c1ccccc1

>  <Energy>
47.7420756836188

>  <Genealogy>
CO[C@@H]1O[C@H](CO)[C@@H](O)[C@@H](OS(C)(=O)=O)[C@H]1N=C(O)c1ccccc1 (tautomer)
CO[C@@H]1O[C@H](CO)[C@@H](O)[C@@H](OS(C)(=O)=O)[C@H]1/N=C(\O)c1ccccc1 (cis-trans isomerization)
CO[C@@H]1O[C@H](CO)[C@@H](O)[C@@H](OS(C)(=O)=O)[C@H]1/N=C(\O)c1ccccc1 (3D coordinates assigned)
CO[C@@H]1O[C@H](CO)[C@@H](O)[C@@H](OS(C)(=O)=O)[C@H]1/N=C(\O)c1ccccc1 (nonaromatic ring conformer: 47.7420756836188 kcal/mol)

$$$$
ZINC000019893747
 OpenBabel03032110343D

 46 47  0  0  0  0  0  0  0  0999 V2000
   -3.9262    0.4499    3.8938 H   0  0  0  0  0  0  0  0  0  0  0  0
   -3.6361    0.9376    3.0541 O   0  0  0  0  0  0  0  0  0  0  0  0
   -2.8626    0.3073    2.0841 C   0  0  0  0  0  0  0  0  0  0  0  0
   -2.5244    0.9842    1.0226 N   0  0  0  0  0  0  0  0  0  0  0  0
   -1.6557    0.5264   -0.0675 C   0  0  2  0  0  0  0  0  0  0  0  0
   -1.8573   -0.5406   -0.2976 H   0  0  0  0  0  0  0  0  0  0  0  0
   -0.1683    0.6870    0.3125 C   0  0  2  0  0  0  0  0  0  0  0  0
    0.0516   -0.0320    1.1344 H   0  0  0  0  0  0  0  0  0  0  0  0
    0.0928    2.0405    0.6496 O   0  0  0  0  0  0  0  0  0  0  0  0
    0.6849    2.1815    2.2359 S   0  0  0  0  0  0  0  0  0  0  0  0
    0.9313    3.6365    2.5177 O   0  0  0  0  0  0  0  0  0  0  0  0
   -0.3314    1.6713    3.2167 O   0  0  0  0  0  0  0  0  0  0  0  0
    2.2235    1.3071    2.4566 C   0  0  0  0  0  0  0  0  0  0  0  0
    2.0768    0.2199    2.2950 H   0  0  0  0  0  0  0  0  0  0  0  0
    2.5920    1.4697    3.4904 H   0  0  0  0  0  0  0  0  0  0  0  0
    2.9780    1.6918    1.7400 H   0  0  0  0  0  0  0  0  0  0  0  0
    0.6853    0.2913   -0.9101 C   0  0  2  0  0  0  0  0  0  0  0  0
    0.5290   -0.7955   -1.0895 H   0  0  0  0  0  0  0  0  0  0  0  0
    2.0542    0.4846   -0.6522 O   0  0  0  0  0  0  0  0  0  0  0  0
    2.2275    1.4615   -0.6406 H   0  0  0  0  0  0  0  0  0  0  0  0
    0.2165    1.0730   -2.1697 C   0  0  1  0  0  0  0  0  0  0  0  0
    0.3914    2.1639   -2.0183 H   0  0  0  0  0  0  0  0  0  0  0  0
    1.0172    0.6713   -3.4173 C   0  0  0  0  0  0  0  0  0  0  0  0
    0.6988    1.3141   -4.2654 H   0  0  0  0  0  0  0  0  0  0  0  0
    2.1059    0.8545   -3.2634 H   0  0  0  0  0  0  0  0  0  0  0  0
    0.7730   -0.6663   -3.7644 O   0  0  0  0  0  0  0  0  0  0  0  0
    1.4554   -1.2155   -3.2975 H   0  0  0  0  0  0  0  0  0  0  0  0
   -1.1596    0.8332   -2.4181 O   0  0  0  0  0  0  0  0  0  0  0  0
   -1.9606    1.3226   -1.3517 C   0  0  1  0  0  0  0  0  0  0  0  0
   -1.7536    2.4054   -1.1576 H   0  0  0  0  0  0  0  0  0  0  0  0
   -3.3254    1.1328   -1.6757 O   0  0  0  0  0  0  0  0  0  0  0  0
   -3.7345    2.0869   -2.6322 C   0  0  0  0  0  0  0  0  0  0  0  0
   -3.1204    2.0274   -3.5576 H   0  0  0  0  0  0  0  0  0  0  0  0
   -4.7861    1.8747   -2.9142 H   0  0  0  0  0  0  0  0  0  0  0  0
   -3.7013    3.1153   -2.2099 H   0  0  0  0  0  0  0  0  0  0  0  0
   -2.4454   -1.0955    2.3020 C   0  0  0  0  0  0  0  0  0  0  0  0
   -2.9333   -2.1232    1.4781 C   0  0  0  0  0  0  0  0  0  0  0  0
   -3.6129   -1.8988    0.6651 H   0  0  0  0  0  0  0  0  0  0  0  0
   -2.5501   -3.4487    1.7048 C   0  0  0  0  0  0  0  0  0  0  0  0
   -2.9203   -4.2363    1.0616 H   0  0  0  0  0  0  0  0  0  0  0  0
   -1.6952   -3.7584    2.7661 C   0  0  0  0  0  0  0  0  0  0  0  0
   -1.3995   -4.7845    2.9415 H   0  0  0  0  0  0  0  0  0  0  0  0
   -1.2343   -2.7448    3.6110 C   0  0  0  0  0  0  0  0  0  0  0  0
   -0.5870   -2.9884    4.4439 H   0  0  0  0  0  0  0  0  0  0  0  0
   -1.6168   -1.4187    3.3879 C   0  0  0  0  0  0  0  0  0  0  0  0
   -1.2633   -0.6465    4.0588 H   0  0  0  0  0  0  0  0  0  0  0  0
  1  2  1  0  0  0  0
  2  3  1  0  0  0  0
  3  4  2  0  0  0  0
  3 36  1  0  0  0  0
  4  5  1  0  0  0  0
  5  6  1  6  0  0  0
  5  7  1  0  0  0  0
  7  8  1  1  0  0  0
  7  9  1  0  0  0  0
  7 17  1  0  0  0  0
  9 10  1  0  0  0  0
 10 11  2  0  0  0  0
 10 12  2  0  0  0  0
 10 13  1  0  0  0  0
 13 14  1  0  0  0  0
 13 15  1  0  0  0  0
 13 16  1  0  0  0  0
 17 18  1  6  0  0  0
 17 19  1  0  0  0  0
 17 21  1  0  0  0  0
 19 20  1  0  0  0  0
 21 22  1  1  0  0  0
 21 23  1  0  0  0  0
 21 28  1  0  0  0  0
 23 24  1  0  0  0  0
 23 25  1  0  0  0  0
 23 26  1  0  0  0  0
 26 27  1  0  0  0  0
 28 29  1  0  0  0  0
 29 30  1  1  0  0  0
 29 31  1  0  0  0  0
 29  5  1  0  0  0  0
 31 32  1  0  0  0  0
 32 33  1  0  0  0  0
 32 34  1  0  0  0  0
 32 35  1  0  0  0  0
 36 37  2  0  0  0  0
 37 38  1  0  0  0  0
 37 39  1  0  0  0  0
 39 40  1  0  0  0  0
 39 41  2  0  0  0  0
 41 42  1  0  0  0  0
 41 43  1  0  0  0  0
 43 44  1  0  0  0  0
 43 45  2  0  0  0  0
 45 46  1  0  0  0  0
 45 36  1  0  0  0  0
M  END
>  <UniqueID>
224

>  <SMILES>
CO[C@@H]1O[C@H](CO)[C@@H](O)[C@@H](OS(C)(=O)=O)[C@H]1/N=C(/O)c1ccccc1

>  <Energy>
53.109003955865155

>  <Genealogy>
CO[C@@H]1O[C@H](CO)[C@@H](O)[C@@H](OS(C)(=O)=O)[C@H]1N=C(O)c1ccccc1 (tautomer)
CO[C@@H]1O[C@H](CO)[C@@H](O)[C@@H](OS(C)(=O)=O)[C@H]1/N=C(/O)c1ccccc1 (cis-trans isomerization)
CO[C@@H]1O[C@H](CO)[C@@H](O)[C@@H](OS(C)(=O)=O)[C@H]1/N=C(/O)c1ccccc1 (3D coordinates assigned)
CO[C@@H]1O[C@H](CO)[C@@H](O)[C@@H](OS(C)(=O)=O)[C@H]1/N=C(/O)c1ccccc1 (nonaromatic ring conformer: 53.109003955865155 kcal/mol)

$$$$
ZINC000019898298
 OpenBabel03032110343D

 40 41  0  0  0  0  0  0  0  0999 V2000
   -1.3856   -3.3177   -0.1146 C   0  0  0  0  0  0  0  0  0  0  0  0
   -0.6285   -2.2947    0.4947 O   0  0  0  0  0  0  0  0  0  0  0  0
    0.1686   -1.6373   -0.4726 C   0  0  2  0  0  0  0  0  0  0  0  0
    1.2802   -2.4606   -0.7903 O   0  0  0  0  0  0  0  0  0  0  0  0
    2.0586   -1.8802   -1.8236 C   0  0  2  0  0  0  0  0  0  0  0  0
    3.1296   -2.8927   -2.2607 C   0  0  0  0  0  0  0  0  0  0  0  0
    3.9978   -3.2040   -1.2032 O   0  0  0  0  0  0  0  0  0  0  0  0
    2.6949   -0.5551   -1.3400 C   0  0  1  0  0  0  0  0  0  0  0  0
    3.4357    0.0297   -2.3808 O   0  0  0  0  0  0  0  0  0  0  0  0
    1.5958    0.4133   -0.8663 C   0  0  1  0  0  0  0  0  0  0  0  0
    0.8669    0.8786   -1.9767 O   0  0  0  0  0  0  0  0  0  0  0  0
    0.6608   -0.3035    0.1312 C   0  0  1  0  0  0  0  0  0  0  0  0
   -0.4723    0.5603    0.4853 N   0  0  0  0  0  0  0  0  0  0  0  0
   -0.3167    1.7145    1.3275 C   0  0  0  0  0  0  0  0  0  0  0  0
    0.7554    1.8749    1.9731 O   0  0  0  0  0  0  0  0  0  0  0  0
   -1.4037    2.7130    1.4639 C   0  0  0  0  0  0  0  0  0  0  0  0
   -2.3672    2.8803    0.4508 C   0  0  0  0  0  0  0  0  0  0  0  0
   -3.3822    3.8322    0.5900 C   0  0  0  0  0  0  0  0  0  0  0  0
   -3.4440    4.6298    1.7346 C   0  0  0  0  0  0  0  0  0  0  0  0
   -2.4872    4.4814    2.7408 C   0  0  0  0  0  0  0  0  0  0  0  0
   -1.4694    3.5320    2.6067 C   0  0  0  0  0  0  0  0  0  0  0  0
   -2.1344   -2.8923   -0.8186 H   0  0  0  0  0  0  0  0  0  0  0  0
   -0.7350   -4.0536   -0.6373 H   0  0  0  0  0  0  0  0  0  0  0  0
   -1.9411   -3.8637    0.6751 H   0  0  0  0  0  0  0  0  0  0  0  0
   -0.4347   -1.4084   -1.3877 H   0  0  0  0  0  0  0  0  0  0  0  0
    1.4250   -1.6825   -2.7203 H   0  0  0  0  0  0  0  0  0  0  0  0
    2.6374   -3.8170   -2.6415 H   0  0  0  0  0  0  0  0  0  0  0  0
    3.7248   -2.4730   -3.0992 H   0  0  0  0  0  0  0  0  0  0  0  0
    3.5252   -3.8611   -0.6285 H   0  0  0  0  0  0  0  0  0  0  0  0
    3.3678   -0.7761   -0.4777 H   0  0  0  0  0  0  0  0  0  0  0  0
    4.0211    0.7151   -1.9646 H   0  0  0  0  0  0  0  0  0  0  0  0
    2.0928    1.2702   -0.3533 H   0  0  0  0  0  0  0  0  0  0  0  0
    0.4798    1.7570   -1.7233 H   0  0  0  0  0  0  0  0  0  0  0  0
    1.2354   -0.5422    1.0549 H   0  0  0  0  0  0  0  0  0  0  0  0
   -1.4303    0.2982    0.1604 H   0  0  0  0  0  0  0  0  0  0  0  0
   -2.3273    2.2970   -0.4595 H   0  0  0  0  0  0  0  0  0  0  0  0
   -4.1179    3.9560   -0.1942 H   0  0  0  0  0  0  0  0  0  0  0  0
   -4.2301    5.3663    1.8394 H   0  0  0  0  0  0  0  0  0  0  0  0
   -2.5337    5.1026    3.6260 H   0  0  0  0  0  0  0  0  0  0  0  0
   -0.7403    3.4311    3.4011 H   0  0  0  0  0  0  0  0  0  0  0  0
  1  2  1  0  0  0  0
  1 22  1  0  0  0  0
  1 23  1  0  0  0  0
  1 24  1  0  0  0  0
  2  3  1  0  0  0  0
  3  4  1  0  0  0  0
  3 25  1  6  0  0  0
  4  5  1  0  0  0  0
  5  6  1  0  0  0  0
  5  8  1  0  0  0  0
  5 26  1  6  0  0  0
  6  7  1  0  0  0  0
  6 27  1  0  0  0  0
  6 28  1  0  0  0  0
  7 29  1  0  0  0  0
  8  9  1  0  0  0  0
  8 10  1  0  0  0  0
  8 30  1  1  0  0  0
  9 31  1  0  0  0  0
 10 11  1  0  0  0  0
 10 12  1  0  0  0  0
 10 32  1  1  0  0  0
 11 33  1  0  0  0  0
 12 13  1  0  0  0  0
 12  3  1  0  0  0  0
 12 34  1  1  0  0  0
 13 14  1  0  0  0  0
 13 35  1  0  0  0  0
 14 15  2  0  0  0  0
 14 16  1  0  0  0  0
 16 17  2  0  0  0  0
 17 18  1  0  0  0  0
 17 36  1  0  0  0  0
 18 19  2  0  0  0  0
 18 37  1  0  0  0  0
 19 20  1  0  0  0  0
 19 38  1  0  0  0  0
 20 21  2  0  0  0  0
 20 39  1  0  0  0  0
 21 16  1  0  0  0  0
 21 40  1  0  0  0  0
M  END
>  <UniqueID>
225

>  <SMILES>
CO[C@@H]1O[C@H](CO)[C@@H](O)[C@@H](O)[C@H]1NC(=O)c1ccccc1

>  <Energy>
41.938635285159485

>  <Genealogy>
CO[C@@H]1O[C@H](CO)[C@@H](O)[C@@H](O)[C@H]1NC(=O)c1ccccc1 (3D coordinates assigned)
CO[C@@H]1O[C@H](CO)[C@@H](O)[C@@H](O)[C@H]1NC(=O)c1ccccc1 (nonaromatic ring conformer: 41.938635285159485 kcal/mol)

$$$$
ZINC000019898298
 OpenBabel03032110343D

 40 41  0  0  0  0  0  0  0  0999 V2000
    1.0497   -2.7020   -0.1810 H   0  0  0  0  0  0  0  0  0  0  0  0
    1.9109   -2.1745   -0.2219 O   0  0  0  0  0  0  0  0  0  0  0  0
    1.9880   -0.7921   -0.0190 C   0  0  0  0  0  0  0  0  0  0  0  0
    0.9226   -0.0726    0.2000 N   0  0  0  0  0  0  0  0  0  0  0  0
   -0.4641   -0.5434    0.2391 C   0  0  2  0  0  0  0  0  0  0  0  0
   -0.5288   -1.4822    0.8333 H   0  0  0  0  0  0  0  0  0  0  0  0
   -0.9939   -0.7886   -1.1898 C   0  0  2  0  0  0  0  0  0  0  0  0
   -0.4698   -1.6730   -1.6209 H   0  0  0  0  0  0  0  0  0  0  0  0
   -0.7505    0.3479   -1.9839 O   0  0  0  0  0  0  0  0  0  0  0  0
   -0.6384    0.0330   -2.9187 H   0  0  0  0  0  0  0  0  0  0  0  0
   -2.5039   -1.0954   -1.1315 C   0  0  2  0  0  0  0  0  0  0  0  0
   -2.6227   -2.0745   -0.6173 H   0  0  0  0  0  0  0  0  0  0  0  0
   -3.0420   -1.2270   -2.4252 O   0  0  0  0  0  0  0  0  0  0  0  0
   -3.0813   -0.3233   -2.8339 H   0  0  0  0  0  0  0  0  0  0  0  0
   -3.2413   -0.0118   -0.3007 C   0  0  1  0  0  0  0  0  0  0  0  0
   -3.1573    0.9749   -0.8143 H   0  0  0  0  0  0  0  0  0  0  0  0
   -4.7421   -0.3140   -0.1773 C   0  0  0  0  0  0  0  0  0  0  0  0
   -5.2290    0.5224    0.3679 H   0  0  0  0  0  0  0  0  0  0  0  0
   -5.2172   -0.3644   -1.1845 H   0  0  0  0  0  0  0  0  0  0  0  0
   -4.9601   -1.4966    0.5467 O   0  0  0  0  0  0  0  0  0  0  0  0
   -5.0137   -2.2346   -0.1148 H   0  0  0  0  0  0  0  0  0  0  0  0
   -2.6861    0.0672    1.0017 O   0  0  0  0  0  0  0  0  0  0  0  0
   -1.3381    0.5110    0.9488 C   0  0  1  0  0  0  0  0  0  0  0  0
   -1.2547    1.4744    0.3841 H   0  0  0  0  0  0  0  0  0  0  0  0
   -0.8541    0.6710    2.2693 O   0  0  0  0  0  0  0  0  0  0  0  0
   -1.3696    1.8565    2.8351 C   0  0  0  0  0  0  0  0  0  0  0  0
   -2.4823    1.8620    2.8328 H   0  0  0  0  0  0  0  0  0  0  0  0
   -1.0368    1.9171    3.8915 H   0  0  0  0  0  0  0  0  0  0  0  0
   -0.9756    2.7528    2.3074 H   0  0  0  0  0  0  0  0  0  0  0  0
    3.3182   -0.1368   -0.0484 C   0  0  0  0  0  0  0  0  0  0  0  0
    4.4778   -0.8990   -0.2854 C   0  0  0  0  0  0  0  0  0  0  0  0
    4.4163   -1.9676   -0.4483 H   0  0  0  0  0  0  0  0  0  0  0  0
    5.7350   -0.2874   -0.3150 C   0  0  0  0  0  0  0  0  0  0  0  0
    6.6208   -0.8819   -0.4979 H   0  0  0  0  0  0  0  0  0  0  0  0
    5.8506    1.0887   -0.1091 C   0  0  0  0  0  0  0  0  0  0  0  0
    6.8249    1.5597   -0.1325 H   0  0  0  0  0  0  0  0  0  0  0  0
    4.7090    1.8572    0.1269 C   0  0  0  0  0  0  0  0  0  0  0  0
    4.8000    2.9239    0.2863 H   0  0  0  0  0  0  0  0  0  0  0  0
    3.4490    1.2517    0.1577 C   0  0  0  0  0  0  0  0  0  0  0  0
    2.5805    1.8713    0.3428 H   0  0  0  0  0  0  0  0  0  0  0  0
  1  2  1  0  0  0  0
  2  3  1  0  0  0  0
  3  4  2  0  0  0  0
  3 30  1  0  0  0  0
  4  5  1  0  0  0  0
  5  6  1  1  0  0  0
  5  7  1  0  0  0  0
  7  8  1  6  0  0  0
  7  9  1  0  0  0  0
  7 11  1  0  0  0  0
  9 10  1  0  0  0  0
 11 12  1  1  0  0  0
 11 13  1  0  0  0  0
 11 15  1  0  0  0  0
 13 14  1  0  0  0  0
 15 16  1  6  0  0  0
 15 17  1  0  0  0  0
 15 22  1  0  0  0  0
 17 18  1  0  0  0  0
 17 19  1  0  0  0  0
 17 20  1  0  0  0  0
 20 21  1  0  0  0  0
 22 23  1  0  0  0  0
 23 24  1  6  0  0  0
 23 25  1  0  0  0  0
 23  5  1  0  0  0  0
 25 26  1  0  0  0  0
 26 27  1  0  0  0  0
 26 28  1  0  0  0  0
 26 29  1  0  0  0  0
 30 31  2  0  0  0  0
 31 32  1  0  0  0  0
 31 33  1  0  0  0  0
 33 34  1  0  0  0  0
 33 35  2  0  0  0  0
 35 36  1  0  0  0  0
 35 37  1  0  0  0  0
 37 38  1  0  0  0  0
 37 39  2  0  0  0  0
 39 40  1  0  0  0  0
 39 30  1  0  0  0  0
M  END
>  <UniqueID>
226

>  <SMILES>
CO[C@@H]1O[C@H](CO)[C@@H](O)[C@@H](O)[C@H]1/N=C(\O)c1ccccc1

>  <Energy>
43.95855333110298

>  <Genealogy>
CO[C@@H]1O[C@H](CO)[C@@H](O)[C@@H](O)[C@H]1N=C(O)c1ccccc1 (tautomer)
CO[C@@H]1O[C@H](CO)[C@@H](O)[C@@H](O)[C@H]1/N=C(\O)c1ccccc1 (cis-trans isomerization)
CO[C@@H]1O[C@H](CO)[C@@H](O)[C@@H](O)[C@H]1/N=C(\O)c1ccccc1 (3D coordinates assigned)
CO[C@@H]1O[C@H](CO)[C@@H](O)[C@@H](O)[C@H]1/N=C(\O)c1ccccc1 (nonaromatic ring conformer: 43.95855333110298 kcal/mol)

$$$$
ZINC000032106887
 OpenBabel03032110343D

 39 41  0  0  0  0  0  0  0  0999 V2000
   -1.6075    1.1852   -2.7544 H   0  0  0  0  0  0  0  0  0  0  0  0
   -1.3302    0.5803   -2.0179 O   0  0  0  0  0  0  0  0  0  0  0  0
   -1.3266    1.3448   -0.8367 C   0  0  2  0  0  0  0  0  0  0  0  0
   -0.9714    2.3801   -1.0549 H   0  0  0  0  0  0  0  0  0  0  0  0
   -0.3724    0.7182    0.1850 C   0  0  2  0  0  0  0  0  0  0  0  0
   -0.3098    1.4179    1.0538 H   0  0  0  0  0  0  0  0  0  0  0  0
    0.9114    0.5315   -0.3767 O   0  0  0  0  0  0  0  0  0  0  0  0
    1.7812   -0.0176    0.6062 C   0  0  2  0  0  0  0  0  0  0  0  0
    1.8432    0.6498    1.4999 H   0  0  0  0  0  0  0  0  0  0  0  0
    3.1883   -0.0970    0.0529 C   0  0  0  0  0  0  0  0  0  0  0  0
    4.1021   -1.0432    0.5578 C   0  0  0  0  0  0  0  0  0  0  0  0
    3.8016   -1.7511    1.3199 H   0  0  0  0  0  0  0  0  0  0  0  0
    5.4177   -1.0818    0.0858 C   0  0  0  0  0  0  0  0  0  0  0  0
    6.1091   -1.8194    0.4724 H   0  0  0  0  0  0  0  0  0  0  0  0
    5.8445   -0.1644   -0.8764 C   0  0  0  0  0  0  0  0  0  0  0  0
    6.8640   -0.1944   -1.2383 H   0  0  0  0  0  0  0  0  0  0  0  0
    4.9596    0.8009   -1.3605 C   0  0  0  0  0  0  0  0  0  0  0  0
    5.2961    1.5219   -2.0943 H   0  0  0  0  0  0  0  0  0  0  0  0
    3.6428    0.8444   -0.8922 C   0  0  0  0  0  0  0  0  0  0  0  0
    2.9832    1.6166   -1.2673 H   0  0  0  0  0  0  0  0  0  0  0  0
    1.3428   -1.3178    0.9809 O   0  0  0  0  0  0  0  0  0  0  0  0
    0.0750   -1.2414    1.6042 C   0  0  0  0  0  0  0  0  0  0  0  0
    0.1349   -0.6567    2.5509 H   0  0  0  0  0  0  0  0  0  0  0  0
   -0.2520   -2.2689    1.8701 H   0  0  0  0  0  0  0  0  0  0  0  0
   -0.9419   -0.6298    0.6445 C   0  0  1  0  0  0  0  0  0  0  0  0
   -1.0353   -1.3292   -0.2189 H   0  0  0  0  0  0  0  0  0  0  0  0
   -2.1898   -0.4499    1.2906 O   0  0  0  0  0  0  0  0  0  0  0  0
   -3.1665    0.0456    0.3783 C   0  0  2  0  0  0  0  0  0  0  0  0
   -4.0977    0.2439    0.9596 H   0  0  0  0  0  0  0  0  0  0  0  0
   -3.4239   -0.8857   -0.6618 O   0  0  0  0  0  0  0  0  0  0  0  0
   -4.1533   -1.9842   -0.1604 C   0  0  0  0  0  0  0  0  0  0  0  0
   -5.1637   -1.6695    0.1821 H   0  0  0  0  0  0  0  0  0  0  0  0
   -4.2915   -2.7190   -0.9797 H   0  0  0  0  0  0  0  0  0  0  0  0
   -3.6057   -2.4975    0.6608 H   0  0  0  0  0  0  0  0  0  0  0  0
   -2.7405    1.4137   -0.2195 C   0  0  2  0  0  0  0  0  0  0  0  0
   -2.7126    2.1593    0.6079 H   0  0  0  0  0  0  0  0  0  0  0  0
   -3.7023    1.8717   -1.2193 N   0  0  0  0  0  0  0  0  0  0  0  0
   -4.8689    2.1217   -0.9137 N   0  3  0  0  0  0  0  0  0  0  0  0
   -6.0340    2.3709   -0.6086 N   0  5  0  0  0  0  0  0  0  0  0  0
  1  2  1  0  0  0  0
  2  3  1  0  0  0  0
  3  4  1  6  0  0  0
  3  5  1  0  0  0  0
  5  6  1  1  0  0  0
  5  7  1  0  0  0  0
  7  8  1  0  0  0  0
  8  9  1  1  0  0  0
  8 10  1  0  0  0  0
  8 21  1  0  0  0  0
 10 11  2  0  0  0  0
 11 12  1  0  0  0  0
 11 13  1  0  0  0  0
 13 14  1  0  0  0  0
 13 15  2  0  0  0  0
 15 16  1  0  0  0  0
 15 17  1  0  0  0  0
 17 18  1  0  0  0  0
 17 19  2  0  0  0  0
 19 20  1  0  0  0  0
 19 10  1  0  0  0  0
 21 22  1  0  0  0  0
 22 23  1  0  0  0  0
 22 24  1  0  0  0  0
 22 25  1  0  0  0  0
 25 26  1  6  0  0  0
 25 27  1  0  0  0  0
 25  5  1  0  0  0  0
 27 28  1  0  0  0  0
 28 29  1  1  0  0  0
 28 30  1  0  0  0  0
 28 35  1  0  0  0  0
 30 31  1  0  0  0  0
 31 32  1  0  0  0  0
 31 33  1  0  0  0  0
 31 34  1  0  0  0  0
 35 36  1  1  0  0  0
 35 37  1  0  0  0  0
 35  3  1  0  0  0  0
 37 38  2  0  0  0  0
 38 39  2  0  0  0  0
M  CHG  2  38   1  39  -1
M  END
>  <UniqueID>
227

>  <SMILES>
CO[C@H]1O[C@@H]2CO[C@@H](c3ccccc3)O[C@H]2[C@@H](O)[C@H]1N=[N+]=[N-]

>  <Energy>
50.41788203122478

>  <Genealogy>
CO[C@H]1O[C@@H]2CO[C@@H](c3ccccc3)O[C@H]2[C@@H](O)[C@H]1N=[N+]=[N-] (cis-trans isomerization)
CO[C@H]1O[C@@H]2CO[C@@H](c3ccccc3)O[C@H]2[C@@H](O)[C@H]1N=[N+]=[N-] (3D coordinates assigned)
CO[C@H]1O[C@@H]2CO[C@@H](c3ccccc3)O[C@H]2[C@@H](O)[C@H]1N=[N+]=[N-] (nonaromatic ring conformer: 50.41788203122478 kcal/mol)

$$$$
ZINC000032106887
 OpenBabel03032110343D

 39 41  0  0  0  0  0  0  0  0999 V2000
   -0.7862    1.9507   -1.5082 H   0  0  0  0  0  0  0  0  0  0  0  0
   -0.8916    2.5522   -0.7254 O   0  0  0  0  0  0  0  0  0  0  0  0
   -1.3392    1.7761    0.3622 C   0  0  2  0  0  0  0  0  0  0  0  0
   -1.2410    2.4128    1.2695 H   0  0  0  0  0  0  0  0  0  0  0  0
   -0.4504    0.5298    0.5971 C   0  0  2  0  0  0  0  0  0  0  0  0
   -0.4270    0.3353    1.6966 H   0  0  0  0  0  0  0  0  0  0  0  0
    0.8674    0.7561    0.1327 O   0  0  0  0  0  0  0  0  0  0  0  0
    1.6635   -0.3961    0.3648 C   0  0  2  0  0  0  0  0  0  0  0  0
    1.6805   -0.6450    1.4547 H   0  0  0  0  0  0  0  0  0  0  0  0
    3.0714   -0.0956   -0.0770 C   0  0  0  0  0  0  0  0  0  0  0  0
    3.3259    0.2795   -1.4082 C   0  0  0  0  0  0  0  0  0  0  0  0
    2.5130    0.3562   -2.1200 H   0  0  0  0  0  0  0  0  0  0  0  0
    4.6307    0.5576   -1.8265 C   0  0  0  0  0  0  0  0  0  0  0  0
    4.8195    0.8465   -2.8524 H   0  0  0  0  0  0  0  0  0  0  0  0
    5.6914    0.4628   -0.9220 C   0  0  0  0  0  0  0  0  0  0  0  0
    6.7009    0.6782   -1.2474 H   0  0  0  0  0  0  0  0  0  0  0  0
    5.4492    0.0891    0.4025 C   0  0  0  0  0  0  0  0  0  0  0  0
    6.2720    0.0154    1.1018 H   0  0  0  0  0  0  0  0  0  0  0  0
    4.1458   -0.1900    0.8259 C   0  0  0  0  0  0  0  0  0  0  0  0
    3.9779   -0.4788    1.8559 H   0  0  0  0  0  0  0  0  0  0  0  0
    1.1862   -1.5008   -0.3874 O   0  0  0  0  0  0  0  0  0  0  0  0
   -0.1078   -1.8608    0.0534 C   0  0  0  0  0  0  0  0  0  0  0  0
   -0.0823   -2.2058    1.1125 H   0  0  0  0  0  0  0  0  0  0  0  0
   -0.4657   -2.7132   -0.5621 H   0  0  0  0  0  0  0  0  0  0  0  0
   -1.0723   -0.6886   -0.1138 C   0  0  1  0  0  0  0  0  0  0  0  0
   -1.1500   -0.4770   -1.2034 H   0  0  0  0  0  0  0  0  0  0  0  0
   -2.3613   -1.0521    0.3740 O   0  0  0  0  0  0  0  0  0  0  0  0
   -3.1136    0.0277    0.9237 C   0  0  2  0  0  0  0  0  0  0  0  0
   -2.7940    0.1249    1.9914 H   0  0  0  0  0  0  0  0  0  0  0  0
   -4.4907   -0.2987    0.8203 O   0  0  0  0  0  0  0  0  0  0  0  0
   -5.1965    0.1011    1.9754 C   0  0  0  0  0  0  0  0  0  0  0  0
   -5.0679    1.1868    2.1787 H   0  0  0  0  0  0  0  0  0  0  0  0
   -4.8797   -0.4989    2.8566 H   0  0  0  0  0  0  0  0  0  0  0  0
   -6.2777   -0.0850    1.8116 H   0  0  0  0  0  0  0  0  0  0  0  0
   -2.8408    1.3934    0.2167 C   0  0  2  0  0  0  0  0  0  0  0  0
   -3.4362    2.1745    0.7369 H   0  0  0  0  0  0  0  0  0  0  0  0
   -3.2564    1.4093   -1.1950 N   0  0  0  0  0  0  0  0  0  0  0  0
   -3.7179    0.4284   -1.7814 N   0  3  0  0  0  0  0  0  0  0  0  0
   -4.1780   -0.5493   -2.3692 N   0  5  0  0  0  0  0  0  0  0  0  0
  1  2  1  0  0  0  0
  2  3  1  0  0  0  0
  3  4  1  1  0  0  0
  3  5  1  0  0  0  0
  5  6  1  1  0  0  0
  5  7  1  0  0  0  0
  7  8  1  0  0  0  0
  8  9  1  1  0  0  0
  8 10  1  0  0  0  0
  8 21  1  0  0  0  0
 10 11  2  0  0  0  0
 11 12  1  0  0  0  0
 11 13  1  0  0  0  0
 13 14  1  0  0  0  0
 13 15  2  0  0  0  0
 15 16  1  0  0  0  0
 15 17  1  0  0  0  0
 17 18  1  0  0  0  0
 17 19  2  0  0  0  0
 19 20  1  0  0  0  0
 19 10  1  0  0  0  0
 21 22  1  0  0  0  0
 22 23  1  0  0  0  0
 22 24  1  0  0  0  0
 22 25  1  0  0  0  0
 25 26  1  6  0  0  0
 25 27  1  0  0  0  0
 25  5  1  0  0  0  0
 27 28  1  0  0  0  0
 28 29  1  1  0  0  0
 28 30  1  0  0  0  0
 28 35  1  0  0  0  0
 30 31  1  0  0  0  0
 31 32  1  0  0  0  0
 31 33  1  0  0  0  0
 31 34  1  0  0  0  0
 35 36  1  1  0  0  0
 35 37  1  0  0  0  0
 35  3  1  0  0  0  0
 37 38  2  0  0  0  0
 38 39  2  0  0  0  0
M  CHG  2  38   1  39  -1
M  END
>  <UniqueID>
228

>  <SMILES>
CO[C@H]1O[C@@H]2CO[C@@H](c3ccccc3)O[C@H]2[C@@H](O)[C@H]1N=[N+]=[N-]

>  <Energy>
64.73789541334045

>  <Genealogy>
CO[C@H]1O[C@@H]2CO[C@@H](c3ccccc3)O[C@H]2[C@@H](O)[C@H]1N=[N+]=[N-] (cis-trans isomerization)
CO[C@H]1O[C@@H]2CO[C@@H](c3ccccc3)O[C@H]2[C@@H](O)[C@H]1N=[N+]=[N-] (3D coordinates assigned)
CO[C@H]1O[C@@H]2CO[C@@H](c3ccccc3)O[C@H]2[C@@H](O)[C@H]1N=[N+]=[N-] (nonaromatic ring conformer: 64.73789541334045 kcal/mol)

$$$$
ZINC000032106889
 OpenBabel03032110343D

 39 41  0  0  0  0  0  0  0  0999 V2000
    3.7548    0.3342   -1.5928 H   0  0  0  0  0  0  0  0  0  0  0  0
    3.5906    0.5074   -0.6288 O   0  0  0  0  0  0  0  0  0  0  0  0
    2.3834   -0.1340   -0.2920 C   0  0  2  0  0  0  0  0  0  0  0  0
    2.2988   -1.0845   -0.8727 H   0  0  0  0  0  0  0  0  0  0  0  0
    1.1640    0.7481   -0.6595 C   0  0  2  0  0  0  0  0  0  0  0  0
    0.3300    0.0605   -0.9331 H   0  0  0  0  0  0  0  0  0  0  0  0
    1.4686    1.5886   -1.7582 O   0  0  0  0  0  0  0  0  0  0  0  0
    0.3668    2.4218   -2.1058 C   0  0  1  0  0  0  0  0  0  0  0  0
    0.7516    3.1240   -2.8745 H   0  0  0  0  0  0  0  0  0  0  0  0
   -0.7686    1.6771   -2.7965 C   0  0  0  0  0  0  0  0  0  0  0  0
   -2.0735    2.2061   -2.7981 C   0  0  0  0  0  0  0  0  0  0  0  0
   -2.2977    3.1241   -2.2700 H   0  0  0  0  0  0  0  0  0  0  0  0
   -3.1028    1.5522   -3.4819 C   0  0  0  0  0  0  0  0  0  0  0  0
   -4.1058    1.9586   -3.4657 H   0  0  0  0  0  0  0  0  0  0  0  0
   -2.8372    0.3810   -4.1945 C   0  0  0  0  0  0  0  0  0  0  0  0
   -3.6348   -0.1224   -4.7254 H   0  0  0  0  0  0  0  0  0  0  0  0
   -1.5389   -0.1316   -4.2352 C   0  0  0  0  0  0  0  0  0  0  0  0
   -1.3304   -1.0296   -4.8023 H   0  0  0  0  0  0  0  0  0  0  0  0
   -0.5062    0.5188   -3.5532 C   0  0  0  0  0  0  0  0  0  0  0  0
    0.4965    0.1154   -3.6156 H   0  0  0  0  0  0  0  0  0  0  0  0
   -0.0609    3.2363   -1.0182 O   0  0  0  0  0  0  0  0  0  0  0  0
   -0.4258    2.4611    0.1065 C   0  0  0  0  0  0  0  0  0  0  0  0
   -1.3260    1.8434   -0.1088 H   0  0  0  0  0  0  0  0  0  0  0  0
   -0.6954    3.1510    0.9340 H   0  0  0  0  0  0  0  0  0  0  0  0
    0.7332    1.5841    0.5564 C   0  0  1  0  0  0  0  0  0  0  0  0
    1.5701    2.2532    0.8579 H   0  0  0  0  0  0  0  0  0  0  0  0
    0.3339    0.8117    1.6867 O   0  0  0  0  0  0  0  0  0  0  0  0
    0.9284   -0.4846    1.7569 C   0  0  2  0  0  0  0  0  0  0  0  0
    0.3351   -1.1893    1.1245 H   0  0  0  0  0  0  0  0  0  0  0  0
    0.9333   -0.9289    3.1011 O   0  0  0  0  0  0  0  0  0  0  0  0
   -0.3701   -1.2929    3.5017 C   0  0  0  0  0  0  0  0  0  0  0  0
   -0.7299   -2.1778    2.9318 H   0  0  0  0  0  0  0  0  0  0  0  0
   -1.0833   -0.4458    3.3954 H   0  0  0  0  0  0  0  0  0  0  0  0
   -0.3436   -1.5745    4.5742 H   0  0  0  0  0  0  0  0  0  0  0  0
    2.3807   -0.5077    1.2145 C   0  0  2  0  0  0  0  0  0  0  0  0
    2.7947   -1.5362    1.3190 H   0  0  0  0  0  0  0  0  0  0  0  0
    3.2280    0.4158    1.9730 N   0  0  0  0  0  0  0  0  0  0  0  0
    3.5342    0.1935    3.1450 N   0  3  0  0  0  0  0  0  0  0  0  0
    3.8406   -0.0278    4.3155 N   0  5  0  0  0  0  0  0  0  0  0  0
  1  2  1  0  0  0  0
  2  3  1  0  0  0  0
  3  4  1  6  0  0  0
  3  5  1  0  0  0  0
  5  6  1  6  0  0  0
  5  7  1  0  0  0  0
  7  8  1  0  0  0  0
  8  9  1  6  0  0  0
  8 10  1  0  0  0  0
  8 21  1  0  0  0  0
 10 11  2  0  0  0  0
 11 12  1  0  0  0  0
 11 13  1  0  0  0  0
 13 14  1  0  0  0  0
 13 15  2  0  0  0  0
 15 16  1  0  0  0  0
 15 17  1  0  0  0  0
 17 18  1  0  0  0  0
 17 19  2  0  0  0  0
 19 20  1  0  0  0  0
 19 10  1  0  0  0  0
 21 22  1  0  0  0  0
 22 23  1  0  0  0  0
 22 24  1  0  0  0  0
 22 25  1  0  0  0  0
 25 26  1  1  0  0  0
 25 27  1  0  0  0  0
 25  5  1  0  0  0  0
 27 28  1  0  0  0  0
 28 29  1  6  0  0  0
 28 30  1  0  0  0  0
 28 35  1  0  0  0  0
 30 31  1  0  0  0  0
 31 32  1  0  0  0  0
 31 33  1  0  0  0  0
 31 34  1  0  0  0  0
 35 36  1  1  0  0  0
 35 37  1  0  0  0  0
 35  3  1  0  0  0  0
 37 38  2  0  0  0  0
 38 39  2  0  0  0  0
M  CHG  2  38   1  39  -1
M  END
>  <UniqueID>
229

>  <SMILES>
CO[C@H]1O[C@@H]2CO[C@H](c3ccccc3)O[C@H]2[C@@H](O)[C@H]1N=[N+]=[N-]

>  <Energy>
65.59287181211691

>  <Genealogy>
CO[C@H]1O[C@@H]2CO[C@H](c3ccccc3)O[C@H]2[C@@H](O)[C@H]1N=[N+]=[N-] (cis-trans isomerization)
CO[C@H]1O[C@@H]2CO[C@H](c3ccccc3)O[C@H]2[C@@H](O)[C@H]1N=[N+]=[N-] (3D coordinates assigned)
CO[C@H]1O[C@@H]2CO[C@H](c3ccccc3)O[C@H]2[C@@H](O)[C@H]1N=[N+]=[N-] (nonaromatic ring conformer: 65.59287181211691 kcal/mol)

$$$$
ZINC000032106889
 OpenBabel03032110343D

 39 41  0  0  0  0  0  0  0  0999 V2000
    3.6392   -0.8509   -0.4983 H   0  0  0  0  0  0  0  0  0  0  0  0
    3.0103   -0.0830   -0.5298 O   0  0  0  0  0  0  0  0  0  0  0  0
    1.8521   -0.4809    0.1623 C   0  0  2  0  0  0  0  0  0  0  0  0
    1.5564   -1.4981   -0.1890 H   0  0  0  0  0  0  0  0  0  0  0  0
    0.6794    0.4666   -0.1695 C   0  0  2  0  0  0  0  0  0  0  0  0
   -0.2649   -0.1238   -0.1031 H   0  0  0  0  0  0  0  0  0  0  0  0
    0.8048    0.9718   -1.4868 O   0  0  0  0  0  0  0  0  0  0  0  0
   -0.1419    2.0000   -1.7772 C   0  0  1  0  0  0  0  0  0  0  0  0
    0.4228    2.9495   -1.9279 H   0  0  0  0  0  0  0  0  0  0  0  0
   -0.8511    1.6496   -3.0585 C   0  0  0  0  0  0  0  0  0  0  0  0
   -1.6155    0.4724   -3.1398 C   0  0  0  0  0  0  0  0  0  0  0  0
   -1.6984   -0.1872   -2.2850 H   0  0  0  0  0  0  0  0  0  0  0  0
   -2.2775    0.1410   -4.3260 C   0  0  0  0  0  0  0  0  0  0  0  0
   -2.8640   -0.7669   -4.3821 H   0  0  0  0  0  0  0  0  0  0  0  0
   -2.1832    0.9806   -5.4388 C   0  0  0  0  0  0  0  0  0  0  0  0
   -2.6964    0.7226   -6.3562 H   0  0  0  0  0  0  0  0  0  0  0  0
   -1.4270    2.1534   -5.3674 C   0  0  0  0  0  0  0  0  0  0  0  0
   -1.3554    2.8031   -6.2301 H   0  0  0  0  0  0  0  0  0  0  0  0
   -0.7630    2.4893   -4.1833 C   0  0  0  0  0  0  0  0  0  0  0  0
   -0.1821    3.4024   -4.1465 H   0  0  0  0  0  0  0  0  0  0  0  0
   -1.1165    2.1878   -0.7592 O   0  0  0  0  0  0  0  0  0  0  0  0
   -0.4861    2.5958    0.4391 C   0  0  0  0  0  0  0  0  0  0  0  0
   -1.2637    2.6496    1.2308 H   0  0  0  0  0  0  0  0  0  0  0  0
   -0.0773    3.6256    0.3267 H   0  0  0  0  0  0  0  0  0  0  0  0
    0.6229    1.6149    0.8601 C   0  0  1  0  0  0  0  0  0  0  0  0
    1.5895    2.1663    0.8233 H   0  0  0  0  0  0  0  0  0  0  0  0
    0.4077    1.1829    2.2026 O   0  0  0  0  0  0  0  0  0  0  0  0
    0.8417   -0.1498    2.4770 C   0  0  2  0  0  0  0  0  0  0  0  0
    0.0375   -0.8636    2.1732 H   0  0  0  0  0  0  0  0  0  0  0  0
    1.1140   -0.2770    3.8605 O   0  0  0  0  0  0  0  0  0  0  0  0
   -0.0911   -0.3286    4.5932 C   0  0  0  0  0  0  0  0  0  0  0  0
    0.1545   -0.3603    5.6744 H   0  0  0  0  0  0  0  0  0  0  0  0
   -0.7165    0.5746    4.4180 H   0  0  0  0  0  0  0  0  0  0  0  0
   -0.6644   -1.2509    4.3526 H   0  0  0  0  0  0  0  0  0  0  0  0
    2.1147   -0.5425    1.6930 C   0  0  2  0  0  0  0  0  0  0  0  0
    2.3818   -1.5920    1.9583 H   0  0  0  0  0  0  0  0  0  0  0  0
    3.2097    0.3521    2.0716 N   0  0  0  0  0  0  0  0  0  0  0  0
    4.2361   -0.0829    2.5948 N   0  3  0  0  0  0  0  0  0  0  0  0
    5.2613   -0.5173    3.1173 N   0  5  0  0  0  0  0  0  0  0  0  0
  1  2  1  0  0  0  0
  2  3  1  0  0  0  0
  3  4  1  6  0  0  0
  3  5  1  0  0  0  0
  5  6  1  1  0  0  0
  5  7  1  0  0  0  0
  7  8  1  0  0  0  0
  8  9  1  6  0  0  0
  8 10  1  0  0  0  0
  8 21  1  0  0  0  0
 10 11  2  0  0  0  0
 11 12  1  0  0  0  0
 11 13  1  0  0  0  0
 13 14  1  0  0  0  0
 13 15  2  0  0  0  0
 15 16  1  0  0  0  0
 15 17  1  0  0  0  0
 17 18  1  0  0  0  0
 17 19  2  0  0  0  0
 19 20  1  0  0  0  0
 19 10  1  0  0  0  0
 21 22  1  0  0  0  0
 22 23  1  0  0  0  0
 22 24  1  0  0  0  0
 22 25  1  0  0  0  0
 25 26  1  6  0  0  0
 25 27  1  0  0  0  0
 25  5  1  0  0  0  0
 27 28  1  0  0  0  0
 28 29  1  6  0  0  0
 28 30  1  0  0  0  0
 28 35  1  0  0  0  0
 30 31  1  0  0  0  0
 31 32  1  0  0  0  0
 31 33  1  0  0  0  0
 31 34  1  0  0  0  0
 35 36  1  1  0  0  0
 35 37  1  0  0  0  0
 35  3  1  0  0  0  0
 37 38  2  0  0  0  0
 38 39  2  0  0  0  0
M  CHG  2  38   1  39  -1
M  END
>  <UniqueID>
230

>  <SMILES>
CO[C@H]1O[C@@H]2CO[C@H](c3ccccc3)O[C@H]2[C@@H](O)[C@H]1N=[N+]=[N-]

>  <Energy>
66.94361401974479

>  <Genealogy>
CO[C@H]1O[C@@H]2CO[C@H](c3ccccc3)O[C@H]2[C@@H](O)[C@H]1N=[N+]=[N-] (cis-trans isomerization)
CO[C@H]1O[C@@H]2CO[C@H](c3ccccc3)O[C@H]2[C@@H](O)[C@H]1N=[N+]=[N-] (3D coordinates assigned)
CO[C@H]1O[C@@H]2CO[C@H](c3ccccc3)O[C@H]2[C@@H](O)[C@H]1N=[N+]=[N-] (nonaromatic ring conformer: 66.94361401974479 kcal/mol)

$$$$
ZINC000044021353
 OpenBabel03032110343D

 40 41  0  0  0  0  0  0  0  0999 V2000
    4.4612   -6.3464    0.1559 C   0  0  0  0  0  0  0  0  0  0  0  0
    4.3110   -5.0360   -0.3806 O   0  0  0  0  0  0  0  0  0  0  0  0
    3.2433   -4.1762   -0.0831 C   0  0  0  0  0  0  0  0  0  0  0  0
    3.2204   -2.9120   -0.6824 C   0  0  0  0  0  0  0  0  0  0  0  0
    2.1786   -2.0181   -0.4187 C   0  0  0  0  0  0  0  0  0  0  0  0
    1.1372   -2.3791    0.4545 C   0  0  0  0  0  0  0  0  0  0  0  0
    0.0255   -1.4543    0.7513 C   0  0  0  0  0  0  0  0  0  0  0  0
   -0.0270   -0.2764    0.2083 N   0  0  0  0  0  0  0  0  0  0  0  0
   -1.0984    0.6861    0.4701 C   0  0  2  0  0  0  0  0  0  0  0  0
   -1.1848    1.6895   -0.6994 C   0  0  2  0  0  0  0  0  0  0  0  0
    0.0898    2.1241   -1.1157 O   0  0  0  0  0  0  0  0  0  0  0  0
   -2.1068    2.8798   -0.3500 C   0  0  2  0  0  0  0  0  0  0  0  0
   -1.9688    3.8907   -1.3157 O   0  0  0  0  0  0  0  0  0  0  0  0
   -1.7815    3.4369    1.0589 C   0  0  1  0  0  0  0  0  0  0  0  0
   -2.7735    4.5399    1.4662 C   0  0  0  0  0  0  0  0  0  0  0  0
   -2.6269    5.6802    0.6627 O   0  0  0  0  0  0  0  0  0  0  0  0
   -1.8662    2.4027    2.0242 O   0  0  0  0  0  0  0  0  0  0  0  0
   -0.8610    1.4260    1.8091 C   0  0  1  0  0  0  0  0  0  0  0  0
   -0.8741    0.5154    2.8772 O   0  0  0  0  0  0  0  0  0  0  0  0
    1.1592   -3.6463    1.0563 C   0  0  0  0  0  0  0  0  0  0  0  0
    2.2020   -4.5395    0.7916 C   0  0  0  0  0  0  0  0  0  0  0  0
    4.5395   -6.2991    1.2626 H   0  0  0  0  0  0  0  0  0  0  0  0
    3.5994   -6.9812   -0.1398 H   0  0  0  0  0  0  0  0  0  0  0  0
    5.3904   -6.7987   -0.2470 H   0  0  0  0  0  0  0  0  0  0  0  0
    4.0156   -2.6206   -1.3570 H   0  0  0  0  0  0  0  0  0  0  0  0
    2.1897   -1.0471   -0.8978 H   0  0  0  0  0  0  0  0  0  0  0  0
   -0.7583   -1.7727    1.4297 H   0  0  0  0  0  0  0  0  0  0  0  0
   -2.0743    0.1502    0.5240 H   0  0  0  0  0  0  0  0  0  0  0  0
   -1.6399    1.1562   -1.5631 H   0  0  0  0  0  0  0  0  0  0  0  0
    0.5186    2.6036   -0.3626 H   0  0  0  0  0  0  0  0  0  0  0  0
   -3.1610    2.5131   -0.3401 H   0  0  0  0  0  0  0  0  0  0  0  0
   -2.4362    3.5723   -2.1318 H   0  0  0  0  0  0  0  0  0  0  0  0
   -0.7644    3.8927    1.0699 H   0  0  0  0  0  0  0  0  0  0  0  0
   -2.6149    4.8103    2.5354 H   0  0  0  0  0  0  0  0  0  0  0  0
   -3.8154    4.1655    1.3726 H   0  0  0  0  0  0  0  0  0  0  0  0
   -1.7990    6.1371    0.9651 H   0  0  0  0  0  0  0  0  0  0  0  0
    0.1460    1.9009    1.8080 H   0  0  0  0  0  0  0  0  0  0  0  0
   -1.8048    0.1806    2.9662 H   0  0  0  0  0  0  0  0  0  0  0  0
    0.3679   -3.9460    1.7328 H   0  0  0  0  0  0  0  0  0  0  0  0
    2.1887   -5.5083    1.2718 H   0  0  0  0  0  0  0  0  0  0  0  0
  1  2  1  0  0  0  0
  1 22  1  0  0  0  0
  1 23  1  0  0  0  0
  1 24  1  0  0  0  0
  2  3  1  0  0  0  0
  3  4  2  0  0  0  0
  4  5  1  0  0  0  0
  4 25  1  0  0  0  0
  5  6  2  0  0  0  0
  5 26  1  0  0  0  0
  6  7  1  0  0  0  0
  6 20  1  0  0  0  0
  7  8  2  0  0  0  0
  7 27  1  0  0  0  0
  8  9  1  0  0  0  0
  9 10  1  0  0  0  0
  9 28  1  1  0  0  0
 10 11  1  0  0  0  0
 10 12  1  0  0  0  0
 10 29  1  6  0  0  0
 11 30  1  0  0  0  0
 12 13  1  0  0  0  0
 12 14  1  0  0  0  0
 12 31  1  6  0  0  0
 13 32  1  0  0  0  0
 14 15  1  0  0  0  0
 14 17  1  0  0  0  0
 14 33  1  6  0  0  0
 15 16  1  0  0  0  0
 15 34  1  0  0  0  0
 15 35  1  0  0  0  0
 16 36  1  0  0  0  0
 17 18  1  0  0  0  0
 18 19  1  0  0  0  0
 18  9  1  0  0  0  0
 18 37  1  6  0  0  0
 19 38  1  0  0  0  0
 20 21  2  0  0  0  0
 20 39  1  0  0  0  0
 21  3  1  0  0  0  0
 21 40  1  0  0  0  0
M  END
>  <UniqueID>
231

>  <SMILES>
COc1ccc(/C=N/[C@@H]2[C@H](O)[C@H](O)[C@@H](CO)O[C@H]2O)cc1

>  <Energy>
40.344441485741676

>  <Genealogy>
COc1ccc(/C=N/[C@@H]2[C@H](O)[C@H](O)[C@@H](CO)O[C@H]2O)cc1 (3D coordinates assigned)
COc1ccc(/C=N/[C@@H]2[C@H](O)[C@H](O)[C@@H](CO)O[C@H]2O)cc1 (nonaromatic ring conformer: 40.344441485741676 kcal/mol)

$$$$
ZINC000044021353
 OpenBabel03032110343D

 40 41  0  0  0  0  0  0  0  0999 V2000
    4.7095   -6.0278   -0.5591 C   0  0  0  0  0  0  0  0  0  0  0  0
    4.3683   -4.9971    0.3621 O   0  0  0  0  0  0  0  0  0  0  0  0
    3.2871   -4.1177    0.2017 C   0  0  0  0  0  0  0  0  0  0  0  0
    2.4238   -4.1766   -0.9086 C   0  0  0  0  0  0  0  0  0  0  0  0
    1.3595   -3.2770   -1.0229 C   0  0  0  0  0  0  0  0  0  0  0  0
    1.1386   -2.3062   -0.0345 C   0  0  0  0  0  0  0  0  0  0  0  0
    0.0086   -1.3675   -0.1796 C   0  0  0  0  0  0  0  0  0  0  0  0
   -0.2237   -0.4564    0.7159 N   0  0  0  0  0  0  0  0  0  0  0  0
   -1.3268    0.5017    0.6135 C   0  0  2  0  0  0  0  0  0  0  0  0
   -1.0763    1.5088   -0.5336 C   0  0  2  0  0  0  0  0  0  0  0  0
    0.2990    1.7900   -0.6437 O   0  0  0  0  0  0  0  0  0  0  0  0
   -1.8549    2.8001   -0.2573 C   0  0  2  0  0  0  0  0  0  0  0  0
   -1.6630    3.6983   -1.3213 O   0  0  0  0  0  0  0  0  0  0  0  0
   -1.3593    3.4240    1.0800 C   0  0  1  0  0  0  0  0  0  0  0  0
   -2.4105    4.3359    1.7346 C   0  0  0  0  0  0  0  0  0  0  0  0
   -2.5983    5.4885    0.9607 O   0  0  0  0  0  0  0  0  0  0  0  0
   -0.8667    2.4728    2.0246 O   0  0  0  0  0  0  0  0  0  0  0  0
   -1.5284    1.2174    1.9784 C   0  0  1  0  0  0  0  0  0  0  0  0
   -2.8957    1.3737    2.2693 O   0  0  0  0  0  0  0  0  0  0  0  0
    2.0023   -2.2490    1.0737 C   0  0  0  0  0  0  0  0  0  0  0  0
    3.0660   -3.1489    1.1867 C   0  0  0  0  0  0  0  0  0  0  0  0
    3.8710   -6.7500   -0.6519 H   0  0  0  0  0  0  0  0  0  0  0  0
    5.6033   -6.5674   -0.1846 H   0  0  0  0  0  0  0  0  0  0  0  0
    4.9484   -5.5895   -1.5511 H   0  0  0  0  0  0  0  0  0  0  0  0
    2.5662   -4.9126   -1.6880 H   0  0  0  0  0  0  0  0  0  0  0  0
    0.7073   -3.3396   -1.8856 H   0  0  0  0  0  0  0  0  0  0  0  0
   -0.6327   -1.4430   -1.0511 H   0  0  0  0  0  0  0  0  0  0  0  0
   -2.2580   -0.0655    0.3825 H   0  0  0  0  0  0  0  0  0  0  0  0
   -1.4451    1.0540   -1.4838 H   0  0  0  0  0  0  0  0  0  0  0  0
    0.4560    2.1125   -1.5694 H   0  0  0  0  0  0  0  0  0  0  0  0
   -2.9366    2.5315   -0.1808 H   0  0  0  0  0  0  0  0  0  0  0  0
   -2.4695    4.2749   -1.3649 H   0  0  0  0  0  0  0  0  0  0  0  0
   -0.4895    4.0726    0.8324 H   0  0  0  0  0  0  0  0  0  0  0  0
   -3.3785    3.8011    1.8474 H   0  0  0  0  0  0  0  0  0  0  0  0
   -2.0529    4.6307    2.7467 H   0  0  0  0  0  0  0  0  0  0  0  0
   -3.2817    6.0306    1.4341 H   0  0  0  0  0  0  0  0  0  0  0  0
   -1.0770    0.5897    2.7820 H   0  0  0  0  0  0  0  0  0  0  0  0
   -3.2415    0.4789    2.5258 H   0  0  0  0  0  0  0  0  0  0  0  0
    1.8578   -1.5106    1.8524 H   0  0  0  0  0  0  0  0  0  0  0  0
    3.7230   -3.0932    2.0454 H   0  0  0  0  0  0  0  0  0  0  0  0
  1  2  1  0  0  0  0
  1 22  1  0  0  0  0
  1 23  1  0  0  0  0
  1 24  1  0  0  0  0
  2  3  1  0  0  0  0
  3  4  2  0  0  0  0
  4  5  1  0  0  0  0
  4 25  1  0  0  0  0
  5  6  2  0  0  0  0
  5 26  1  0  0  0  0
  6  7  1  0  0  0  0
  6 20  1  0  0  0  0
  7  8  2  0  0  0  0
  7 27  1  0  0  0  0
  8  9  1  0  0  0  0
  9 10  1  0  0  0  0
  9 28  1  6  0  0  0
 10 11  1  0  0  0  0
 10 12  1  0  0  0  0
 10 29  1  6  0  0  0
 11 30  1  0  0  0  0
 12 13  1  0  0  0  0
 12 14  1  0  0  0  0
 12 31  1  1  0  0  0
 13 32  1  0  0  0  0
 14 15  1  0  0  0  0
 14 17  1  0  0  0  0
 14 33  1  6  0  0  0
 15 16  1  0  0  0  0
 15 34  1  0  0  0  0
 15 35  1  0  0  0  0
 16 36  1  0  0  0  0
 17 18  1  0  0  0  0
 18 19  1  0  0  0  0
 18  9  1  0  0  0  0
 18 37  1  1  0  0  0
 19 38  1  0  0  0  0
 20 21  2  0  0  0  0
 20 39  1  0  0  0  0
 21  3  1  0  0  0  0
 21 40  1  0  0  0  0
M  END
>  <UniqueID>
232

>  <SMILES>
COc1ccc(/C=N/[C@@H]2[C@H](O)[C@H](O)[C@@H](CO)O[C@H]2O)cc1

>  <Energy>
49.05235903673406

>  <Genealogy>
COc1ccc(/C=N/[C@@H]2[C@H](O)[C@H](O)[C@@H](CO)O[C@H]2O)cc1 (3D coordinates assigned)
COc1ccc(/C=N/[C@@H]2[C@H](O)[C@H](O)[C@@H](CO)O[C@H]2O)cc1 (nonaromatic ring conformer: 49.05235903673406 kcal/mol)

$$$$
ZINC000056871016
 OpenBabel03032110343D

 33 33  0  0  0  0  0  0  0  0999 V2000
    3.2500    1.2064    1.2373 H   0  0  0  0  0  0  0  0  0  0  0  0
    2.6278    0.9702    2.0014 O   0  0  0  0  0  0  0  0  0  0  0  0
    1.2798    0.7061    1.7761 C   0  0  0  0  0  0  0  0  0  0  0  0
    0.8158    0.7761    0.5600 N   0  0  0  0  0  0  0  0  0  0  0  0
   -0.5618    0.5128    0.1298 C   0  0  2  0  0  0  0  0  0  0  0  0
   -1.2799    0.8535    0.9086 H   0  0  0  0  0  0  0  0  0  0  0  0
   -0.7725   -0.9943   -0.1347 C   0  0  2  0  0  0  0  0  0  0  0  0
   -0.7437   -1.5513    0.8295 H   0  0  0  0  0  0  0  0  0  0  0  0
    0.2247   -1.4864   -0.9976 O   0  0  0  0  0  0  0  0  0  0  0  0
    1.0112   -1.7111   -0.4349 H   0  0  0  0  0  0  0  0  0  0  0  0
   -2.1568   -1.2257   -0.7630 C   0  0  2  0  0  0  0  0  0  0  0  0
   -2.9265   -0.9840    0.0106 H   0  0  0  0  0  0  0  0  0  0  0  0
   -2.2635   -2.5709   -1.1590 O   0  0  0  0  0  0  0  0  0  0  0  0
   -3.2024   -2.8510   -0.9990 H   0  0  0  0  0  0  0  0  0  0  0  0
   -2.3511   -0.2839   -1.9768 C   0  0  1  0  0  0  0  0  0  0  0  0
   -1.6182   -0.5446   -2.7766 H   0  0  0  0  0  0  0  0  0  0  0  0
   -3.7542   -0.4469   -2.5795 C   0  0  0  0  0  0  0  0  0  0  0  0
   -3.8973   -1.4939   -2.9204 H   0  0  0  0  0  0  0  0  0  0  0  0
   -4.5347   -0.2284   -1.8141 H   0  0  0  0  0  0  0  0  0  0  0  0
   -3.9081    0.3934   -3.6921 O   0  0  0  0  0  0  0  0  0  0  0  0
   -4.1412    1.2930   -3.3427 H   0  0  0  0  0  0  0  0  0  0  0  0
   -2.1898    1.0663   -1.5742 O   0  0  0  0  0  0  0  0  0  0  0  0
   -0.8568    1.3117   -1.1538 C   0  0  1  0  0  0  0  0  0  0  0  0
   -0.1229    1.0006   -1.9401 H   0  0  0  0  0  0  0  0  0  0  0  0
   -0.7114    2.6891   -0.8626 O   0  0  0  0  0  0  0  0  0  0  0  0
   -0.6359    3.4327   -2.0596 C   0  0  0  0  0  0  0  0  0  0  0  0
   -1.5341    3.2757   -2.6973 H   0  0  0  0  0  0  0  0  0  0  0  0
   -0.5924    4.5110   -1.8030 H   0  0  0  0  0  0  0  0  0  0  0  0
    0.2896    3.1848   -2.6246 H   0  0  0  0  0  0  0  0  0  0  0  0
    0.4125    0.3715    2.9542 C   0  0  0  0  0  0  0  0  0  0  0  0
   -0.3778    1.1411    3.0768 H   0  0  0  0  0  0  0  0  0  0  0  0
    1.0246    0.3537    3.8802 H   0  0  0  0  0  0  0  0  0  0  0  0
   -0.0491   -0.6277    2.8281 H   0  0  0  0  0  0  0  0  0  0  0  0
  1  2  1  0  0  0  0
  2  3  1  0  0  0  0
  3  4  2  0  0  0  0
  3 30  1  0  0  0  0
  4  5  1  0  0  0  0
  5  6  1  1  0  0  0
  5  7  1  0  0  0  0
  7  8  1  1  0  0  0
  7  9  1  0  0  0  0
  7 11  1  0  0  0  0
  9 10  1  0  0  0  0
 11 12  1  1  0  0  0
 11 13  1  0  0  0  0
 11 15  1  0  0  0  0
 13 14  1  0  0  0  0
 15 16  1  6  0  0  0
 15 17  1  0  0  0  0
 15 22  1  0  0  0  0
 17 18  1  0  0  0  0
 17 19  1  0  0  0  0
 17 20  1  0  0  0  0
 20 21  1  0  0  0  0
 22 23  1  0  0  0  0
 23 24  1  6  0  0  0
 23 25  1  0  0  0  0
 23  5  1  0  0  0  0
 25 26  1  0  0  0  0
 26 27  1  0  0  0  0
 26 28  1  0  0  0  0
 26 29  1  0  0  0  0
 30 31  1  0  0  0  0
 30 32  1  0  0  0  0
 30 33  1  0  0  0  0
M  END
>  <UniqueID>
233

>  <SMILES>
CO[C@@H]1O[C@H](CO)[C@@H](O)[C@@H](O)[C@H]1/N=C(\C)O

>  <Energy>
30.867784371894107

>  <Genealogy>
CO[C@@H]1O[C@H](CO)[C@@H](O)[C@@H](O)[C@H]1N=C(C)O (tautomer)
CO[C@@H]1O[C@H](CO)[C@@H](O)[C@@H](O)[C@H]1/N=C(\C)O (cis-trans isomerization)
CO[C@@H]1O[C@H](CO)[C@@H](O)[C@@H](O)[C@H]1/N=C(\C)O (3D coordinates assigned)
CO[C@@H]1O[C@H](CO)[C@@H](O)[C@@H](O)[C@H]1/N=C(\C)O (nonaromatic ring conformer: 30.867784371894107 kcal/mol)

$$$$
ZINC000056871016
 OpenBabel03032110343D

 33 33  0  0  0  0  0  0  0  0999 V2000
    3.2030    2.3208   -4.0335 H   0  0  0  0  0  0  0  0  0  0  0  0
    2.8737    1.5962   -3.4070 O   0  0  0  0  0  0  0  0  0  0  0  0
    1.8792    1.8416   -2.4634 C   0  0  0  0  0  0  0  0  0  0  0  0
    1.4966    0.8581   -1.7002 N   0  0  0  0  0  0  0  0  0  0  0  0
    0.4846    0.9110   -0.6391 C   0  0  2  0  0  0  0  0  0  0  0  0
   -0.3243    1.6255   -0.9107 H   0  0  0  0  0  0  0  0  0  0  0  0
    1.1255    1.3463    0.6941 C   0  0  2  0  0  0  0  0  0  0  0  0
    1.4266    2.4157    0.6140 H   0  0  0  0  0  0  0  0  0  0  0  0
    2.2574    0.5517    0.9567 O   0  0  0  0  0  0  0  0  0  0  0  0
    2.8556    1.0817    1.5457 H   0  0  0  0  0  0  0  0  0  0  0  0
    0.1000    1.2120    1.8353 C   0  0  2  0  0  0  0  0  0  0  0  0
   -0.7003    1.9726    1.6625 H   0  0  0  0  0  0  0  0  0  0  0  0
    0.7391    1.4450    3.0660 O   0  0  0  0  0  0  0  0  0  0  0  0
    0.0858    1.9069    3.6537 H   0  0  0  0  0  0  0  0  0  0  0  0
   -0.5345   -0.1998    1.8100 C   0  0  1  0  0  0  0  0  0  0  0  0
    0.2479   -0.9664    2.0221 H   0  0  0  0  0  0  0  0  0  0  0  0
   -1.6121   -0.3381    2.8956 C   0  0  0  0  0  0  0  0  0  0  0  0
   -1.1707   -0.1927    3.9076 H   0  0  0  0  0  0  0  0  0  0  0  0
   -2.3918    0.4398    2.7485 H   0  0  0  0  0  0  0  0  0  0  0  0
   -2.2235   -1.5979    2.8212 O   0  0  0  0  0  0  0  0  0  0  0  0
   -1.5759   -2.2508    3.1957 H   0  0  0  0  0  0  0  0  0  0  0  0
   -1.1378   -0.4393    0.5492 O   0  0  0  0  0  0  0  0  0  0  0  0
   -0.1597   -0.4796   -0.4785 C   0  0  1  0  0  0  0  0  0  0  0  0
    0.6472   -1.2171   -0.2366 H   0  0  0  0  0  0  0  0  0  0  0  0
   -0.7881   -0.8207   -1.6999 O   0  0  0  0  0  0  0  0  0  0  0  0
   -1.0888   -2.1993   -1.7226 C   0  0  0  0  0  0  0  0  0  0  0  0
   -1.7396   -2.4912   -0.8686 H   0  0  0  0  0  0  0  0  0  0  0  0
   -1.6423   -2.4245   -2.6571 H   0  0  0  0  0  0  0  0  0  0  0  0
   -0.1588   -2.8095   -1.7283 H   0  0  0  0  0  0  0  0  0  0  0  0
    1.2669    3.2136   -2.3757 C   0  0  0  0  0  0  0  0  0  0  0  0
    1.3747    3.6246   -1.3525 H   0  0  0  0  0  0  0  0  0  0  0  0
    1.7712    3.9104   -3.0770 H   0  0  0  0  0  0  0  0  0  0  0  0
    0.1926    3.1663   -2.6502 H   0  0  0  0  0  0  0  0  0  0  0  0
  1  2  1  0  0  0  0
  2  3  1  0  0  0  0
  3  4  2  0  0  0  0
  3 30  1  0  0  0  0
  4  5  1  0  0  0  0
  5  6  1  6  0  0  0
  5  7  1  0  0  0  0
  7  8  1  6  0  0  0
  7  9  1  0  0  0  0
  7 11  1  0  0  0  0
  9 10  1  0  0  0  0
 11 12  1  6  0  0  0
 11 13  1  0  0  0  0
 11 15  1  0  0  0  0
 13 14  1  0  0  0  0
 15 16  1  1  0  0  0
 15 17  1  0  0  0  0
 15 22  1  0  0  0  0
 17 18  1  0  0  0  0
 17 19  1  0  0  0  0
 17 20  1  0  0  0  0
 20 21  1  0  0  0  0
 22 23  1  0  0  0  0
 23 24  1  1  0  0  0
 23 25  1  0  0  0  0
 23  5  1  0  0  0  0
 25 26  1  0  0  0  0
 26 27  1  0  0  0  0
 26 28  1  0  0  0  0
 26 29  1  0  0  0  0
 30 31  1  0  0  0  0
 30 32  1  0  0  0  0
 30 33  1  0  0  0  0
M  END
>  <UniqueID>
234

>  <SMILES>
CO[C@@H]1O[C@H](CO)[C@@H](O)[C@@H](O)[C@H]1/N=C(/C)O

>  <Energy>
31.10114128229588

>  <Genealogy>
CO[C@@H]1O[C@H](CO)[C@@H](O)[C@@H](O)[C@H]1N=C(C)O (tautomer)
CO[C@@H]1O[C@H](CO)[C@@H](O)[C@@H](O)[C@H]1/N=C(/C)O (cis-trans isomerization)
CO[C@@H]1O[C@H](CO)[C@@H](O)[C@@H](O)[C@H]1/N=C(/C)O (3D coordinates assigned)
CO[C@@H]1O[C@H](CO)[C@@H](O)[C@@H](O)[C@H]1/N=C(/C)O (nonaromatic ring conformer: 31.10114128229588 kcal/mol)

$$$$
ZINC000077269504
 OpenBabel03032110343D

 41 43  0  0  0  0  0  0  0  0999 V2000
   -3.3396   -1.1429   -4.7606 C   0  0  0  0  0  0  0  0  0  0  0  0
   -3.2835   -0.2932   -3.5331 C   0  0  0  0  0  0  0  0  0  0  0  0
   -4.1554    0.6000   -3.3553 O   0  0  0  0  0  0  0  0  0  0  0  0
   -2.2162   -0.4676   -2.5904 N   0  0  0  0  0  0  0  0  0  0  0  0
   -2.1218    0.3206   -1.3546 C   0  0  1  0  0  0  0  0  0  0  0  0
   -3.1911   -0.1326   -0.3260 C   0  0  1  0  0  0  0  0  0  0  0  0
   -3.1245   -1.5209   -0.1137 O   0  0  0  0  0  0  0  0  0  0  0  0
   -3.0806    0.5796    0.9021 O   0  0  0  0  0  0  0  0  0  0  0  0
   -1.8049    0.3842    1.4876 C   0  0  2  0  0  0  0  0  0  0  0  0
   -1.7235    1.0947    2.8360 C   0  0  0  0  0  0  0  0  0  0  0  0
   -0.4177    0.9795    3.3677 O   0  0  0  0  0  0  0  0  0  0  0  0
    0.5253    1.5555    2.4746 C   0  0  1  0  0  0  0  0  0  0  0  0
    1.8908    1.4608    3.1024 C   0  0  0  0  0  0  0  0  0  0  0  0
    2.4423    0.2018    3.3995 C   0  0  0  0  0  0  0  0  0  0  0  0
    3.7089    0.1056    3.9837 C   0  0  0  0  0  0  0  0  0  0  0  0
    4.4347    1.2630    4.2770 C   0  0  0  0  0  0  0  0  0  0  0  0
    3.8948    2.5187    3.9868 C   0  0  0  0  0  0  0  0  0  0  0  0
    2.6284    2.6203    3.4023 C   0  0  0  0  0  0  0  0  0  0  0  0
    0.5526    0.8552    1.2383 O   0  0  0  0  0  0  0  0  0  0  0  0
   -0.7026    0.9767    0.5991 C   0  0  1  0  0  0  0  0  0  0  0  0
   -0.7010    0.2449   -0.7502 C   0  0  1  0  0  0  0  0  0  0  0  0
   -0.3113   -1.0965   -0.5807 O   0  0  0  0  0  0  0  0  0  0  0  0
   -4.3332   -1.0562   -5.2494 H   0  0  0  0  0  0  0  0  0  0  0  0
   -2.5543   -0.8150   -5.4729 H   0  0  0  0  0  0  0  0  0  0  0  0
   -3.1671   -2.2055   -4.4897 H   0  0  0  0  0  0  0  0  0  0  0  0
   -1.4602   -1.1480   -2.8319 H   0  0  0  0  0  0  0  0  0  0  0  0
   -2.3156    1.3888   -1.6037 H   0  0  0  0  0  0  0  0  0  0  0  0
   -4.1891    0.1061   -0.7560 H   0  0  0  0  0  0  0  0  0  0  0  0
   -3.8991   -1.7536    0.4617 H   0  0  0  0  0  0  0  0  0  0  0  0
   -1.6144   -0.6981    1.6766 H   0  0  0  0  0  0  0  0  0  0  0  0
   -2.0184    2.1652    2.7430 H   0  0  0  0  0  0  0  0  0  0  0  0
   -2.4362    0.6155    3.5401 H   0  0  0  0  0  0  0  0  0  0  0  0
    0.2880    2.6347    2.3055 H   0  0  0  0  0  0  0  0  0  0  0  0
    1.8903   -0.7035    3.1778 H   0  0  0  0  0  0  0  0  0  0  0  0
    4.1278   -0.8666    4.2093 H   0  0  0  0  0  0  0  0  0  0  0  0
    5.4150    1.1869    4.7293 H   0  0  0  0  0  0  0  0  0  0  0  0
    4.4581    3.4144    4.2150 H   0  0  0  0  0  0  0  0  0  0  0  0
    2.2264    3.6021    3.1852 H   0  0  0  0  0  0  0  0  0  0  0  0
   -0.9201    2.0530    0.3938 H   0  0  0  0  0  0  0  0  0  0  0  0
    0.0038    0.7598   -1.4452 H   0  0  0  0  0  0  0  0  0  0  0  0
    0.6803   -1.1056   -0.5336 H   0  0  0  0  0  0  0  0  0  0  0  0
  1  2  1  0  0  0  0
  1 23  1  0  0  0  0
  1 24  1  0  0  0  0
  1 25  1  0  0  0  0
  2  3  2  0  0  0  0
  2  4  1  0  0  0  0
  4  5  1  0  0  0  0
  4 26  1  0  0  0  0
  5  6  1  0  0  0  0
  5 27  1  6  0  0  0
  6  7  1  0  0  0  0
  6  8  1  0  0  0  0
  6 28  1  6  0  0  0
  7 29  1  0  0  0  0
  8  9  1  0  0  0  0
  9 10  1  0  0  0  0
  9 30  1  1  0  0  0
 10 11  1  0  0  0  0
 10 31  1  0  0  0  0
 10 32  1  0  0  0  0
 11 12  1  0  0  0  0
 12 13  1  0  0  0  0
 12 19  1  0  0  0  0
 12 33  1  6  0  0  0
 13 14  2  0  0  0  0
 14 15  1  0  0  0  0
 14 34  1  0  0  0  0
 15 16  2  0  0  0  0
 15 35  1  0  0  0  0
 16 17  1  0  0  0  0
 16 36  1  0  0  0  0
 17 18  2  0  0  0  0
 17 37  1  0  0  0  0
 18 13  1  0  0  0  0
 18 38  1  0  0  0  0
 19 20  1  0  0  0  0
 20 21  1  0  0  0  0
 20  9  1  0  0  0  0
 20 39  1  6  0  0  0
 21 22  1  0  0  0  0
 21  5  1  0  0  0  0
 21 40  1  6  0  0  0
 22 41  1  0  0  0  0
M  END
>  <UniqueID>
235

>  <SMILES>
CC(=O)N[C@H]1[C@@H](O)O[C@@H]2CO[C@@H](c3ccccc3)O[C@H]2[C@H]1O

>  <Energy>
47.597636611914396

>  <Genealogy>
CC(=O)N[C@H]1[C@@H](O)O[C@@H]2CO[C@@H](c3ccccc3)O[C@H]2[C@H]1O (3D coordinates assigned)
CC(=O)N[C@H]1[C@@H](O)O[C@@H]2CO[C@@H](c3ccccc3)O[C@H]2[C@H]1O (nonaromatic ring conformer: 47.597636611914396 kcal/mol)

$$$$
ZINC000077269504
 OpenBabel03032110343D

 41 43  0  0  0  0  0  0  0  0999 V2000
    3.0472   -2.9707   -2.5752 H   0  0  0  0  0  0  0  0  0  0  0  0
    2.9089   -2.3316   -1.8016 O   0  0  0  0  0  0  0  0  0  0  0  0
    3.7735   -1.2582   -1.5885 C   0  0  0  0  0  0  0  0  0  0  0  0
    3.5992   -0.4570   -0.5804 N   0  0  0  0  0  0  0  0  0  0  0  0
    2.5016   -0.5664    0.3834 C   0  0  1  0  0  0  0  0  0  0  0  0
    2.4016   -1.6311    0.6964 H   0  0  0  0  0  0  0  0  0  0  0  0
    2.8324    0.2524    1.6586 C   0  0  1  0  0  0  0  0  0  0  0  0
    3.7016   -0.2388    2.1549 H   0  0  0  0  0  0  0  0  0  0  0  0
    3.1770    1.5820    1.3470 O   0  0  0  0  0  0  0  0  0  0  0  0
    4.1245    1.5776    1.0509 H   0  0  0  0  0  0  0  0  0  0  0  0
    1.7600    0.2249    2.5926 O   0  0  0  0  0  0  0  0  0  0  0  0
    0.5827    0.7735    2.0250 C   0  0  2  0  0  0  0  0  0  0  0  0
    0.7513    1.8241    1.6913 H   0  0  0  0  0  0  0  0  0  0  0  0
   -0.5417    0.8091    3.0565 C   0  0  0  0  0  0  0  0  0  0  0  0
   -0.2624    1.5105    3.8710 H   0  0  0  0  0  0  0  0  0  0  0  0
   -0.6929   -0.1932    3.5191 H   0  0  0  0  0  0  0  0  0  0  0  0
   -1.7371    1.2687    2.4554 O   0  0  0  0  0  0  0  0  0  0  0  0
   -2.1066    0.4113    1.3842 C   0  0  1  0  0  0  0  0  0  0  0  0
   -2.2603   -0.6304    1.7595 H   0  0  0  0  0  0  0  0  0  0  0  0
   -3.4067    0.9064    0.8078 C   0  0  0  0  0  0  0  0  0  0  0  0
   -4.5548    0.0939    0.8162 C   0  0  0  0  0  0  0  0  0  0  0  0
   -4.5229   -0.9030    1.2376 H   0  0  0  0  0  0  0  0  0  0  0  0
   -5.7563    0.5658    0.2779 C   0  0  0  0  0  0  0  0  0  0  0  0
   -6.6366   -0.0640    0.2869 H   0  0  0  0  0  0  0  0  0  0  0  0
   -5.8227    1.8488   -0.2715 C   0  0  0  0  0  0  0  0  0  0  0  0
   -6.7536    2.2118   -0.6875 H   0  0  0  0  0  0  0  0  0  0  0  0
   -4.6875    2.6633   -0.2838 C   0  0  0  0  0  0  0  0  0  0  0  0
   -4.7400    3.6570   -0.7095 H   0  0  0  0  0  0  0  0  0  0  0  0
   -3.4840    2.1963    0.2531 C   0  0  0  0  0  0  0  0  0  0  0  0
   -2.6115    2.8382    0.2371 H   0  0  0  0  0  0  0  0  0  0  0  0
   -1.1269    0.4269    0.3543 O   0  0  0  0  0  0  0  0  0  0  0  0
    0.0906   -0.0885    0.8549 C   0  0  1  0  0  0  0  0  0  0  0  0
   -0.0551   -1.1418    1.1976 H   0  0  0  0  0  0  0  0  0  0  0  0
    1.1610   -0.1108   -0.2412 C   0  0  1  0  0  0  0  0  0  0  0  0
    0.8411   -0.8457   -1.0166 H   0  0  0  0  0  0  0  0  0  0  0  0
    1.2839    1.1673   -0.8159 O   0  0  0  0  0  0  0  0  0  0  0  0
    1.6636    1.0411   -1.7243 H   0  0  0  0  0  0  0  0  0  0  0  0
    4.9361   -1.0468   -2.5037 C   0  0  0  0  0  0  0  0  0  0  0  0
    5.3030   -0.0003   -2.4363 H   0  0  0  0  0  0  0  0  0  0  0  0
    5.7566   -1.7393   -2.2231 H   0  0  0  0  0  0  0  0  0  0  0  0
    4.6313   -1.2481   -3.5519 H   0  0  0  0  0  0  0  0  0  0  0  0
  1  2  1  0  0  0  0
  2  3  1  0  0  0  0
  3  4  2  0  0  0  0
  3 38  1  0  0  0  0
  4  5  1  0  0  0  0
  5  6  1  1  0  0  0
  5  7  1  0  0  0  0
  7  8  1  1  0  0  0
  7  9  1  0  0  0  0
  7 11  1  0  0  0  0
  9 10  1  0  0  0  0
 11 12  1  0  0  0  0
 12 13  1  6  0  0  0
 12 14  1  0  0  0  0
 14 15  1  0  0  0  0
 14 16  1  0  0  0  0
 14 17  1  0  0  0  0
 17 18  1  0  0  0  0
 18 19  1  1  0  0  0
 18 20  1  0  0  0  0
 18 31  1  0  0  0  0
 20 21  2  0  0  0  0
 21 22  1  0  0  0  0
 21 23  1  0  0  0  0
 23 24  1  0  0  0  0
 23 25  2  0  0  0  0
 25 26  1  0  0  0  0
 25 27  1  0  0  0  0
 27 28  1  0  0  0  0
 27 29  2  0  0  0  0
 29 30  1  0  0  0  0
 29 20  1  0  0  0  0
 31 32  1  0  0  0  0
 32 33  1  1  0  0  0
 32 34  1  0  0  0  0
 32 12  1  0  0  0  0
 34 35  1  6  0  0  0
 34 36  1  0  0  0  0
 34  5  1  0  0  0  0
 36 37  1  0  0  0  0
 38 39  1  0  0  0  0
 38 40  1  0  0  0  0
 38 41  1  0  0  0  0
M  END
>  <UniqueID>
236

>  <SMILES>
C/C(O)=N\[C@H]1[C@@H](O)O[C@@H]2CO[C@@H](c3ccccc3)O[C@H]2[C@H]1O

>  <Energy>
48.03382814000505

>  <Genealogy>
CC(O)=N[C@H]1[C@@H](O)O[C@@H]2CO[C@@H](c3ccccc3)O[C@H]2[C@H]1O (tautomer)
C/C(O)=N\[C@H]1[C@@H](O)O[C@@H]2CO[C@@H](c3ccccc3)O[C@H]2[C@H]1O (cis-trans isomerization)
C/C(O)=N\[C@H]1[C@@H](O)O[C@@H]2CO[C@@H](c3ccccc3)O[C@H]2[C@H]1O (3D coordinates assigned)
C/C(O)=N\[C@H]1[C@@H](O)O[C@@H]2CO[C@@H](c3ccccc3)O[C@H]2[C@H]1O (nonaromatic ring conformer: 48.03382814000505 kcal/mol)

$$$$
ZINC000082114392
 OpenBabel03032110343D

 28 28  0  0  0  0  0  0  0  0999 V2000
   -3.4069    1.3398    1.2540 C   0  0  0  0  0  0  0  0  0  0  0  0
   -2.8247    0.0628    1.1097 O   0  0  0  0  0  0  0  0  0  0  0  0
   -2.3900   -0.1275   -0.2283 C   0  0  1  0  0  0  0  0  0  0  0  0
   -1.2430    0.6595   -0.5225 O   0  0  0  0  0  0  0  0  0  0  0  0
   -0.1357    0.3058    0.2929 C   0  0  2  0  0  0  0  0  0  0  0  0
    1.0049    1.3000    0.0209 C   0  0  0  0  0  0  0  0  0  0  0  0
    1.4569    1.2066   -1.3042 O   0  0  0  0  0  0  0  0  0  0  0  0
    0.3001   -1.1548    0.0202 C   0  0  1  0  0  0  0  0  0  0  0  0
    1.3778   -1.5128    0.8494 O   0  0  0  0  0  0  0  0  0  0  0  0
   -0.8795   -2.1073    0.2786 C   0  0  1  0  0  0  0  0  0  0  0  0
   -1.1736   -2.1684    1.6536 O   0  0  0  0  0  0  0  0  0  0  0  0
   -2.1169   -1.6244   -0.5016 C   0  0  1  0  0  0  0  0  0  0  0  0
   -3.2890   -2.4316   -0.1551 N   0  0  0  0  0  0  0  0  0  0  0  0
   -3.6878    1.4810    2.3177 H   0  0  0  0  0  0  0  0  0  0  0  0
   -2.6905    2.1478    0.9869 H   0  0  0  0  0  0  0  0  0  0  0  0
   -4.3353    1.4263    0.6475 H   0  0  0  0  0  0  0  0  0  0  0  0
   -3.1939    0.1710   -0.9419 H   0  0  0  0  0  0  0  0  0  0  0  0
   -0.3960    0.4178    1.3707 H   0  0  0  0  0  0  0  0  0  0  0  0
    0.6574    2.3362    0.2382 H   0  0  0  0  0  0  0  0  0  0  0  0
    1.8558    1.0960    0.7046 H   0  0  0  0  0  0  0  0  0  0  0  0
    0.8017    1.6976   -1.8654 H   0  0  0  0  0  0  0  0  0  0  0  0
    0.5871   -1.2581   -1.0545 H   0  0  0  0  0  0  0  0  0  0  0  0
    2.2116   -1.3230    0.3453 H   0  0  0  0  0  0  0  0  0  0  0  0
   -0.6076   -3.1234   -0.0951 H   0  0  0  0  0  0  0  0  0  0  0  0
   -0.5524   -2.8307    2.0549 H   0  0  0  0  0  0  0  0  0  0  0  0
   -1.9084   -1.7427   -1.5907 H   0  0  0  0  0  0  0  0  0  0  0  0
   -3.0934   -3.4249   -0.4187 H   0  0  0  0  0  0  0  0  0  0  0  0
   -4.0886   -2.1263   -0.7566 H   0  0  0  0  0  0  0  0  0  0  0  0
  1  2  1  0  0  0  0
  1 14  1  0  0  0  0
  1 15  1  0  0  0  0
  1 16  1  0  0  0  0
  2  3  1  0  0  0  0
  3  4  1  0  0  0  0
  3 17  1  6  0  0  0
  4  5  1  0  0  0  0
  5  6  1  0  0  0  0
  5  8  1  0  0  0  0
  5 18  1  1  0  0  0
  6  7  1  0  0  0  0
  6 19  1  0  0  0  0
  6 20  1  0  0  0  0
  7 21  1  0  0  0  0
  8  9  1  0  0  0  0
  8 10  1  0  0  0  0
  8 22  1  6  0  0  0
  9 23  1  0  0  0  0
 10 11  1  0  0  0  0
 10 12  1  0  0  0  0
 10 24  1  6  0  0  0
 11 25  1  0  0  0  0
 12 13  1  0  0  0  0
 12  3  1  0  0  0  0
 12 26  1  6  0  0  0
 13 27  1  0  0  0  0
 13 28  1  0  0  0  0
M  END
>  <UniqueID>
237

>  <SMILES>
CO[C@H]1O[C@H](CO)[C@@H](O)[C@@H](O)[C@H]1N

>  <Energy>
28.127443471094907

>  <Genealogy>
CO[C@H]1O[C@H](CO)[C@@H](O)[C@@H](O)[C@H]1N (3D coordinates assigned)
CO[C@H]1O[C@H](CO)[C@@H](O)[C@@H](O)[C@H]1N (nonaromatic ring conformer: 28.127443471094907 kcal/mol)

$$$$
ZINC000082114392
 OpenBabel03032110343D

 29 29  0  0  0  0  0  0  0  0999 V2000
   -0.9275   -1.6878   -2.6594 C   0  0  0  0  0  0  0  0  0  0  0  0
   -1.2590   -1.7885   -1.2919 O   0  0  0  0  0  0  0  0  0  0  0  0
   -0.0782   -1.8628   -0.5073 C   0  0  1  0  0  0  0  0  0  0  0  0
    0.5941   -0.6111   -0.4575 O   0  0  0  0  0  0  0  0  0  0  0  0
   -0.2087    0.3995    0.1359 C   0  0  2  0  0  0  0  0  0  0  0  0
    0.5502    1.7288    0.0172 C   0  0  0  0  0  0  0  0  0  0  0  0
   -0.2818    2.8022    0.3619 O   0  0  0  0  0  0  0  0  0  0  0  0
   -0.5116    0.0528    1.6148 C   0  0  1  0  0  0  0  0  0  0  0  0
   -1.3206    1.0458    2.1921 O   0  0  0  0  0  0  0  0  0  0  0  0
   -1.2154   -1.3156    1.7018 C   0  0  1  0  0  0  0  0  0  0  0  0
   -2.5196   -1.2290    1.1808 O   0  0  0  0  0  0  0  0  0  0  0  0
   -0.3985   -2.3647    0.9207 C   0  0  1  0  0  0  0  0  0  0  0  0
   -1.0804   -3.6660    0.8924 N   0  3  0  0  0  0  0  0  0  0  0  0
   -0.2965   -0.7943   -2.8621 H   0  0  0  0  0  0  0  0  0  0  0  0
   -0.4209   -2.6115   -3.0162 H   0  0  0  0  0  0  0  0  0  0  0  0
   -1.8646   -1.5738   -3.2417 H   0  0  0  0  0  0  0  0  0  0  0  0
    0.6295   -2.6081   -0.9413 H   0  0  0  0  0  0  0  0  0  0  0  0
   -1.1631    0.5179   -0.4275 H   0  0  0  0  0  0  0  0  0  0  0  0
    0.8894    1.8570   -1.0355 H   0  0  0  0  0  0  0  0  0  0  0  0
    1.4489    1.7145    0.6745 H   0  0  0  0  0  0  0  0  0  0  0  0
    0.2741    3.6200    0.2770 H   0  0  0  0  0  0  0  0  0  0  0  0
    0.4566   -0.0077    2.1668 H   0  0  0  0  0  0  0  0  0  0  0  0
   -1.2688    0.9206    3.1757 H   0  0  0  0  0  0  0  0  0  0  0  0
   -1.2550   -1.6330    2.7711 H   0  0  0  0  0  0  0  0  0  0  0  0
   -3.1006   -0.8829    1.9076 H   0  0  0  0  0  0  0  0  0  0  0  0
    0.5727   -2.4964    1.4520 H   0  0  0  0  0  0  0  0  0  0  0  0
   -0.4733   -4.3712    0.4147 H   0  0  0  0  0  0  0  0  0  0  0  0
   -1.2551   -3.9938    1.8702 H   0  0  0  0  0  0  0  0  0  0  0  0
   -1.9926   -3.6043    0.3851 H   0  0  0  0  0  0  0  0  0  0  0  0
  1  2  1  0  0  0  0
  1 14  1  0  0  0  0
  1 15  1  0  0  0  0
  1 16  1  0  0  0  0
  2  3  1  0  0  0  0
  3  4  1  0  0  0  0
  3 17  1  6  0  0  0
  4  5  1  0  0  0  0
  5  6  1  0  0  0  0
  5  8  1  0  0  0  0
  5 18  1  6  0  0  0
  6  7  1  0  0  0  0
  6 19  1  0  0  0  0
  6 20  1  0  0  0  0
  7 21  1  0  0  0  0
  8  9  1  0  0  0  0
  8 10  1  0  0  0  0
  8 22  1  1  0  0  0
  9 23  1  0  0  0  0
 10 11  1  0  0  0  0
 10 12  1  0  0  0  0
 10 24  1  1  0  0  0
 11 25  1  0  0  0  0
 12 13  1  0  0  0  0
 12  3  1  0  0  0  0
 12 26  1  1  0  0  0
 13 27  1  0  0  0  0
 13 28  1  0  0  0  0
 13 29  1  0  0  0  0
M  CHG  1  13   1
M  END
>  <UniqueID>
238

>  <SMILES>
CO[C@H]1O[C@H](CO)[C@@H](O)[C@@H](O)[C@H]1[NH3+]

>  <Energy>
29.276905073789976

>  <Genealogy>
CO[C@H]1O[C@H](CO)[C@@H](O)[C@@H](O)[C@H]1[NH3+] (protonated)
CO[C@H]1O[C@H](CO)[C@@H](O)[C@@H](O)[C@H]1[NH3+] (3D coordinates assigned)
CO[C@H]1O[C@H](CO)[C@@H](O)[C@@H](O)[C@H]1[NH3+] (nonaromatic ring conformer: 29.276905073789976 kcal/mol)

$$$$
ZINC000100342293
 OpenBabel03032110343D

 40 41  0  0  0  0  0  0  0  0999 V2000
    7.4655    0.4621    0.3461 C   0  0  0  0  0  0  0  0  0  0  0  0
    6.3629    0.5126   -0.5534 O   0  0  0  0  0  0  0  0  0  0  0  0
    5.0327    0.2539   -0.1908 C   0  0  0  0  0  0  0  0  0  0  0  0
    4.6605   -0.0863    1.1234 C   0  0  0  0  0  0  0  0  0  0  0  0
    3.3203   -0.3351    1.4349 C   0  0  0  0  0  0  0  0  0  0  0  0
    2.3313   -0.2493    0.4436 C   0  0  0  0  0  0  0  0  0  0  0  0
    0.9233   -0.5154    0.7985 C   0  0  0  0  0  0  0  0  0  0  0  0
   -0.0152   -0.4480   -0.0957 N   0  0  0  0  0  0  0  0  0  0  0  0
   -1.4266   -0.6941    0.2023 C   0  0  1  0  0  0  0  0  0  0  0  0
   -2.0212    0.4482    1.0755 C   0  0  1  0  0  0  0  0  0  0  0  0
   -1.6551    1.7441    0.6600 O   0  0  0  0  0  0  0  0  0  0  0  0
   -3.4256    0.3362    1.2452 O   0  0  0  0  0  0  0  0  0  0  0  0
   -4.1197    0.3167    0.0084 C   0  0  2  0  0  0  0  0  0  0  0  0
   -5.6270    0.3145    0.3078 C   0  0  0  0  0  0  0  0  0  0  0  0
   -5.9691    1.4121    1.1108 O   0  0  0  0  0  0  0  0  0  0  0  0
   -3.7217   -0.9299   -0.8157 C   0  0  1  0  0  0  0  0  0  0  0  0
   -4.4228   -0.9627   -2.0347 O   0  0  0  0  0  0  0  0  0  0  0  0
   -2.2154   -0.9069   -1.1060 C   0  0  1  0  0  0  0  0  0  0  0  0
   -1.9264    0.0989   -2.0466 O   0  0  0  0  0  0  0  0  0  0  0  0
    2.7051    0.0910   -0.8685 C   0  0  0  0  0  0  0  0  0  0  0  0
    4.0453    0.3395   -1.1785 C   0  0  0  0  0  0  0  0  0  0  0  0
    7.5648   -0.5590    0.7714 H   0  0  0  0  0  0  0  0  0  0  0  0
    8.3954    0.7089   -0.2060 H   0  0  0  0  0  0  0  0  0  0  0  0
    7.3280    1.2041    1.1607 H   0  0  0  0  0  0  0  0  0  0  0  0
    5.3980   -0.1611    1.9109 H   0  0  0  0  0  0  0  0  0  0  0  0
    3.0555   -0.5951    2.4527 H   0  0  0  0  0  0  0  0  0  0  0  0
    0.6760   -0.7718    1.8229 H   0  0  0  0  0  0  0  0  0  0  0  0
   -1.5075   -1.6410    0.7847 H   0  0  0  0  0  0  0  0  0  0  0  0
   -1.5811    0.3195    2.0870 H   0  0  0  0  0  0  0  0  0  0  0  0
   -1.7400    1.8023   -0.3231 H   0  0  0  0  0  0  0  0  0  0  0  0
   -3.9101    1.2394   -0.5779 H   0  0  0  0  0  0  0  0  0  0  0  0
   -6.2160    0.3420   -0.6370 H   0  0  0  0  0  0  0  0  0  0  0  0
   -5.8979   -0.6161    0.8512 H   0  0  0  0  0  0  0  0  0  0  0  0
   -5.9554    2.2110    0.5214 H   0  0  0  0  0  0  0  0  0  0  0  0
   -3.9411   -1.8464   -0.2148 H   0  0  0  0  0  0  0  0  0  0  0  0
   -5.2229   -1.5346   -1.8989 H   0  0  0  0  0  0  0  0  0  0  0  0
   -1.9377   -1.9018   -1.5301 H   0  0  0  0  0  0  0  0  0  0  0  0
   -1.0923   -0.1687   -2.5141 H   0  0  0  0  0  0  0  0  0  0  0  0
    1.9645    0.1659   -1.6550 H   0  0  0  0  0  0  0  0  0  0  0  0
    4.3188    0.6005   -2.1931 H   0  0  0  0  0  0  0  0  0  0  0  0
  1  2  1  0  0  0  0
  1 22  1  0  0  0  0
  1 23  1  0  0  0  0
  1 24  1  0  0  0  0
  2  3  1  0  0  0  0
  3  4  2  0  0  0  0
  4  5  1  0  0  0  0
  4 25  1  0  0  0  0
  5  6  2  0  0  0  0
  5 26  1  0  0  0  0
  6  7  1  0  0  0  0
  6 20  1  0  0  0  0
  7  8  2  0  0  0  0
  7 27  1  0  0  0  0
  8  9  1  0  0  0  0
  9 10  1  0  0  0  0
  9 28  1  1  0  0  0
 10 11  1  0  0  0  0
 10 12  1  0  0  0  0
 10 29  1  1  0  0  0
 11 30  1  0  0  0  0
 12 13  1  0  0  0  0
 13 14  1  0  0  0  0
 13 16  1  0  0  0  0
 13 31  1  6  0  0  0
 14 15  1  0  0  0  0
 14 32  1  0  0  0  0
 14 33  1  0  0  0  0
 15 34  1  0  0  0  0
 16 17  1  0  0  0  0
 16 18  1  0  0  0  0
 16 35  1  1  0  0  0
 17 36  1  0  0  0  0
 18 19  1  0  0  0  0
 18  9  1  0  0  0  0
 18 37  1  6  0  0  0
 19 38  1  0  0  0  0
 20 21  2  0  0  0  0
 20 39  1  0  0  0  0
 21  3  1  0  0  0  0
 21 40  1  0  0  0  0
M  END
>  <UniqueID>
239

>  <SMILES>
COc1ccc(/C=N/[C@H]2[C@@H](O)O[C@H](CO)[C@@H](O)[C@H]2O)cc1

>  <Energy>
42.75587343532495

>  <Genealogy>
COc1ccc(/C=N/[C@H]2[C@@H](O)O[C@H](CO)[C@@H](O)[C@H]2O)cc1 (3D coordinates assigned)
COc1ccc(/C=N/[C@H]2[C@@H](O)O[C@H](CO)[C@@H](O)[C@H]2O)cc1 (nonaromatic ring conformer: 42.75587343532495 kcal/mol)

$$$$
ZINC000100342293
 OpenBabel03032110343D

 40 41  0  0  0  0  0  0  0  0999 V2000
    5.8962    2.4069   -0.7294 C   0  0  0  0  0  0  0  0  0  0  0  0
    5.6283    1.0124   -0.6243 O   0  0  0  0  0  0  0  0  0  0  0  0
    4.3682    0.4678   -0.3358 C   0  0  0  0  0  0  0  0  0  0  0  0
    4.2463   -0.9242   -0.2624 C   0  0  0  0  0  0  0  0  0  0  0  0
    3.0123   -1.5162    0.0219 C   0  0  0  0  0  0  0  0  0  0  0  0
    1.8769   -0.7218    0.2392 C   0  0  0  0  0  0  0  0  0  0  0  0
    0.5836   -1.3690    0.5335 C   0  0  0  0  0  0  0  0  0  0  0  0
   -0.4802   -0.6601    0.7579 N   0  0  0  0  0  0  0  0  0  0  0  0
   -1.7988   -1.2388    1.0328 C   0  0  1  0  0  0  0  0  0  0  0  0
   -2.6942   -0.2089    1.7892 C   0  0  1  0  0  0  0  0  0  0  0  0
   -1.9097    0.7126    2.5027 O   0  0  0  0  0  0  0  0  0  0  0  0
   -3.6231    0.4811    0.9568 O   0  0  0  0  0  0  0  0  0  0  0  0
   -3.0434    0.8382   -0.2840 C   0  0  2  0  0  0  0  0  0  0  0  0
   -3.9525    1.8531   -0.9895 C   0  0  0  0  0  0  0  0  0  0  0  0
   -4.0903    3.0109   -0.2107 O   0  0  0  0  0  0  0  0  0  0  0  0
   -2.8523   -0.4323   -1.1545 C   0  0  1  0  0  0  0  0  0  0  0  0
   -1.8961   -0.2072   -2.1629 O   0  0  0  0  0  0  0  0  0  0  0  0
   -2.4951   -1.6643   -0.2769 C   0  0  1  0  0  0  0  0  0  0  0  0
   -1.7018   -2.5842   -0.9824 O   0  0  0  0  0  0  0  0  0  0  0  0
    1.9959    0.6775    0.1650 C   0  0  0  0  0  0  0  0  0  0  0  0
    3.2307    1.2683   -0.1197 C   0  0  0  0  0  0  0  0  0  0  0  0
    5.2897    2.8517   -1.5465 H   0  0  0  0  0  0  0  0  0  0  0  0
    6.9703    2.5531   -0.9643 H   0  0  0  0  0  0  0  0  0  0  0  0
    5.6706    2.9127    0.2332 H   0  0  0  0  0  0  0  0  0  0  0  0
    5.1135   -1.5511   -0.4272 H   0  0  0  0  0  0  0  0  0  0  0  0
    2.9448   -2.5962    0.0721 H   0  0  0  0  0  0  0  0  0  0  0  0
    0.5275   -2.4517    0.5588 H   0  0  0  0  0  0  0  0  0  0  0  0
   -1.6717   -2.1334    1.6852 H   0  0  0  0  0  0  0  0  0  0  0  0
   -3.2971   -0.7908    2.5232 H   0  0  0  0  0  0  0  0  0  0  0  0
   -2.5362    1.2468    3.0571 H   0  0  0  0  0  0  0  0  0  0  0  0
   -2.0612    1.3416   -0.1193 H   0  0  0  0  0  0  0  0  0  0  0  0
   -4.9603    1.4107   -1.1419 H   0  0  0  0  0  0  0  0  0  0  0  0
   -3.5379    2.1117   -1.9909 H   0  0  0  0  0  0  0  0  0  0  0  0
   -3.2473    3.5253   -0.3141 H   0  0  0  0  0  0  0  0  0  0  0  0
   -3.8132   -0.6718   -1.6621 H   0  0  0  0  0  0  0  0  0  0  0  0
   -1.0270   -0.0203   -1.7232 H   0  0  0  0  0  0  0  0  0  0  0  0
   -3.4463   -2.1685    0.0190 H   0  0  0  0  0  0  0  0  0  0  0  0
   -2.2867   -2.9948   -1.6717 H   0  0  0  0  0  0  0  0  0  0  0  0
    1.1360    1.3162    0.3248 H   0  0  0  0  0  0  0  0  0  0  0  0
    3.2897    2.3470   -0.1699 H   0  0  0  0  0  0  0  0  0  0  0  0
  1  2  1  0  0  0  0
  1 22  1  0  0  0  0
  1 23  1  0  0  0  0
  1 24  1  0  0  0  0
  2  3  1  0  0  0  0
  3  4  2  0  0  0  0
  4  5  1  0  0  0  0
  4 25  1  0  0  0  0
  5  6  2  0  0  0  0
  5 26  1  0  0  0  0
  6  7  1  0  0  0  0
  6 20  1  0  0  0  0
  7  8  2  0  0  0  0
  7 27  1  0  0  0  0
  8  9  1  0  0  0  0
  9 10  1  0  0  0  0
  9 28  1  1  0  0  0
 10 11  1  0  0  0  0
 10 12  1  0  0  0  0
 10 29  1  1  0  0  0
 11 30  1  0  0  0  0
 12 13  1  0  0  0  0
 13 14  1  0  0  0  0
 13 16  1  0  0  0  0
 13 31  1  1  0  0  0
 14 15  1  0  0  0  0
 14 32  1  0  0  0  0
 14 33  1  0  0  0  0
 15 34  1  0  0  0  0
 16 17  1  0  0  0  0
 16 18  1  0  0  0  0
 16 35  1  6  0  0  0
 17 36  1  0  0  0  0
 18 19  1  0  0  0  0
 18  9  1  0  0  0  0
 18 37  1  1  0  0  0
 19 38  1  0  0  0  0
 20 21  2  0  0  0  0
 20 39  1  0  0  0  0
 21  3  1  0  0  0  0
 21 40  1  0  0  0  0
M  END
>  <UniqueID>
240

>  <SMILES>
COc1ccc(/C=N/[C@H]2[C@@H](O)O[C@H](CO)[C@@H](O)[C@H]2O)cc1

>  <Energy>
47.19885093977482

>  <Genealogy>
COc1ccc(/C=N/[C@H]2[C@@H](O)O[C@H](CO)[C@@H](O)[C@H]2O)cc1 (3D coordinates assigned)
COc1ccc(/C=N/[C@H]2[C@@H](O)O[C@H](CO)[C@@H](O)[C@H]2O)cc1 (nonaromatic ring conformer: 47.19885093977482 kcal/mol)

$$$$
ZINC000100656214
 OpenBabel03032110343D

 43 44  0  0  0  0  0  0  0  0999 V2000
   -0.3902   -4.2007   -0.4041 C   0  0  0  0  0  0  0  0  0  0  0  0
   -0.7842   -2.9146    0.2454 C   0  0  0  0  0  0  0  0  0  0  0  0
   -0.5489   -2.7414    1.4719 O   0  0  0  0  0  0  0  0  0  0  0  0
   -1.3841   -1.8722   -0.5376 N   0  0  0  0  0  0  0  0  0  0  0  0
   -1.6266   -0.5248   -0.0076 C   0  0  2  0  0  0  0  0  0  0  0  0
   -2.9550    0.0417   -0.5425 C   0  0  2  0  0  0  0  0  0  0  0  0
   -2.9825   -0.0353   -1.9476 O   0  0  0  0  0  0  0  0  0  0  0  0
   -3.1112    1.5085   -0.0894 C   0  0  2  0  0  0  0  0  0  0  0  0
   -4.2311    2.0847   -0.7113 O   0  0  0  0  0  0  0  0  0  0  0  0
   -1.8306    2.3095   -0.4388 C   0  0  1  0  0  0  0  0  0  0  0  0
   -1.9130    3.7551    0.0738 C   0  0  0  0  0  0  0  0  0  0  0  0
   -2.8494    4.4947   -0.6657 O   0  0  0  0  0  0  0  0  0  0  0  0
   -0.6963    1.7030    0.1599 O   0  0  0  0  0  0  0  0  0  0  0  0
   -0.4635    0.4127   -0.3818 C   0  0  1  0  0  0  0  0  0  0  0  0
    0.7233   -0.1128    0.1805 O   0  0  0  0  0  0  0  0  0  0  0  0
    1.8569    0.4438   -0.4502 C   0  0  0  0  0  0  0  0  0  0  0  0
    3.0886   -0.0986    0.2137 C   0  0  0  0  0  0  0  0  0  0  0  0
    3.5544   -1.3833   -0.1122 C   0  0  0  0  0  0  0  0  0  0  0  0
    4.6777   -1.9097    0.5332 C   0  0  0  0  0  0  0  0  0  0  0  0
    5.3354   -1.1632    1.5148 C   0  0  0  0  0  0  0  0  0  0  0  0
    4.8676    0.1088    1.8565 C   0  0  0  0  0  0  0  0  0  0  0  0
    3.7441    0.6388    1.2139 C   0  0  0  0  0  0  0  0  0  0  0  0
    0.5272   -4.0418   -1.0084 H   0  0  0  0  0  0  0  0  0  0  0  0
   -1.2081   -4.5543   -1.0661 H   0  0  0  0  0  0  0  0  0  0  0  0
   -0.1900   -4.9790    0.3627 H   0  0  0  0  0  0  0  0  0  0  0  0
   -1.4795   -2.0323   -1.5662 H   0  0  0  0  0  0  0  0  0  0  0  0
   -1.7031   -0.5647    1.1027 H   0  0  0  0  0  0  0  0  0  0  0  0
   -3.7876   -0.5640   -0.1118 H   0  0  0  0  0  0  0  0  0  0  0  0
   -3.9371   -0.0639   -2.2185 H   0  0  0  0  0  0  0  0  0  0  0  0
   -3.2467    1.5280    1.0184 H   0  0  0  0  0  0  0  0  0  0  0  0
   -5.0325    1.7109   -0.2598 H   0  0  0  0  0  0  0  0  0  0  0  0
   -1.7024    2.3571   -1.5461 H   0  0  0  0  0  0  0  0  0  0  0  0
   -2.1442    3.7676    1.1655 H   0  0  0  0  0  0  0  0  0  0  0  0
   -0.9200    4.2367   -0.0552 H   0  0  0  0  0  0  0  0  0  0  0  0
   -3.6443    4.6249   -0.0856 H   0  0  0  0  0  0  0  0  0  0  0  0
   -0.3897    0.4530   -1.4981 H   0  0  0  0  0  0  0  0  0  0  0  0
    1.8831    0.1649   -1.5285 H   0  0  0  0  0  0  0  0  0  0  0  0
    1.8493    1.5557   -0.3775 H   0  0  0  0  0  0  0  0  0  0  0  0
    3.0460   -1.9763   -0.8627 H   0  0  0  0  0  0  0  0  0  0  0  0
    5.0356   -2.8981    0.2754 H   0  0  0  0  0  0  0  0  0  0  0  0
    6.2039   -1.5726    2.0145 H   0  0  0  0  0  0  0  0  0  0  0  0
    5.3729    0.6825    2.6227 H   0  0  0  0  0  0  0  0  0  0  0  0
    3.3861    1.6210    1.4967 H   0  0  0  0  0  0  0  0  0  0  0  0
  1  2  1  0  0  0  0
  1 23  1  0  0  0  0
  1 24  1  0  0  0  0
  1 25  1  0  0  0  0
  2  3  2  0  0  0  0
  2  4  1  0  0  0  0
  4  5  1  0  0  0  0
  4 26  1  0  0  0  0
  5  6  1  0  0  0  0
  5 27  1  1  0  0  0
  6  7  1  0  0  0  0
  6  8  1  0  0  0  0
  6 28  1  1  0  0  0
  7 29  1  0  0  0  0
  8  9  1  0  0  0  0
  8 10  1  0  0  0  0
  8 30  1  1  0  0  0
  9 31  1  0  0  0  0
 10 11  1  0  0  0  0
 10 13  1  0  0  0  0
 10 32  1  6  0  0  0
 11 12  1  0  0  0  0
 11 33  1  0  0  0  0
 11 34  1  0  0  0  0
 12 35  1  0  0  0  0
 13 14  1  0  0  0  0
 14 15  1  0  0  0  0
 14  5  1  0  0  0  0
 14 36  1  6  0  0  0
 15 16  1  0  0  0  0
 16 17  1  0  0  0  0
 16 37  1  0  0  0  0
 16 38  1  0  0  0  0
 17 18  2  0  0  0  0
 18 19  1  0  0  0  0
 18 39  1  0  0  0  0
 19 20  2  0  0  0  0
 19 40  1  0  0  0  0
 20 21  1  0  0  0  0
 20 41  1  0  0  0  0
 21 22  2  0  0  0  0
 21 42  1  0  0  0  0
 22 17  1  0  0  0  0
 22 43  1  0  0  0  0
M  END
>  <UniqueID>
241

>  <SMILES>
CC(=O)N[C@@H]1[C@H](O)[C@H](O)[C@@H](CO)O[C@H]1OCc1ccccc1

>  <Energy>
41.30808108489266

>  <Genealogy>
CC(=O)N[C@@H]1[C@H](O)[C@H](O)[C@@H](CO)O[C@H]1OCc1ccccc1 (3D coordinates assigned)
CC(=O)N[C@@H]1[C@H](O)[C@H](O)[C@@H](CO)O[C@H]1OCc1ccccc1 (nonaromatic ring conformer: 41.30808108489266 kcal/mol)

$$$$
ZINC000100656214
 OpenBabel03032110343D

 43 44  0  0  0  0  0  0  0  0999 V2000
   -2.7516   -3.3426   -1.5038 H   0  0  0  0  0  0  0  0  0  0  0  0
   -1.9423   -2.7904   -1.2466 O   0  0  0  0  0  0  0  0  0  0  0  0
   -0.9706   -3.2927   -0.3814 C   0  0  0  0  0  0  0  0  0  0  0  0
    0.0751   -2.5847   -0.0740 N   0  0  0  0  0  0  0  0  0  0  0  0
    0.3277   -1.2190   -0.5418 C   0  0  2  0  0  0  0  0  0  0  0  0
   -0.0416   -1.1033   -1.5867 H   0  0  0  0  0  0  0  0  0  0  0  0
    1.8460   -0.9488   -0.5469 C   0  0  2  0  0  0  0  0  0  0  0  0
    2.3213   -1.5703   -1.3431 H   0  0  0  0  0  0  0  0  0  0  0  0
    2.4070   -1.2639    0.7054 O   0  0  0  0  0  0  0  0  0  0  0  0
    2.6155   -2.2345    0.6959 H   0  0  0  0  0  0  0  0  0  0  0  0
    2.1179    0.5296   -0.8737 C   0  0  2  0  0  0  0  0  0  0  0  0
    1.8143    0.7044   -1.9352 H   0  0  0  0  0  0  0  0  0  0  0  0
    3.4884    0.7931   -0.7024 O   0  0  0  0  0  0  0  0  0  0  0  0
    3.7634    1.4084   -1.4314 H   0  0  0  0  0  0  0  0  0  0  0  0
    1.2656    1.4382    0.0482 C   0  0  1  0  0  0  0  0  0  0  0  0
    1.5776    1.3047    1.1110 H   0  0  0  0  0  0  0  0  0  0  0  0
    1.4423    2.9259   -0.2977 C   0  0  0  0  0  0  0  0  0  0  0  0
    0.6687    3.5283    0.2322 H   0  0  0  0  0  0  0  0  0  0  0  0
    1.2916    3.0826   -1.3872 H   0  0  0  0  0  0  0  0  0  0  0  0
    2.7205    3.3818    0.0562 O   0  0  0  0  0  0  0  0  0  0  0  0
    2.7221    3.4875    1.0434 H   0  0  0  0  0  0  0  0  0  0  0  0
   -0.1065    1.1202   -0.1031 O   0  0  0  0  0  0  0  0  0  0  0  0
   -0.3810   -0.1899    0.3657 C   0  0  1  0  0  0  0  0  0  0  0  0
    0.0010   -0.3305    1.4081 H   0  0  0  0  0  0  0  0  0  0  0  0
   -1.7806   -0.4070    0.2990 O   0  0  0  0  0  0  0  0  0  0  0  0
   -2.4384    0.0770    1.4569 C   0  0  0  0  0  0  0  0  0  0  0  0
   -3.4768   -0.3165    1.4471 H   0  0  0  0  0  0  0  0  0  0  0  0
   -1.9834   -0.3222    2.3921 H   0  0  0  0  0  0  0  0  0  0  0  0
   -2.5084    1.5827    1.4643 C   0  0  0  0  0  0  0  0  0  0  0  0
   -3.3213    2.2539    0.5369 C   0  0  0  0  0  0  0  0  0  0  0  0
   -3.9271    1.6944   -0.1651 H   0  0  0  0  0  0  0  0  0  0  0  0
   -3.3472    3.6517    0.5062 C   0  0  0  0  0  0  0  0  0  0  0  0
   -3.9751    4.1651   -0.2105 H   0  0  0  0  0  0  0  0  0  0  0  0
   -2.5579    4.3868    1.3951 C   0  0  0  0  0  0  0  0  0  0  0  0
   -2.5761    5.4686    1.3675 H   0  0  0  0  0  0  0  0  0  0  0  0
   -1.7412    3.7254    2.3164 C   0  0  0  0  0  0  0  0  0  0  0  0
   -1.1247    4.2955    2.9992 H   0  0  0  0  0  0  0  0  0  0  0  0
   -1.7136    2.3279    2.3515 C   0  0  0  0  0  0  0  0  0  0  0  0
   -1.0643    1.8282    3.0596 H   0  0  0  0  0  0  0  0  0  0  0  0
   -1.1081   -4.6763    0.1666 C   0  0  0  0  0  0  0  0  0  0  0  0
   -0.4888   -4.7994    1.0808 H   0  0  0  0  0  0  0  0  0  0  0  0
   -2.1685   -4.8736    0.4286 H   0  0  0  0  0  0  0  0  0  0  0  0
   -0.7786   -5.4100   -0.5980 H   0  0  0  0  0  0  0  0  0  0  0  0
  1  2  1  0  0  0  0
  2  3  1  0  0  0  0
  3  4  2  0  0  0  0
  3 40  1  0  0  0  0
  4  5  1  0  0  0  0
  5  6  1  6  0  0  0
  5  7  1  0  0  0  0
  7  8  1  6  0  0  0
  7  9  1  0  0  0  0
  7 11  1  0  0  0  0
  9 10  1  0  0  0  0
 11 12  1  6  0  0  0
 11 13  1  0  0  0  0
 11 15  1  0  0  0  0
 13 14  1  0  0  0  0
 15 16  1  1  0  0  0
 15 17  1  0  0  0  0
 15 22  1  0  0  0  0
 17 18  1  0  0  0  0
 17 19  1  0  0  0  0
 17 20  1  0  0  0  0
 20 21  1  0  0  0  0
 22 23  1  0  0  0  0
 23 24  1  1  0  0  0
 23 25  1  0  0  0  0
 23  5  1  0  0  0  0
 25 26  1  0  0  0  0
 26 27  1  0  0  0  0
 26 28  1  0  0  0  0
 26 29  1  0  0  0  0
 29 30  2  0  0  0  0
 30 31  1  0  0  0  0
 30 32  1  0  0  0  0
 32 33  1  0  0  0  0
 32 34  2  0  0  0  0
 34 35  1  0  0  0  0
 34 36  1  0  0  0  0
 36 37  1  0  0  0  0
 36 38  2  0  0  0  0
 38 39  1  0  0  0  0
 38 29  1  0  0  0  0
 40 41  1  0  0  0  0
 40 42  1  0  0  0  0
 40 43  1  0  0  0  0
M  END
>  <UniqueID>
242

>  <SMILES>
C/C(O)=N\[C@@H]1[C@H](O)[C@H](O)[C@@H](CO)O[C@H]1OCc1ccccc1

>  <Energy>
42.480863317579264

>  <Genealogy>
CC(O)=N[C@@H]1[C@H](O)[C@H](O)[C@@H](CO)O[C@H]1OCc1ccccc1 (tautomer)
C/C(O)=N\[C@@H]1[C@H](O)[C@H](O)[C@@H](CO)O[C@H]1OCc1ccccc1 (cis-trans isomerization)
C/C(O)=N\[C@@H]1[C@H](O)[C@H](O)[C@@H](CO)O[C@H]1OCc1ccccc1 (3D coordinates assigned)
C/C(O)=N\[C@@H]1[C@H](O)[C@H](O)[C@@H](CO)O[C@H]1OCc1ccccc1 (nonaromatic ring conformer: 42.480863317579264 kcal/mol)

$$$$
ZINC000100815672
 OpenBabel03032110343D

 43 44  0  0  0  0  0  0  0  0999 V2000
    0.6688   -2.5111   -3.6498 H   0  0  0  0  0  0  0  0  0  0  0  0
    1.6216   -2.1879   -3.5293 O   0  0  0  0  0  0  0  0  0  0  0  0
    2.0445   -1.6226   -2.3287 C   0  0  0  0  0  0  0  0  0  0  0  0
    1.1820   -1.5011   -1.3574 N   0  0  0  0  0  0  0  0  0  0  0  0
    1.4126   -0.9574   -0.0141 C   0  0  2  0  0  0  0  0  0  0  0  0
    2.2767   -0.2587   -0.0105 H   0  0  0  0  0  0  0  0  0  0  0  0
    1.6838   -2.1013    0.9819 C   0  0  2  0  0  0  0  0  0  0  0  0
    2.6716   -2.5562    0.7398 H   0  0  0  0  0  0  0  0  0  0  0  0
    0.6733   -3.0750    0.8733 O   0  0  0  0  0  0  0  0  0  0  0  0
    1.0567   -3.9301    1.2011 H   0  0  0  0  0  0  0  0  0  0  0  0
    1.7348   -1.5395    2.4174 C   0  0  2  0  0  0  0  0  0  0  0  0
    2.6397   -0.8933    2.5115 H   0  0  0  0  0  0  0  0  0  0  0  0
    1.8067   -2.5893    3.3482 O   0  0  0  0  0  0  0  0  0  0  0  0
    2.7292   -2.9529    3.2976 H   0  0  0  0  0  0  0  0  0  0  0  0
    0.4798   -0.6757    2.6889 C   0  0  1  0  0  0  0  0  0  0  0  0
   -0.4300   -1.3204    2.6526 H   0  0  0  0  0  0  0  0  0  0  0  0
    0.5197   -0.0513    4.0898 C   0  0  0  0  0  0  0  0  0  0  0  0
    0.5852   -0.8504    4.8619 H   0  0  0  0  0  0  0  0  0  0  0  0
   -0.4242    0.5142    4.2579 H   0  0  0  0  0  0  0  0  0  0  0  0
    1.6122    0.8188    4.2074 O   0  0  0  0  0  0  0  0  0  0  0  0
    1.5764    1.1822    5.1301 H   0  0  0  0  0  0  0  0  0  0  0  0
    0.3824    0.3680    1.7339 O   0  0  0  0  0  0  0  0  0  0  0  0
    0.1737   -0.1577    0.4320 C   0  0  1  0  0  0  0  0  0  0  0  0
   -0.7138   -0.8400    0.4122 H   0  0  0  0  0  0  0  0  0  0  0  0
   -0.0069    0.9148   -0.4731 O   0  0  0  0  0  0  0  0  0  0  0  0
   -1.3063    1.4530   -0.3443 C   0  0  0  0  0  0  0  0  0  0  0  0
   -1.5187    1.7504    0.7086 H   0  0  0  0  0  0  0  0  0  0  0  0
   -2.0706    0.7038   -0.6532 H   0  0  0  0  0  0  0  0  0  0  0  0
   -1.4173    2.6604   -1.2289 C   0  0  0  0  0  0  0  0  0  0  0  0
   -1.7903    2.5192   -2.5760 C   0  0  0  0  0  0  0  0  0  0  0  0
   -2.0304    1.5431   -2.9793 H   0  0  0  0  0  0  0  0  0  0  0  0
   -1.8536    3.6399   -3.4101 C   0  0  0  0  0  0  0  0  0  0  0  0
   -2.1471    3.5271   -4.4458 H   0  0  0  0  0  0  0  0  0  0  0  0
   -1.5331    4.9049   -2.9095 C   0  0  0  0  0  0  0  0  0  0  0  0
   -1.5811    5.7710   -3.5567 H   0  0  0  0  0  0  0  0  0  0  0  0
   -1.1435    5.0505   -1.5751 C   0  0  0  0  0  0  0  0  0  0  0  0
   -0.8873    6.0293   -1.1907 H   0  0  0  0  0  0  0  0  0  0  0  0
   -1.0787    3.9323   -0.7377 C   0  0  0  0  0  0  0  0  0  0  0  0
   -0.7645    4.0575    0.2913 H   0  0  0  0  0  0  0  0  0  0  0  0
    3.4711   -1.1488   -2.2265 C   0  0  0  0  0  0  0  0  0  0  0  0
    4.1014   -1.7320   -1.1440 F   0  0  0  0  0  0  0  0  0  0  0  0
    4.1638   -1.4958   -3.3725 F   0  0  0  0  0  0  0  0  0  0  0  0
    3.5008    0.2276   -2.0968 F   0  0  0  0  0  0  0  0  0  0  0  0
  1  2  1  0  0  0  0
  2  3  1  0  0  0  0
  3  4  2  0  0  0  0
  3 40  1  0  0  0  0
  4  5  1  0  0  0  0
  5  6  1  6  0  0  0
  5  7  1  0  0  0  0
  7  8  1  6  0  0  0
  7  9  1  0  0  0  0
  7 11  1  0  0  0  0
  9 10  1  0  0  0  0
 11 12  1  1  0  0  0
 11 13  1  0  0  0  0
 11 15  1  0  0  0  0
 13 14  1  0  0  0  0
 15 16  1  6  0  0  0
 15 17  1  0  0  0  0
 15 22  1  0  0  0  0
 17 18  1  0  0  0  0
 17 19  1  0  0  0  0
 17 20  1  0  0  0  0
 20 21  1  0  0  0  0
 22 23  1  0  0  0  0
 23 24  1  6  0  0  0
 23 25  1  0  0  0  0
 23  5  1  0  0  0  0
 25 26  1  0  0  0  0
 26 27  1  0  0  0  0
 26 28  1  0  0  0  0
 26 29  1  0  0  0  0
 29 30  2  0  0  0  0
 30 31  1  0  0  0  0
 30 32  1  0  0  0  0
 32 33  1  0  0  0  0
 32 34  2  0  0  0  0
 34 35  1  0  0  0  0
 34 36  1  0  0  0  0
 36 37  1  0  0  0  0
 36 38  2  0  0  0  0
 38 39  1  0  0  0  0
 38 29  1  0  0  0  0
 40 41  1  0  0  0  0
 40 42  1  0  0  0  0
 40 43  1  0  0  0  0
M  END
>  <UniqueID>
243

>  <SMILES>
OC[C@H]1O[C@@H](OCc2ccccc2)[C@H](/N=C(\O)C(F)(F)F)[C@H](O)[C@@H]1O

>  <Energy>
44.31353275299386

>  <Genealogy>
OC[C@H]1O[C@@H](OCc2ccccc2)[C@H](N=C(O)C(F)(F)F)[C@H](O)[C@@H]1O (tautomer)
OC[C@H]1O[C@@H](OCc2ccccc2)[C@H](/N=C(\O)C(F)(F)F)[C@H](O)[C@@H]1O (cis-trans isomerization)
OC[C@H]1O[C@@H](OCc2ccccc2)[C@H](/N=C(\O)C(F)(F)F)[C@H](O)[C@@H]1O (3D coordinates assigned)
OC[C@H]1O[C@@H](OCc2ccccc2)[C@H](/N=C(\O)C(F)(F)F)[C@H](O)[C@@H]1O (nonaromatic ring conformer: 44.31353275299386 kcal/mol)

$$$$
ZINC000100815672
 OpenBabel03032110343D

 43 44  0  0  0  0  0  0  0  0999 V2000
   -2.6352    1.2188   -1.5789 H   0  0  0  0  0  0  0  0  0  0  0  0
   -1.7410    1.2690   -1.1060 O   0  0  0  0  0  0  0  0  0  0  0  0
   -1.6511    1.6257    0.2378 C   0  0  0  0  0  0  0  0  0  0  0  0
   -0.5025    1.6659    0.8513 N   0  0  0  0  0  0  0  0  0  0  0  0
    0.8357    1.3874    0.3085 C   0  0  2  0  0  0  0  0  0  0  0  0
    1.5240    1.3563    1.1830 H   0  0  0  0  0  0  0  0  0  0  0  0
    1.3466    2.5100   -0.6140 C   0  0  2  0  0  0  0  0  0  0  0  0
    1.4191    3.4473   -0.0125 H   0  0  0  0  0  0  0  0  0  0  0  0
    0.4678    2.6998   -1.6941 O   0  0  0  0  0  0  0  0  0  0  0  0
    0.5851    3.6355   -2.0041 H   0  0  0  0  0  0  0  0  0  0  0  0
    2.7515    2.1342   -1.1347 C   0  0  2  0  0  0  0  0  0  0  0  0
    3.4670    2.1619   -0.2784 H   0  0  0  0  0  0  0  0  0  0  0  0
    3.1612    3.0505   -2.1176 O   0  0  0  0  0  0  0  0  0  0  0  0
    3.3959    3.8912   -1.6443 H   0  0  0  0  0  0  0  0  0  0  0  0
    2.7415    0.6936   -1.7135 C   0  0  1  0  0  0  0  0  0  0  0  0
    2.0803    0.6515   -2.6113 H   0  0  0  0  0  0  0  0  0  0  0  0
    4.1441    0.2608   -2.1624 C   0  0  0  0  0  0  0  0  0  0  0  0
    4.8721    0.4095   -1.3332 H   0  0  0  0  0  0  0  0  0  0  0  0
    4.1221   -0.8226   -2.4180 H   0  0  0  0  0  0  0  0  0  0  0  0
    4.5444    0.9879   -3.2912 O   0  0  0  0  0  0  0  0  0  0  0  0
    5.4571    0.6689   -3.5150 H   0  0  0  0  0  0  0  0  0  0  0  0
    2.2951   -0.2304   -0.7312 O   0  0  0  0  0  0  0  0  0  0  0  0
    0.9405    0.0139   -0.3866 C   0  0  1  0  0  0  0  0  0  0  0  0
    0.3061    0.0121   -1.3044 H   0  0  0  0  0  0  0  0  0  0  0  0
    0.5088   -0.9777    0.5257 O   0  0  0  0  0  0  0  0  0  0  0  0
    0.2122   -2.1779   -0.1566 C   0  0  0  0  0  0  0  0  0  0  0  0
    1.0913   -2.5341   -0.7415 H   0  0  0  0  0  0  0  0  0  0  0  0
   -0.6372   -2.0285   -0.8619 H   0  0  0  0  0  0  0  0  0  0  0  0
   -0.1741   -3.2211    0.8507 C   0  0  0  0  0  0  0  0  0  0  0  0
   -1.4941   -3.2866    1.3273 C   0  0  0  0  0  0  0  0  0  0  0  0
   -2.2475   -2.6056    0.9505 H   0  0  0  0  0  0  0  0  0  0  0  0
   -1.8468   -4.2319    2.2956 C   0  0  0  0  0  0  0  0  0  0  0  0
   -2.8662   -4.2822    2.6558 H   0  0  0  0  0  0  0  0  0  0  0  0
   -0.8832   -5.1080    2.8029 C   0  0  0  0  0  0  0  0  0  0  0  0
   -1.1574   -5.8381    3.5534 H   0  0  0  0  0  0  0  0  0  0  0  0
    0.4360   -5.0367    2.3467 C   0  0  0  0  0  0  0  0  0  0  0  0
    1.1831   -5.7102    2.7464 H   0  0  0  0  0  0  0  0  0  0  0  0
    0.7930   -4.0927    1.3786 C   0  0  0  0  0  0  0  0  0  0  0  0
    1.8212   -4.0410    1.0420 H   0  0  0  0  0  0  0  0  0  0  0  0
   -2.9053    1.9388    0.9973 C   0  0  0  0  0  0  0  0  0  0  0  0
   -3.6425    2.8806    0.3039 F   0  0  0  0  0  0  0  0  0  0  0  0
   -2.6101    2.4381    2.2545 F   0  0  0  0  0  0  0  0  0  0  0  0
   -3.6551    0.7858    1.1345 F   0  0  0  0  0  0  0  0  0  0  0  0
  1  2  1  0  0  0  0
  2  3  1  0  0  0  0
  3  4  2  0  0  0  0
  3 40  1  0  0  0  0
  4  5  1  0  0  0  0
  5  6  1  1  0  0  0
  5  7  1  0  0  0  0
  7  8  1  1  0  0  0
  7  9  1  0  0  0  0
  7 11  1  0  0  0  0
  9 10  1  0  0  0  0
 11 12  1  1  0  0  0
 11 13  1  0  0  0  0
 11 15  1  0  0  0  0
 13 14  1  0  0  0  0
 15 16  1  6  0  0  0
 15 17  1  0  0  0  0
 15 22  1  0  0  0  0
 17 18  1  0  0  0  0
 17 19  1  0  0  0  0
 17 20  1  0  0  0  0
 20 21  1  0  0  0  0
 22 23  1  0  0  0  0
 23 24  1  6  0  0  0
 23 25  1  0  0  0  0
 23  5  1  0  0  0  0
 25 26  1  0  0  0  0
 26 27  1  0  0  0  0
 26 28  1  0  0  0  0
 26 29  1  0  0  0  0
 29 30  2  0  0  0  0
 30 31  1  0  0  0  0
 30 32  1  0  0  0  0
 32 33  1  0  0  0  0
 32 34  2  0  0  0  0
 34 35  1  0  0  0  0
 34 36  1  0  0  0  0
 36 37  1  0  0  0  0
 36 38  2  0  0  0  0
 38 39  1  0  0  0  0
 38 29  1  0  0  0  0
 40 41  1  0  0  0  0
 40 42  1  0  0  0  0
 40 43  1  0  0  0  0
M  END
>  <UniqueID>
244

>  <SMILES>
OC[C@H]1O[C@@H](OCc2ccccc2)[C@H](/N=C(/O)C(F)(F)F)[C@H](O)[C@@H]1O

>  <Energy>
45.04426487040549

>  <Genealogy>
OC[C@H]1O[C@@H](OCc2ccccc2)[C@H](N=C(O)C(F)(F)F)[C@H](O)[C@@H]1O (tautomer)
OC[C@H]1O[C@@H](OCc2ccccc2)[C@H](/N=C(/O)C(F)(F)F)[C@H](O)[C@@H]1O (cis-trans isomerization)
OC[C@H]1O[C@@H](OCc2ccccc2)[C@H](/N=C(/O)C(F)(F)F)[C@H](O)[C@@H]1O (3D coordinates assigned)
OC[C@H]1O[C@@H](OCc2ccccc2)[C@H](/N=C(/O)C(F)(F)F)[C@H](O)[C@@H]1O (nonaromatic ring conformer: 45.04426487040549 kcal/mol)

$$$$
ZINC000101073479
 OpenBabel03032110343D

 40 41  0  0  0  0  0  0  0  0999 V2000
   -2.1052   -4.7100   -0.7522 C   0  0  0  0  0  0  0  0  0  0  0  0
   -1.6203   -3.9077   -1.8239 O   0  0  0  0  0  0  0  0  0  0  0  0
   -1.8044   -2.5205   -1.9203 C   0  0  0  0  0  0  0  0  0  0  0  0
   -1.2715   -1.8538   -3.0300 C   0  0  0  0  0  0  0  0  0  0  0  0
   -1.4226   -0.4711   -3.1677 C   0  0  0  0  0  0  0  0  0  0  0  0
   -2.0743    0.2697   -2.1733 C   0  0  0  0  0  0  0  0  0  0  0  0
   -2.3021    1.7108   -2.3565 C   0  0  0  0  0  0  0  0  0  0  0  0
   -1.5803    2.6602   -1.8264 N   0  0  0  0  0  0  0  0  0  0  0  0
   -0.3574    2.6329   -1.0042 C   0  0  2  0  0  0  0  0  0  0  0  0
    0.9140    2.4169   -1.8432 C   0  0  2  0  0  0  0  0  0  0  0  0
    0.8590    1.1809   -2.5049 O   0  0  0  0  0  0  0  0  0  0  0  0
    2.1453    2.4608   -0.9115 C   0  0  2  0  0  0  0  0  0  0  0  0
    3.3012    2.0867   -1.6173 O   0  0  0  0  0  0  0  0  0  0  0  0
    1.9333    1.5147    0.2977 C   0  0  1  0  0  0  0  0  0  0  0  0
    3.1190    1.6032    1.2697 C   0  0  0  0  0  0  0  0  0  0  0  0
    2.9143    0.7585    2.3700 O   0  0  0  0  0  0  0  0  0  0  0  0
    0.7493    1.8628    1.0020 O   0  0  0  0  0  0  0  0  0  0  0  0
   -0.3954    1.6587    0.1899 C   0  0  1  0  0  0  0  0  0  0  0  0
   -1.5434    1.9133    0.9525 O   0  0  0  0  0  0  0  0  0  0  0  0
   -2.6604   -0.3999   -1.0897 C   0  0  0  0  0  0  0  0  0  0  0  0
   -2.5100   -1.7827   -0.9502 C   0  0  0  0  0  0  0  0  0  0  0  0
   -3.2130   -4.6516   -0.7025 H   0  0  0  0  0  0  0  0  0  0  0  0
   -1.6609   -4.3731    0.2082 H   0  0  0  0  0  0  0  0  0  0  0  0
   -1.8127   -5.7654   -0.9282 H   0  0  0  0  0  0  0  0  0  0  0  0
   -0.7452   -2.4120   -3.7938 H   0  0  0  0  0  0  0  0  0  0  0  0
   -1.0265    0.0221   -4.0469 H   0  0  0  0  0  0  0  0  0  0  0  0
   -3.1598    1.9972   -2.9498 H   0  0  0  0  0  0  0  0  0  0  0  0
   -0.2690    3.6533   -0.5675 H   0  0  0  0  0  0  0  0  0  0  0  0
    0.9878    3.2462   -2.5865 H   0  0  0  0  0  0  0  0  0  0  0  0
    1.4421    1.2524   -3.3051 H   0  0  0  0  0  0  0  0  0  0  0  0
    2.2647    3.5016   -0.5262 H   0  0  0  0  0  0  0  0  0  0  0  0
    3.5308    2.8476   -2.2123 H   0  0  0  0  0  0  0  0  0  0  0  0
    1.8785    0.4597   -0.0613 H   0  0  0  0  0  0  0  0  0  0  0  0
    3.2194    2.6457    1.6410 H   0  0  0  0  0  0  0  0  0  0  0  0
    4.0693    1.3322    0.7556 H   0  0  0  0  0  0  0  0  0  0  0  0
    3.0834   -0.1672    2.0530 H   0  0  0  0  0  0  0  0  0  0  0  0
   -0.4167    0.6041   -0.1620 H   0  0  0  0  0  0  0  0  0  0  0  0
   -1.5841    1.2016    1.6435 H   0  0  0  0  0  0  0  0  0  0  0  0
   -3.2258    0.1505   -0.3479 H   0  0  0  0  0  0  0  0  0  0  0  0
   -2.9523   -2.2683   -0.0912 H   0  0  0  0  0  0  0  0  0  0  0  0
  1  2  1  0  0  0  0
  1 22  1  0  0  0  0
  1 23  1  0  0  0  0
  1 24  1  0  0  0  0
  2  3  1  0  0  0  0
  3  4  2  0  0  0  0
  4  5  1  0  0  0  0
  4 25  1  0  0  0  0
  5  6  2  0  0  0  0
  5 26  1  0  0  0  0
  6  7  1  0  0  0  0
  6 20  1  0  0  0  0
  7  8  2  0  0  0  0
  7 27  1  0  0  0  0
  8  9  1  0  0  0  0
  9 10  1  0  0  0  0
  9 28  1  1  0  0  0
 10 11  1  0  0  0  0
 10 12  1  0  0  0  0
 10 29  1  6  0  0  0
 11 30  1  0  0  0  0
 12 13  1  0  0  0  0
 12 14  1  0  0  0  0
 12 31  1  1  0  0  0
 13 32  1  0  0  0  0
 14 15  1  0  0  0  0
 14 17  1  0  0  0  0
 14 33  1  6  0  0  0
 15 16  1  0  0  0  0
 15 34  1  0  0  0  0
 15 35  1  0  0  0  0
 16 36  1  0  0  0  0
 17 18  1  0  0  0  0
 18 19  1  0  0  0  0
 18  9  1  0  0  0  0
 18 37  1  6  0  0  0
 19 38  1  0  0  0  0
 20 21  2  0  0  0  0
 20 39  1  0  0  0  0
 21  3  1  0  0  0  0
 21 40  1  0  0  0  0
M  END
>  <UniqueID>
245

>  <SMILES>
COc1ccc(/C=N\[C@@H]2[C@H](O)[C@H](O)[C@@H](CO)O[C@H]2O)cc1

>  <Energy>
53.40477815364038

>  <Genealogy>
COc1ccc(/C=N\[C@@H]2[C@H](O)[C@H](O)[C@@H](CO)O[C@H]2O)cc1 (3D coordinates assigned)
COc1ccc(/C=N\[C@@H]2[C@H](O)[C@H](O)[C@@H](CO)O[C@H]2O)cc1 (nonaromatic ring conformer: 53.40477815364038 kcal/mol)

$$$$
ZINC000101073479
 OpenBabel03032110343D

 40 41  0  0  0  0  0  0  0  0999 V2000
   -5.1718   -3.5356   -3.1794 C   0  0  0  0  0  0  0  0  0  0  0  0
   -4.4009   -3.1941   -2.0320 O   0  0  0  0  0  0  0  0  0  0  0  0
   -3.1467   -2.5675   -2.0789 C   0  0  0  0  0  0  0  0  0  0  0  0
   -2.5218   -2.2171   -3.2911 C   0  0  0  0  0  0  0  0  0  0  0  0
   -1.2714   -1.5912   -3.2838 C   0  0  0  0  0  0  0  0  0  0  0  0
   -0.6373   -1.2895   -2.0714 C   0  0  0  0  0  0  0  0  0  0  0  0
    0.6911   -0.6474   -2.0903 C   0  0  0  0  0  0  0  0  0  0  0  0
    0.9437    0.5088   -1.5459 N   0  0  0  0  0  0  0  0  0  0  0  0
    0.0092    1.3570   -0.7944 C   0  0  2  0  0  0  0  0  0  0  0  0
    0.2859    2.8339   -1.1242 C   0  0  2  0  0  0  0  0  0  0  0  0
    0.1835    3.0430   -2.5098 O   0  0  0  0  0  0  0  0  0  0  0  0
    1.6711    3.2790   -0.5886 C   0  0  2  0  0  0  0  0  0  0  0  0
    2.6814    2.9858   -1.5225 O   0  0  0  0  0  0  0  0  0  0  0  0
    1.9971    2.5599    0.7479 C   0  0  1  0  0  0  0  0  0  0  0  0
    2.8215    3.4560    1.6832 C   0  0  0  0  0  0  0  0  0  0  0  0
    4.0344    3.8255    1.0833 O   0  0  0  0  0  0  0  0  0  0  0  0
    0.7988    2.1959    1.4081 O   0  0  0  0  0  0  0  0  0  0  0  0
    0.1677    1.1113    0.7376 C   0  0  1  0  0  0  0  0  0  0  0  0
   -1.1039    0.9234    1.2986 O   0  0  0  0  0  0  0  0  0  0  0  0
   -1.2467   -1.6635   -0.8648 C   0  0  0  0  0  0  0  0  0  0  0  0
   -2.4965   -2.2891   -0.8711 C   0  0  0  0  0  0  0  0  0  0  0  0
   -6.1165   -4.0157   -2.8516 H   0  0  0  0  0  0  0  0  0  0  0  0
   -5.4198   -2.6213   -3.7588 H   0  0  0  0  0  0  0  0  0  0  0  0
   -4.6114   -4.2520   -3.8166 H   0  0  0  0  0  0  0  0  0  0  0  0
   -2.9919   -2.4253   -4.2425 H   0  0  0  0  0  0  0  0  0  0  0  0
   -0.8030   -1.3301   -4.2252 H   0  0  0  0  0  0  0  0  0  0  0  0
    1.4685   -1.1142   -2.6805 H   0  0  0  0  0  0  0  0  0  0  0  0
   -1.0355    1.1445   -1.1156 H   0  0  0  0  0  0  0  0  0  0  0  0
   -0.4997    3.4376   -0.6093 H   0  0  0  0  0  0  0  0  0  0  0  0
    0.1176    4.0244   -2.6455 H   0  0  0  0  0  0  0  0  0  0  0  0
    1.6227    4.3817   -0.4176 H   0  0  0  0  0  0  0  0  0  0  0  0
    2.7170    3.7437   -2.1629 H   0  0  0  0  0  0  0  0  0  0  0  0
    2.6132    1.6496    0.5479 H   0  0  0  0  0  0  0  0  0  0  0  0
    3.0163    2.9214    2.6409 H   0  0  0  0  0  0  0  0  0  0  0  0
    2.2470    4.3753    1.9272 H   0  0  0  0  0  0  0  0  0  0  0  0
    4.6232    3.0269    1.1176 H   0  0  0  0  0  0  0  0  0  0  0  0
    0.7647    0.1837    0.9098 H   0  0  0  0  0  0  0  0  0  0  0  0
   -0.9593    0.6298    2.2359 H   0  0  0  0  0  0  0  0  0  0  0  0
   -0.7488   -1.4942    0.0791 H   0  0  0  0  0  0  0  0  0  0  0  0
   -2.9586   -2.5677    0.0675 H   0  0  0  0  0  0  0  0  0  0  0  0
  1  2  1  0  0  0  0
  1 22  1  0  0  0  0
  1 23  1  0  0  0  0
  1 24  1  0  0  0  0
  2  3  1  0  0  0  0
  3  4  2  0  0  0  0
  4  5  1  0  0  0  0
  4 25  1  0  0  0  0
  5  6  2  0  0  0  0
  5 26  1  0  0  0  0
  6  7  1  0  0  0  0
  6 20  1  0  0  0  0
  7  8  2  0  0  0  0
  7 27  1  0  0  0  0
  8  9  1  0  0  0  0
  9 10  1  0  0  0  0
  9 28  1  6  0  0  0
 10 11  1  0  0  0  0
 10 12  1  0  0  0  0
 10 29  1  1  0  0  0
 11 30  1  0  0  0  0
 12 13  1  0  0  0  0
 12 14  1  0  0  0  0
 12 31  1  1  0  0  0
 13 32  1  0  0  0  0
 14 15  1  0  0  0  0
 14 17  1  0  0  0  0
 14 33  1  6  0  0  0
 15 16  1  0  0  0  0
 15 34  1  0  0  0  0
 15 35  1  0  0  0  0
 16 36  1  0  0  0  0
 17 18  1  0  0  0  0
 18 19  1  0  0  0  0
 18  9  1  0  0  0  0
 18 37  1  1  0  0  0
 19 38  1  0  0  0  0
 20 21  2  0  0  0  0
 20 39  1  0  0  0  0
 21  3  1  0  0  0  0
 21 40  1  0  0  0  0
M  END
>  <UniqueID>
246

>  <SMILES>
COc1ccc(/C=N\[C@@H]2[C@H](O)[C@H](O)[C@@H](CO)O[C@H]2O)cc1

>  <Energy>
54.4188035308128

>  <Genealogy>
COc1ccc(/C=N\[C@@H]2[C@H](O)[C@H](O)[C@@H](CO)O[C@H]2O)cc1 (3D coordinates assigned)
COc1ccc(/C=N\[C@@H]2[C@H](O)[C@H](O)[C@@H](CO)O[C@H]2O)cc1 (nonaromatic ring conformer: 54.4188035308128 kcal/mol)

$$$$
ZINC000101135603
 OpenBabel03032110343D

 56 58  0  0  0  0  0  0  0  0999 V2000
   -2.0891   -1.1969   -4.5774 H   0  0  0  0  0  0  0  0  0  0  0  0
   -2.0073   -0.7709   -3.6621 O   0  0  0  0  0  0  0  0  0  0  0  0
   -1.1089   -1.2482   -2.7113 C   0  0  0  0  0  0  0  0  0  0  0  0
   -1.0660   -0.6556   -1.5523 N   0  0  0  0  0  0  0  0  0  0  0  0
   -0.1888   -0.9789   -0.4210 C   0  0  2  0  0  0  0  0  0  0  0  0
    0.1728   -2.0287   -0.4886 H   0  0  0  0  0  0  0  0  0  0  0  0
   -0.9834   -0.8464    0.8918 C   0  0  2  0  0  0  0  0  0  0  0  0
   -1.7154   -1.6915    0.9344 H   0  0  0  0  0  0  0  0  0  0  0  0
   -1.5912    0.4375    0.9487 O   0  0  0  0  0  0  0  0  0  0  0  0
   -2.9985    0.3362    0.9347 C   0  0  0  0  0  0  0  0  0  0  0  0
   -3.3565   -0.1932    1.8471 H   0  0  0  0  0  0  0  0  0  0  0  0
   -3.3484   -0.2302    0.0410 H   0  0  0  0  0  0  0  0  0  0  0  0
   -3.5789    1.7187    0.8930 C   0  0  0  0  0  0  0  0  0  0  0  0
   -3.8980    2.3918    2.0839 C   0  0  0  0  0  0  0  0  0  0  0  0
   -3.7586    1.9076    3.0427 H   0  0  0  0  0  0  0  0  0  0  0  0
   -4.3979    3.6972    2.0419 C   0  0  0  0  0  0  0  0  0  0  0  0
   -4.6482    4.2101    2.9615 H   0  0  0  0  0  0  0  0  0  0  0  0
   -4.5692    4.3427    0.8140 C   0  0  0  0  0  0  0  0  0  0  0  0
   -4.9544    5.3537    0.7833 H   0  0  0  0  0  0  0  0  0  0  0  0
   -4.2357    3.6858   -0.3738 C   0  0  0  0  0  0  0  0  0  0  0  0
   -4.3601    4.1899   -1.3235 H   0  0  0  0  0  0  0  0  0  0  0  0
   -3.7358    2.3804   -0.3361 C   0  0  0  0  0  0  0  0  0  0  0  0
   -3.4694    1.8864   -1.2626 H   0  0  0  0  0  0  0  0  0  0  0  0
   -0.0243   -1.0150    2.0863 C   0  0  2  0  0  0  0  0  0  0  0  0
    0.3415   -2.0663    2.0836 H   0  0  0  0  0  0  0  0  0  0  0  0
   -0.7009   -0.8044    3.3025 O   0  0  0  0  0  0  0  0  0  0  0  0
   -0.9203    0.1616    3.3674 H   0  0  0  0  0  0  0  0  0  0  0  0
    1.2004   -0.0763    1.9339 C   0  0  1  0  0  0  0  0  0  0  0  0
    0.8704    0.9882    1.9811 H   0  0  0  0  0  0  0  0  0  0  0  0
    2.1981   -0.2965    3.0800 C   0  0  0  0  0  0  0  0  0  0  0  0
    1.7136   -0.1029    4.0641 H   0  0  0  0  0  0  0  0  0  0  0  0
    2.5453   -1.3521    3.0741 H   0  0  0  0  0  0  0  0  0  0  0  0
    3.3141    0.5381    2.9248 O   0  0  0  0  0  0  0  0  0  0  0  0
    3.0252    1.4509    3.1877 H   0  0  0  0  0  0  0  0  0  0  0  0
    1.8626   -0.3346    0.7059 O   0  0  0  0  0  0  0  0  0  0  0  0
    1.0288   -0.0254   -0.3983 C   0  0  1  0  0  0  0  0  0  0  0  0
    0.6581    1.0286   -0.2995 H   0  0  0  0  0  0  0  0  0  0  0  0
    1.7870   -0.2299   -1.5785 O   0  0  0  0  0  0  0  0  0  0  0  0
    1.8089    0.9282   -2.3857 C   0  0  0  0  0  0  0  0  0  0  0  0
    0.7746    1.2745   -2.6160 H   0  0  0  0  0  0  0  0  0  0  0  0
    2.3456    1.7517   -1.8619 H   0  0  0  0  0  0  0  0  0  0  0  0
    2.5186    0.6084   -3.6687 C   0  0  0  0  0  0  0  0  0  0  0  0
    3.9205    0.6656   -3.7336 C   0  0  0  0  0  0  0  0  0  0  0  0
    4.4972    0.9721   -2.8697 H   0  0  0  0  0  0  0  0  0  0  0  0
    4.5850    0.3235   -4.9157 C   0  0  0  0  0  0  0  0  0  0  0  0
    5.6651    0.3737   -4.9625 H   0  0  0  0  0  0  0  0  0  0  0  0
    3.8565   -0.0889   -6.0349 C   0  0  0  0  0  0  0  0  0  0  0  0
    4.3724   -0.3551   -6.9483 H   0  0  0  0  0  0  0  0  0  0  0  0
    2.4623   -0.1644   -5.9725 C   0  0  0  0  0  0  0  0  0  0  0  0
    1.8995   -0.4914   -6.8371 H   0  0  0  0  0  0  0  0  0  0  0  0
    1.7940    0.1776   -4.7929 C   0  0  0  0  0  0  0  0  0  0  0  0
    0.7142    0.1051   -4.7564 H   0  0  0  0  0  0  0  0  0  0  0  0
   -0.2471   -2.4366   -3.0427 C   0  0  0  0  0  0  0  0  0  0  0  0
   -0.5437   -3.3019   -2.4140 H   0  0  0  0  0  0  0  0  0  0  0  0
   -0.3702   -2.7214   -4.1081 H   0  0  0  0  0  0  0  0  0  0  0  0
    0.8235   -2.2041   -2.8766 H   0  0  0  0  0  0  0  0  0  0  0  0
  1  2  1  0  0  0  0
  2  3  1  0  0  0  0
  3  4  2  0  0  0  0
  3 53  1  0  0  0  0
  4  5  1  0  0  0  0
  5  6  1  6  0  0  0
  5  7  1  0  0  0  0
  7  8  1  1  0  0  0
  7  9  1  0  0  0  0
  7 24  1  0  0  0  0
  9 10  1  0  0  0  0
 10 11  1  0  0  0  0
 10 12  1  0  0  0  0
 10 13  1  0  0  0  0
 13 14  2  0  0  0  0
 14 15  1  0  0  0  0
 14 16  1  0  0  0  0
 16 17  1  0  0  0  0
 16 18  2  0  0  0  0
 18 19  1  0  0  0  0
 18 20  1  0  0  0  0
 20 21  1  0  0  0  0
 20 22  2  0  0  0  0
 22 23  1  0  0  0  0
 22 13  1  0  0  0  0
 24 25  1  6  0  0  0
 24 26  1  0  0  0  0
 24 28  1  0  0  0  0
 26 27  1  0  0  0  0
 28 29  1  1  0  0  0
 28 30  1  0  0  0  0
 28 35  1  0  0  0  0
 30 31  1  0  0  0  0
 30 32  1  0  0  0  0
 30 33  1  0  0  0  0
 33 34  1  0  0  0  0
 35 36  1  0  0  0  0
 36 37  1  1  0  0  0
 36 38  1  0  0  0  0
 36  5  1  0  0  0  0
 38 39  1  0  0  0  0
 39 40  1  0  0  0  0
 39 41  1  0  0  0  0
 39 42  1  0  0  0  0
 42 43  2  0  0  0  0
 43 44  1  0  0  0  0
 43 45  1  0  0  0  0
 45 46  1  0  0  0  0
 45 47  2  0  0  0  0
 47 48  1  0  0  0  0
 47 49  1  0  0  0  0
 49 50  1  0  0  0  0
 49 51  2  0  0  0  0
 51 52  1  0  0  0  0
 51 42  1  0  0  0  0
 53 54  1  0  0  0  0
 53 55  1  0  0  0  0
 53 56  1  0  0  0  0
M  END
>  <UniqueID>
247

>  <SMILES>
C/C(O)=N\[C@@H]1[C@H](OCc2ccccc2)[C@H](O)[C@@H](CO)O[C@H]1OCc1ccccc1

>  <Energy>
60.74705643972983

>  <Genealogy>
CC(O)=N[C@@H]1[C@H](OCc2ccccc2)[C@H](O)[C@@H](CO)O[C@H]1OCc1ccccc1 (tautomer)
C/C(O)=N\[C@@H]1[C@H](OCc2ccccc2)[C@H](O)[C@@H](CO)O[C@H]1OCc1ccccc1 (cis-trans isomerization)
C/C(O)=N\[C@@H]1[C@H](OCc2ccccc2)[C@H](O)[C@@H](CO)O[C@H]1OCc1ccccc1 (3D coordinates assigned)
C/C(O)=N\[C@@H]1[C@H](OCc2ccccc2)[C@H](O)[C@@H](CO)O[C@H]1OCc1ccccc1 (nonaromatic ring conformer: 60.74705643972983 kcal/mol)

$$$$
ZINC000101135603
 OpenBabel03032110343D

 56 58  0  0  0  0  0  0  0  0999 V2000
   -1.7819    3.4464    2.4687 C   0  0  0  0  0  0  0  0  0  0  0  0
   -0.9465    2.2841    2.0423 C   0  0  0  0  0  0  0  0  0  0  0  0
    0.2748    2.2481    2.3540 O   0  0  0  0  0  0  0  0  0  0  0  0
   -1.5310    1.2335    1.2591 N   0  0  0  0  0  0  0  0  0  0  0  0
   -0.7504    0.0993    0.7459 C   0  0  2  0  0  0  0  0  0  0  0  0
   -0.1271    0.4209   -0.6224 C   0  0  2  0  0  0  0  0  0  0  0  0
    0.5492    1.6661   -0.5477 O   0  0  0  0  0  0  0  0  0  0  0  0
    1.7614    1.6319   -1.2692 C   0  0  0  0  0  0  0  0  0  0  0  0
    2.3730    3.0015   -1.2423 C   0  0  0  0  0  0  0  0  0  0  0  0
    3.1559    3.4031   -0.1472 C   0  0  0  0  0  0  0  0  0  0  0  0
    3.6887    4.6951   -0.0991 C   0  0  0  0  0  0  0  0  0  0  0  0
    3.4334    5.5972   -1.1357 C   0  0  0  0  0  0  0  0  0  0  0  0
    2.6398    5.2106   -2.2193 C   0  0  0  0  0  0  0  0  0  0  0  0
    2.1045    3.9197   -2.2711 C   0  0  0  0  0  0  0  0  0  0  0  0
   -1.2142    0.4781   -1.7087 C   0  0  2  0  0  0  0  0  0  0  0  0
   -1.9863    1.6418   -1.5462 O   0  0  0  0  0  0  0  0  0  0  0  0
   -2.1277   -0.7719   -1.6567 C   0  0  1  0  0  0  0  0  0  0  0  0
   -1.5035   -2.0029   -2.3429 C   0  0  0  0  0  0  0  0  0  0  0  0
   -2.3221   -3.1233   -2.1495 O   0  0  0  0  0  0  0  0  0  0  0  0
   -2.6321   -1.0528   -0.3532 O   0  0  0  0  0  0  0  0  0  0  0  0
   -1.6360   -1.1619    0.6560 C   0  0  1  0  0  0  0  0  0  0  0  0
   -0.8332   -2.3164    0.4390 O   0  0  0  0  0  0  0  0  0  0  0  0
   -0.7983   -3.1697    1.5676 C   0  0  0  0  0  0  0  0  0  0  0  0
    0.1268   -2.6239    2.6231 C   0  0  0  0  0  0  0  0  0  0  0  0
    1.5103   -2.5772    2.3864 C   0  0  0  0  0  0  0  0  0  0  0  0
    2.3685   -2.0167    3.3373 C   0  0  0  0  0  0  0  0  0  0  0  0
    1.8515   -1.4961    4.5268 C   0  0  0  0  0  0  0  0  0  0  0  0
    0.4751   -1.5344    4.7668 C   0  0  0  0  0  0  0  0  0  0  0  0
   -0.3866   -2.0942    3.8186 C   0  0  0  0  0  0  0  0  0  0  0  0
   -1.2366    4.0683    3.2102 H   0  0  0  0  0  0  0  0  0  0  0  0
   -2.0271    4.0686    1.5832 H   0  0  0  0  0  0  0  0  0  0  0  0
   -2.7225    3.0814    2.9314 H   0  0  0  0  0  0  0  0  0  0  0  0
   -2.5483    1.2992    1.0267 H   0  0  0  0  0  0  0  0  0  0  0  0
    0.0753   -0.1162    1.4582 H   0  0  0  0  0  0  0  0  0  0  0  0
    0.5659   -0.4234   -0.8596 H   0  0  0  0  0  0  0  0  0  0  0  0
    2.4691    0.9088   -0.8027 H   0  0  0  0  0  0  0  0  0  0  0  0
    1.5900    1.3217   -2.3255 H   0  0  0  0  0  0  0  0  0  0  0  0
    3.3506    2.7175    0.6684 H   0  0  0  0  0  0  0  0  0  0  0  0
    4.2958    4.9984    0.7441 H   0  0  0  0  0  0  0  0  0  0  0  0
    3.8453    6.5974   -1.0963 H   0  0  0  0  0  0  0  0  0  0  0  0
    2.4354    5.9129   -3.0171 H   0  0  0  0  0  0  0  0  0  0  0  0
    1.4809    3.6371   -3.1103 H   0  0  0  0  0  0  0  0  0  0  0  0
   -0.7052    0.5179   -2.7006 H   0  0  0  0  0  0  0  0  0  0  0  0
   -2.4271    1.8215   -2.4175 H   0  0  0  0  0  0  0  0  0  0  0  0
   -3.0185   -0.5289   -2.2773 H   0  0  0  0  0  0  0  0  0  0  0  0
   -1.4125   -1.7996   -3.4338 H   0  0  0  0  0  0  0  0  0  0  0  0
   -0.4810   -2.2078   -1.9618 H   0  0  0  0  0  0  0  0  0  0  0  0
   -1.8656   -3.8800   -2.6009 H   0  0  0  0  0  0  0  0  0  0  0  0
   -2.1932   -1.2109    1.6219 H   0  0  0  0  0  0  0  0  0  0  0  0
   -0.4054   -4.1549    1.2386 H   0  0  0  0  0  0  0  0  0  0  0  0
   -1.8181   -3.3762    1.9667 H   0  0  0  0  0  0  0  0  0  0  0  0
    1.9203   -2.9641    1.4617 H   0  0  0  0  0  0  0  0  0  0  0  0
    3.4338   -1.9810    3.1496 H   0  0  0  0  0  0  0  0  0  0  0  0
    2.5167   -1.0598    5.2606 H   0  0  0  0  0  0  0  0  0  0  0  0
    0.0754   -1.1257    5.6858 H   0  0  0  0  0  0  0  0  0  0  0  0
   -1.4520   -2.1052    4.0120 H   0  0  0  0  0  0  0  0  0  0  0  0
  1  2  1  0  0  0  0
  1 30  1  0  0  0  0
  1 31  1  0  0  0  0
  1 32  1  0  0  0  0
  2  3  2  0  0  0  0
  2  4  1  0  0  0  0
  4  5  1  0  0  0  0
  4 33  1  0  0  0  0
  5  6  1  0  0  0  0
  5 34  1  1  0  0  0
  6  7  1  0  0  0  0
  6 15  1  0  0  0  0
  6 35  1  6  0  0  0
  7  8  1  0  0  0  0
  8  9  1  0  0  0  0
  8 36  1  0  0  0  0
  8 37  1  0  0  0  0
  9 10  2  0  0  0  0
 10 11  1  0  0  0  0
 10 38  1  0  0  0  0
 11 12  2  0  0  0  0
 11 39  1  0  0  0  0
 12 13  1  0  0  0  0
 12 40  1  0  0  0  0
 13 14  2  0  0  0  0
 13 41  1  0  0  0  0
 14  9  1  0  0  0  0
 14 42  1  0  0  0  0
 15 16  1  0  0  0  0
 15 17  1  0  0  0  0
 15 43  1  6  0  0  0
 16 44  1  0  0  0  0
 17 18  1  0  0  0  0
 17 20  1  0  0  0  0
 17 45  1  6  0  0  0
 18 19  1  0  0  0  0
 18 46  1  0  0  0  0
 18 47  1  0  0  0  0
 19 48  1  0  0  0  0
 20 21  1  0  0  0  0
 21 22  1  0  0  0  0
 21  5  1  0  0  0  0
 21 49  1  1  0  0  0
 22 23  1  0  0  0  0
 23 24  1  0  0  0  0
 23 50  1  0  0  0  0
 23 51  1  0  0  0  0
 24 25  2  0  0  0  0
 25 26  1  0  0  0  0
 25 52  1  0  0  0  0
 26 27  2  0  0  0  0
 26 53  1  0  0  0  0
 27 28  1  0  0  0  0
 27 54  1  0  0  0  0
 28 29  2  0  0  0  0
 28 55  1  0  0  0  0
 29 24  1  0  0  0  0
 29 56  1  0  0  0  0
M  END
>  <UniqueID>
248

>  <SMILES>
CC(=O)N[C@@H]1[C@H](OCc2ccccc2)[C@H](O)[C@@H](CO)O[C@H]1OCc1ccccc1

>  <Energy>
64.9550597252443

>  <Genealogy>
CC(=O)N[C@@H]1[C@H](OCc2ccccc2)[C@H](O)[C@@H](CO)O[C@H]1OCc1ccccc1 (3D coordinates assigned)
CC(=O)N[C@@H]1[C@H](OCc2ccccc2)[C@H](O)[C@@H](CO)O[C@H]1OCc1ccccc1 (nonaromatic ring conformer: 64.9550597252443 kcal/mol)

$$$$
ZINC000101136391
 OpenBabel03032110343D

 38 39  0  0  0  0  0  0  0  0999 V2000
   -0.2647    0.4299   -3.5012 N   0  0  0  0  0  0  0  0  0  0  0  0
   -1.3684   -0.0647   -2.6729 C   0  0  2  0  0  0  0  0  0  0  0  0
   -2.5725    0.8938   -2.7656 C   0  0  2  0  0  0  0  0  0  0  0  0
   -2.1474    2.2098   -2.5027 O   0  0  0  0  0  0  0  0  0  0  0  0
   -3.6604    0.4657   -1.7589 C   0  0  2  0  0  0  0  0  0  0  0  0
   -4.7243    1.3868   -1.7526 O   0  0  0  0  0  0  0  0  0  0  0  0
   -3.0445    0.2679   -0.3470 C   0  0  1  0  0  0  0  0  0  0  0  0
   -4.0878   -0.2474    0.6539 C   0  0  0  0  0  0  0  0  0  0  0  0
   -5.0308    0.7493    0.9370 O   0  0  0  0  0  0  0  0  0  0  0  0
   -1.9956   -0.6837   -0.4102 O   0  0  0  0  0  0  0  0  0  0  0  0
   -0.9200   -0.2033   -1.2011 C   0  0  1  0  0  0  0  0  0  0  0  0
    0.1390   -1.1415   -1.1395 O   0  0  0  0  0  0  0  0  0  0  0  0
    0.8816   -0.9889    0.0555 C   0  0  0  0  0  0  0  0  0  0  0  0
    1.9740    0.0297   -0.1340 C   0  0  0  0  0  0  0  0  0  0  0  0
    1.9252    1.2637    0.5362 C   0  0  0  0  0  0  0  0  0  0  0  0
    2.9329    2.2125    0.3376 C   0  0  0  0  0  0  0  0  0  0  0  0
    3.9926    1.9373   -0.5312 C   0  0  0  0  0  0  0  0  0  0  0  0
    4.0437    0.7148   -1.2068 C   0  0  0  0  0  0  0  0  0  0  0  0
    3.0368   -0.2357   -1.0127 C   0  0  0  0  0  0  0  0  0  0  0  0
    0.4954   -0.2885   -3.5099 H   0  0  0  0  0  0  0  0  0  0  0  0
   -0.6007    0.4988   -4.4896 H   0  0  0  0  0  0  0  0  0  0  0  0
   -1.6827   -1.0676   -3.0450 H   0  0  0  0  0  0  0  0  0  0  0  0
   -2.9933    0.8254   -3.7975 H   0  0  0  0  0  0  0  0  0  0  0  0
   -2.7360    2.8165   -3.0234 H   0  0  0  0  0  0  0  0  0  0  0  0
   -4.0670   -0.5127   -2.0992 H   0  0  0  0  0  0  0  0  0  0  0  0
   -4.4067    2.2181   -1.3127 H   0  0  0  0  0  0  0  0  0  0  0  0
   -2.6588    1.2387    0.0450 H   0  0  0  0  0  0  0  0  0  0  0  0
   -3.5701   -0.5362    1.5964 H   0  0  0  0  0  0  0  0  0  0  0  0
   -4.5968   -1.1489    0.2442 H   0  0  0  0  0  0  0  0  0  0  0  0
   -5.6622    0.3529    1.5920 H   0  0  0  0  0  0  0  0  0  0  0  0
   -0.5795    0.8015   -0.8457 H   0  0  0  0  0  0  0  0  0  0  0  0
    1.3545   -1.9652    0.2931 H   0  0  0  0  0  0  0  0  0  0  0  0
    0.2384   -0.7452    0.9341 H   0  0  0  0  0  0  0  0  0  0  0  0
    1.1072    1.4925    1.2082 H   0  0  0  0  0  0  0  0  0  0  0  0
    2.8918    3.1613    0.8566 H   0  0  0  0  0  0  0  0  0  0  0  0
    4.7712    2.6734   -0.6851 H   0  0  0  0  0  0  0  0  0  0  0  0
    4.8619    0.5051   -1.8836 H   0  0  0  0  0  0  0  0  0  0  0  0
    3.0833   -1.1769   -1.5467 H   0  0  0  0  0  0  0  0  0  0  0  0
  1  2  1  0  0  0  0
  1 20  1  0  0  0  0
  1 21  1  0  0  0  0
  2  3  1  0  0  0  0
  2 22  1  6  0  0  0
  3  4  1  0  0  0  0
  3  5  1  0  0  0  0
  3 23  1  6  0  0  0
  4 24  1  0  0  0  0
  5  6  1  0  0  0  0
  5  7  1  0  0  0  0
  5 25  1  6  0  0  0
  6 26  1  0  0  0  0
  7  8  1  0  0  0  0
  7 10  1  0  0  0  0
  7 27  1  1  0  0  0
  8  9  1  0  0  0  0
  8 28  1  0  0  0  0
  8 29  1  0  0  0  0
  9 30  1  0  0  0  0
 10 11  1  0  0  0  0
 11 12  1  0  0  0  0
 11  2  1  0  0  0  0
 11 31  1  1  0  0  0
 12 13  1  0  0  0  0
 13 14  1  0  0  0  0
 13 32  1  0  0  0  0
 13 33  1  0  0  0  0
 14 15  2  0  0  0  0
 15 16  1  0  0  0  0
 15 34  1  0  0  0  0
 16 17  2  0  0  0  0
 16 35  1  0  0  0  0
 17 18  1  0  0  0  0
 17 36  1  0  0  0  0
 18 19  2  0  0  0  0
 18 37  1  0  0  0  0
 19 14  1  0  0  0  0
 19 38  1  0  0  0  0
M  END
>  <UniqueID>
249

>  <SMILES>
N[C@@H]1[C@H](O)[C@H](O)[C@@H](CO)O[C@H]1OCc1ccccc1

>  <Energy>
39.85106491009527

>  <Genealogy>
N[C@@H]1[C@H](O)[C@H](O)[C@@H](CO)O[C@H]1OCc1ccccc1 (3D coordinates assigned)
N[C@@H]1[C@H](O)[C@H](O)[C@@H](CO)O[C@H]1OCc1ccccc1 (nonaromatic ring conformer: 39.85106491009527 kcal/mol)

$$$$
ZINC000101136391
 OpenBabel03032110343D

 39 40  0  0  0  0  0  0  0  0999 V2000
    2.6594   -0.0265    1.0574 N   0  3  0  0  0  0  0  0  0  0  0  0
    1.2685    0.2272    1.4600 C   0  0  2  0  0  0  0  0  0  0  0  0
    0.6667   -0.9959    2.1978 C   0  0  2  0  0  0  0  0  0  0  0  0
    0.9569   -2.2087    1.5416 O   0  0  0  0  0  0  0  0  0  0  0  0
   -0.8523   -0.8156    2.4189 C   0  0  2  0  0  0  0  0  0  0  0  0
   -1.4277   -2.0248    2.8437 O   0  0  0  0  0  0  0  0  0  0  0  0
   -1.5424   -0.3281    1.1222 C   0  0  1  0  0  0  0  0  0  0  0  0
   -3.0388   -0.0598    1.3445 C   0  0  0  0  0  0  0  0  0  0  0  0
   -3.2329    1.0049    2.2384 O   0  0  0  0  0  0  0  0  0  0  0  0
   -0.9349    0.8656    0.6590 O   0  0  0  0  0  0  0  0  0  0  0  0
    0.3994    0.6240    0.2439 C   0  0  1  0  0  0  0  0  0  0  0  0
    0.9230    1.8198   -0.3058 O   0  0  0  0  0  0  0  0  0  0  0  0
    0.5194    1.9787   -1.6525 C   0  0  0  0  0  0  0  0  0  0  0  0
    1.4752    1.2652   -2.5715 C   0  0  0  0  0  0  0  0  0  0  0  0
    2.8133    1.6833   -2.6541 C   0  0  0  0  0  0  0  0  0  0  0  0
    3.7124    1.0069   -3.4843 C   0  0  0  0  0  0  0  0  0  0  0  0
    3.2829   -0.0917   -4.2340 C   0  0  0  0  0  0  0  0  0  0  0  0
    1.9538   -0.5164   -4.1534 C   0  0  0  0  0  0  0  0  0  0  0  0
    1.0515    0.1572   -3.3243 C   0  0  0  0  0  0  0  0  0  0  0  0
    3.2145   -0.3533    1.8815 H   0  0  0  0  0  0  0  0  0  0  0  0
    2.7031   -0.7497    0.3030 H   0  0  0  0  0  0  0  0  0  0  0  0
    3.0940    0.8565    0.7040 H   0  0  0  0  0  0  0  0  0  0  0  0
    1.2604    1.0841    2.1730 H   0  0  0  0  0  0  0  0  0  0  0  0
    1.1449   -1.0506    3.2005 H   0  0  0  0  0  0  0  0  0  0  0  0
    0.5315   -2.1911    0.6475 H   0  0  0  0  0  0  0  0  0  0  0  0
   -0.9936   -0.0368    3.2049 H   0  0  0  0  0  0  0  0  0  0  0  0
   -1.1482   -2.1582    3.7870 H   0  0  0  0  0  0  0  0  0  0  0  0
   -1.4847   -1.1223    0.3423 H   0  0  0  0  0  0  0  0  0  0  0  0
   -3.4983    0.2157    0.3713 H   0  0  0  0  0  0  0  0  0  0  0  0
   -3.5557   -0.9827    1.6967 H   0  0  0  0  0  0  0  0  0  0  0  0
   -3.3398    0.6083    3.1421 H   0  0  0  0  0  0  0  0  0  0  0  0
    0.4392   -0.2046   -0.5052 H   0  0  0  0  0  0  0  0  0  0  0  0
    0.5486    3.0619   -1.8948 H   0  0  0  0  0  0  0  0  0  0  0  0
   -0.5359    1.6591   -1.8230 H   0  0  0  0  0  0  0  0  0  0  0  0
    3.1589    2.5290   -2.0724 H   0  0  0  0  0  0  0  0  0  0  0  0
    4.7428    1.3329   -3.5446 H   0  0  0  0  0  0  0  0  0  0  0  0
    3.9803   -0.6150   -4.8753 H   0  0  0  0  0  0  0  0  0  0  0  0
    1.6233   -1.3696   -4.7316 H   0  0  0  0  0  0  0  0  0  0  0  0
    0.0267   -0.1881   -3.2657 H   0  0  0  0  0  0  0  0  0  0  0  0
  1  2  1  0  0  0  0
  1 20  1  0  0  0  0
  1 21  1  0  0  0  0
  1 22  1  0  0  0  0
  2  3  1  0  0  0  0
  2 23  1  1  0  0  0
  3  4  1  0  0  0  0
  3  5  1  0  0  0  0
  3 24  1  1  0  0  0
  4 25  1  0  0  0  0
  5  6  1  0  0  0  0
  5  7  1  0  0  0  0
  5 26  1  1  0  0  0
  6 27  1  0  0  0  0
  7  8  1  0  0  0  0
  7 10  1  0  0  0  0
  7 28  1  6  0  0  0
  8  9  1  0  0  0  0
  8 29  1  0  0  0  0
  8 30  1  0  0  0  0
  9 31  1  0  0  0  0
 10 11  1  0  0  0  0
 11 12  1  0  0  0  0
 11  2  1  0  0  0  0
 11 32  1  6  0  0  0
 12 13  1  0  0  0  0
 13 14  1  0  0  0  0
 13 33  1  0  0  0  0
 13 34  1  0  0  0  0
 14 15  2  0  0  0  0
 15 16  1  0  0  0  0
 15 35  1  0  0  0  0
 16 17  2  0  0  0  0
 16 36  1  0  0  0  0
 17 18  1  0  0  0  0
 17 37  1  0  0  0  0
 18 19  2  0  0  0  0
 18 38  1  0  0  0  0
 19 14  1  0  0  0  0
 19 39  1  0  0  0  0
M  CHG  1   1   1
M  END
>  <UniqueID>
250

>  <SMILES>
[NH3+][C@@H]1[C@H](O)[C@H](O)[C@@H](CO)O[C@H]1OCc1ccccc1

>  <Energy>
42.11744204521355

>  <Genealogy>
[NH3+][C@@H]1[C@H](O)[C@H](O)[C@@H](CO)O[C@H]1OCc1ccccc1 (protonated)
[NH3+][C@@H]1[C@H](O)[C@H](O)[C@@H](CO)O[C@H]1OCc1ccccc1 (3D coordinates assigned)
[NH3+][C@@H]1[C@H](O)[C@H](O)[C@@H](CO)O[C@H]1OCc1ccccc1 (nonaromatic ring conformer: 42.11744204521355 kcal/mol)

$$$$
ZINC000101178654
 OpenBabel03032110343D

 39 39  0  0  0  0  0  0  0  0999 V2000
   -2.0738    0.2786    2.2203 H   0  0  0  0  0  0  0  0  0  0  0  0
   -1.4734   -0.1691    1.5385 O   0  0  0  0  0  0  0  0  0  0  0  0
   -0.2228   -0.6714    1.8973 C   0  0  0  0  0  0  0  0  0  0  0  0
    0.5342   -1.2592    1.0193 N   0  0  0  0  0  0  0  0  0  0  0  0
    0.2040   -1.4163   -0.4001 C   0  0  2  0  0  0  0  0  0  0  0  0
   -0.8886   -1.6023   -0.5148 H   0  0  0  0  0  0  0  0  0  0  0  0
    0.9526   -2.6377   -0.9699 C   0  0  2  0  0  0  0  0  0  0  0  0
    0.5262   -3.5669   -0.5220 H   0  0  0  0  0  0  0  0  0  0  0  0
    2.3269   -2.5498   -0.6778 O   0  0  0  0  0  0  0  0  0  0  0  0
    2.4595   -2.9434    0.2239 H   0  0  0  0  0  0  0  0  0  0  0  0
    0.7460   -2.7045   -2.4949 C   0  0  2  0  0  0  0  0  0  0  0  0
   -0.3289   -2.9242   -2.6826 H   0  0  0  0  0  0  0  0  0  0  0  0
    1.4983   -3.7534   -3.0561 O   0  0  0  0  0  0  0  0  0  0  0  0
    2.4571   -3.5004   -3.0114 H   0  0  0  0  0  0  0  0  0  0  0  0
    1.0815   -1.3366   -3.1434 C   0  0  1  0  0  0  0  0  0  0  0  0
    2.1639   -1.1054   -3.0042 H   0  0  0  0  0  0  0  0  0  0  0  0
    0.8111   -1.3707   -4.6544 C   0  0  0  0  0  0  0  0  0  0  0  0
    1.4272   -2.1584   -5.1450 H   0  0  0  0  0  0  0  0  0  0  0  0
   -0.2579   -1.6128   -4.8366 H   0  0  0  0  0  0  0  0  0  0  0  0
    1.0870   -0.1218   -5.2293 O   0  0  0  0  0  0  0  0  0  0  0  0
    2.0755   -0.0446   -5.2807 H   0  0  0  0  0  0  0  0  0  0  0  0
    0.2810   -0.3183   -2.5672 O   0  0  0  0  0  0  0  0  0  0  0  0
    0.5910   -0.1470   -1.1929 C   0  0  1  0  0  0  0  0  0  0  0  0
    1.6862    0.0321   -1.0488 H   0  0  0  0  0  0  0  0  0  0  0  0
   -0.1605    0.9441   -0.6960 O   0  0  0  0  0  0  0  0  0  0  0  0
    0.4334    2.1839   -1.0412 C   0  0  0  0  0  0  0  0  0  0  0  0
    1.0781    2.1225   -1.9517 H   0  0  0  0  0  0  0  0  0  0  0  0
    1.2808    2.6871    0.1311 C   0  0  0  0  0  0  0  0  0  0  0  0
    1.7263    3.6757   -0.1108 H   0  0  0  0  0  0  0  0  0  0  0  0
    0.6584    2.7822    1.0468 H   0  0  0  0  0  0  0  0  0  0  0  0
    2.1066    1.9750    0.3387 H   0  0  0  0  0  0  0  0  0  0  0  0
   -0.6796    3.1830   -1.3530 C   0  0  0  0  0  0  0  0  0  0  0  0
   -0.2487    4.1698   -1.6271 H   0  0  0  0  0  0  0  0  0  0  0  0
   -1.2838    2.8138   -2.2087 H   0  0  0  0  0  0  0  0  0  0  0  0
   -1.3479    3.3090   -0.4740 H   0  0  0  0  0  0  0  0  0  0  0  0
    0.2389   -0.5687    3.3148 C   0  0  0  0  0  0  0  0  0  0  0  0
   -0.0210    0.4306    3.7224 H   0  0  0  0  0  0  0  0  0  0  0  0
   -0.2597   -1.3519    3.9226 H   0  0  0  0  0  0  0  0  0  0  0  0
    1.3400   -0.7023    3.3802 H   0  0  0  0  0  0  0  0  0  0  0  0
  1  2  1  0  0  0  0
  2  3  1  0  0  0  0
  3  4  2  0  0  0  0
  3 36  1  0  0  0  0
  4  5  1  0  0  0  0
  5  6  1  6  0  0  0
  5  7  1  0  0  0  0
  7  8  1  1  0  0  0
  7  9  1  0  0  0  0
  7 11  1  0  0  0  0
  9 10  1  0  0  0  0
 11 12  1  6  0  0  0
 11 13  1  0  0  0  0
 11 15  1  0  0  0  0
 13 14  1  0  0  0  0
 15 16  1  1  0  0  0
 15 17  1  0  0  0  0
 15 22  1  0  0  0  0
 17 18  1  0  0  0  0
 17 19  1  0  0  0  0
 17 20  1  0  0  0  0
 20 21  1  0  0  0  0
 22 23  1  0  0  0  0
 23 24  1  1  0  0  0
 23 25  1  0  0  0  0
 23  5  1  0  0  0  0
 25 26  1  0  0  0  0
 26 27  1  0  0  0  0
 26 28  1  0  0  0  0
 26 32  1  0  0  0  0
 28 29  1  0  0  0  0
 28 30  1  0  0  0  0
 28 31  1  0  0  0  0
 32 33  1  0  0  0  0
 32 34  1  0  0  0  0
 32 35  1  0  0  0  0
 36 37  1  0  0  0  0
 36 38  1  0  0  0  0
 36 39  1  0  0  0  0
M  END
>  <UniqueID>
251

>  <SMILES>
C/C(O)=N/[C@@H]1[C@H](O)[C@H](O)[C@@H](CO)O[C@H]1OC(C)C

>  <Energy>
31.743347536659584

>  <Genealogy>
CC(O)=N[C@@H]1[C@H](O)[C@H](O)[C@@H](CO)O[C@H]1OC(C)C (tautomer)
C/C(O)=N/[C@@H]1[C@H](O)[C@H](O)[C@@H](CO)O[C@H]1OC(C)C (cis-trans isomerization)
C/C(O)=N/[C@@H]1[C@H](O)[C@H](O)[C@@H](CO)O[C@H]1OC(C)C (3D coordinates assigned)
C/C(O)=N/[C@@H]1[C@H](O)[C@H](O)[C@@H](CO)O[C@H]1OC(C)C (nonaromatic ring conformer: 31.743347536659584 kcal/mol)

$$$$
ZINC000101178654
 OpenBabel03032110343D

 39 39  0  0  0  0  0  0  0  0999 V2000
    1.7718    4.0534   -1.3485 H   0  0  0  0  0  0  0  0  0  0  0  0
    2.2008    3.9190   -0.4403 O   0  0  0  0  0  0  0  0  0  0  0  0
    2.0125    2.7408    0.2768 C   0  0  0  0  0  0  0  0  0  0  0  0
    1.2641    1.8031   -0.2324 N   0  0  0  0  0  0  0  0  0  0  0  0
    0.9669    0.4947    0.3612 C   0  0  2  0  0  0  0  0  0  0  0  0
    0.8897    0.5828    1.4677 H   0  0  0  0  0  0  0  0  0  0  0  0
    2.0790   -0.5261    0.0176 C   0  0  2  0  0  0  0  0  0  0  0  0
    2.9663   -0.2949    0.6430 H   0  0  0  0  0  0  0  0  0  0  0  0
    2.4896   -0.4180   -1.3260 O   0  0  0  0  0  0  0  0  0  0  0  0
    1.7217   -0.6487   -1.9075 H   0  0  0  0  0  0  0  0  0  0  0  0
    1.6348   -1.9633    0.3759 C   0  0  2  0  0  0  0  0  0  0  0  0
    1.6296   -2.0382    1.4864 H   0  0  0  0  0  0  0  0  0  0  0  0
    2.5572   -2.9100   -0.1071 O   0  0  0  0  0  0  0  0  0  0  0  0
    2.4617   -2.9530   -1.0940 H   0  0  0  0  0  0  0  0  0  0  0  0
    0.1941   -2.2483   -0.1219 C   0  0  1  0  0  0  0  0  0  0  0  0
    0.1650   -2.2571   -1.2362 H   0  0  0  0  0  0  0  0  0  0  0  0
   -0.2780   -3.6310    0.3508 C   0  0  0  0  0  0  0  0  0  0  0  0
   -0.2584   -3.6731    1.4609 H   0  0  0  0  0  0  0  0  0  0  0  0
    0.3997   -4.4278   -0.0321 H   0  0  0  0  0  0  0  0  0  0  0  0
   -1.5908   -3.8731   -0.0785 O   0  0  0  0  0  0  0  0  0  0  0  0
   -1.5387   -4.0853   -1.0471 H   0  0  0  0  0  0  0  0  0  0  0  0
   -0.6957   -1.2723    0.3911 O   0  0  0  0  0  0  0  0  0  0  0  0
   -0.4034    0.0064   -0.1493 C   0  0  1  0  0  0  0  0  0  0  0  0
   -0.3824   -0.0232   -1.2665 H   0  0  0  0  0  0  0  0  0  0  0  0
   -1.3891    0.9227    0.2905 O   0  0  0  0  0  0  0  0  0  0  0  0
   -2.6047    0.7564   -0.4210 C   0  0  0  0  0  0  0  0  0  0  0  0
   -2.7169   -0.2605   -0.8702 H   0  0  0  0  0  0  0  0  0  0  0  0
   -2.6865    1.7965   -1.5416 C   0  0  0  0  0  0  0  0  0  0  0  0
   -3.6478    1.6984   -2.0899 H   0  0  0  0  0  0  0  0  0  0  0  0
   -2.6089    2.8235   -1.1246 H   0  0  0  0  0  0  0  0  0  0  0  0
   -1.8572    1.6445   -2.2637 H   0  0  0  0  0  0  0  0  0  0  0  0
   -3.7663    0.9400    0.5545 C   0  0  0  0  0  0  0  0  0  0  0  0
   -3.7033    0.1757    1.3580 H   0  0  0  0  0  0  0  0  0  0  0  0
   -4.7372    0.8171    0.0284 H   0  0  0  0  0  0  0  0  0  0  0  0
   -3.7295    1.9486    1.0195 H   0  0  0  0  0  0  0  0  0  0  0  0
    2.6694    2.6115    1.6197 C   0  0  0  0  0  0  0  0  0  0  0  0
    3.2501    3.5304    1.8454 H   0  0  0  0  0  0  0  0  0  0  0  0
    3.3689    1.7523    1.6298 H   0  0  0  0  0  0  0  0  0  0  0  0
    1.9015    2.4858    2.4111 H   0  0  0  0  0  0  0  0  0  0  0  0
  1  2  1  0  0  0  0
  2  3  1  0  0  0  0
  3  4  2  0  0  0  0
  3 36  1  0  0  0  0
  4  5  1  0  0  0  0
  5  6  1  1  0  0  0
  5  7  1  0  0  0  0
  7  8  1  1  0  0  0
  7  9  1  0  0  0  0
  7 11  1  0  0  0  0
  9 10  1  0  0  0  0
 11 12  1  1  0  0  0
 11 13  1  0  0  0  0
 11 15  1  0  0  0  0
 13 14  1  0  0  0  0
 15 16  1  6  0  0  0
 15 17  1  0  0  0  0
 15 22  1  0  0  0  0
 17 18  1  0  0  0  0
 17 19  1  0  0  0  0
 17 20  1  0  0  0  0
 20 21  1  0  0  0  0
 22 23  1  0  0  0  0
 23 24  1  6  0  0  0
 23 25  1  0  0  0  0
 23  5  1  0  0  0  0
 25 26  1  0  0  0  0
 26 27  1  0  0  0  0
 26 28  1  0  0  0  0
 26 32  1  0  0  0  0
 28 29  1  0  0  0  0
 28 30  1  0  0  0  0
 28 31  1  0  0  0  0
 32 33  1  0  0  0  0
 32 34  1  0  0  0  0
 32 35  1  0  0  0  0
 36 37  1  0  0  0  0
 36 38  1  0  0  0  0
 36 39  1  0  0  0  0
M  END
>  <UniqueID>
252

>  <SMILES>
C/C(O)=N\[C@@H]1[C@H](O)[C@H](O)[C@@H](CO)O[C@H]1OC(C)C

>  <Energy>
35.449546269454835

>  <Genealogy>
CC(O)=N[C@@H]1[C@H](O)[C@H](O)[C@@H](CO)O[C@H]1OC(C)C (tautomer)
C/C(O)=N\[C@@H]1[C@H](O)[C@H](O)[C@@H](CO)O[C@H]1OC(C)C (cis-trans isomerization)
C/C(O)=N\[C@@H]1[C@H](O)[C@H](O)[C@@H](CO)O[C@H]1OC(C)C (3D coordinates assigned)
C/C(O)=N\[C@@H]1[C@H](O)[C@H](O)[C@@H](CO)O[C@H]1OC(C)C (nonaromatic ring conformer: 35.449546269454835 kcal/mol)

$$$$
ZINC000101361998
 OpenBabel03032110343D

 54 56  0  0  0  0  0  0  0  0999 V2000
    2.1162   -1.0517    0.1499 O   0  0  0  0  0  0  0  0  0  0  0  0
    2.1764   -0.0147   -0.5668 C   0  0  0  0  0  0  0  0  0  0  0  0
    1.6318   -0.0168   -1.8920 N   0  0  0  0  0  0  0  0  0  0  0  0
    0.8777   -1.1513   -2.4399 C   0  0  2  0  0  0  0  0  0  0  0  0
    1.2960   -1.4394   -3.8966 C   0  0  2  0  0  0  0  0  0  0  0  0
    1.2018   -0.2718   -4.6775 O   0  0  0  0  0  0  0  0  0  0  0  0
    0.3785   -2.5313   -4.4819 C   0  0  2  0  0  0  0  0  0  0  0  0
    0.6638   -2.7459   -5.8434 O   0  0  0  0  0  0  0  0  0  0  0  0
   -1.1130   -2.1679   -4.2495 C   0  0  1  0  0  0  0  0  0  0  0  0
   -2.0315   -3.2854   -4.7633 C   0  0  0  0  0  0  0  0  0  0  0  0
   -3.3767   -2.9263   -4.5950 O   0  0  0  0  0  0  0  0  0  0  0  0
   -1.3584   -1.9834   -2.8642 O   0  0  0  0  0  0  0  0  0  0  0  0
   -0.6347   -0.8681   -2.3686 C   0  0  1  0  0  0  0  0  0  0  0  0
   -0.9839   -0.6622   -1.0114 O   0  0  0  0  0  0  0  0  0  0  0  0
   -2.2100    0.0363   -0.9052 C   0  0  0  0  0  0  0  0  0  0  0  0
   -1.9845    1.5208   -1.0263 C   0  0  0  0  0  0  0  0  0  0  0  0
   -1.2005    2.1923   -0.0743 C   0  0  0  0  0  0  0  0  0  0  0  0
   -0.9670    3.5658   -0.1984 C   0  0  0  0  0  0  0  0  0  0  0  0
   -1.5105    4.2751   -1.2731 C   0  0  0  0  0  0  0  0  0  0  0  0
   -2.2875    3.6120   -2.2269 C   0  0  0  0  0  0  0  0  0  0  0  0
   -2.5238    2.2391   -2.1066 C   0  0  0  0  0  0  0  0  0  0  0  0
    2.7832    1.1489   -0.0801 O   0  0  0  0  0  0  0  0  0  0  0  0
    3.2856    1.2736    1.2492 C   0  0  0  0  0  0  0  0  0  0  0  0
    2.1541    1.4942    2.2155 C   0  0  0  0  0  0  0  0  0  0  0  0
    1.5818    2.7699    2.3464 C   0  0  0  0  0  0  0  0  0  0  0  0
    0.5060    2.9739    3.2167 C   0  0  0  0  0  0  0  0  0  0  0  0
   -0.0107    1.9053    3.9539 C   0  0  0  0  0  0  0  0  0  0  0  0
    0.5491    0.6310    3.8241 C   0  0  0  0  0  0  0  0  0  0  0  0
    1.6270    0.4235    2.9575 C   0  0  0  0  0  0  0  0  0  0  0  0
    1.6287    0.8913   -2.4091 H   0  0  0  0  0  0  0  0  0  0  0  0
    1.0881   -2.0691   -1.8458 H   0  0  0  0  0  0  0  0  0  0  0  0
    2.3433   -1.8267   -3.9026 H   0  0  0  0  0  0  0  0  0  0  0  0
    2.0983    0.1552   -4.6770 H   0  0  0  0  0  0  0  0  0  0  0  0
    0.5921   -3.4802   -3.9409 H   0  0  0  0  0  0  0  0  0  0  0  0
    0.3472   -1.9536   -6.3511 H   0  0  0  0  0  0  0  0  0  0  0  0
   -1.3713   -1.2420   -4.8159 H   0  0  0  0  0  0  0  0  0  0  0  0
   -1.8523   -3.4492   -5.8467 H   0  0  0  0  0  0  0  0  0  0  0  0
   -1.8134   -4.2423   -4.2351 H   0  0  0  0  0  0  0  0  0  0  0  0
   -3.6167   -3.1442   -3.6569 H   0  0  0  0  0  0  0  0  0  0  0  0
   -0.8456    0.0465   -2.9775 H   0  0  0  0  0  0  0  0  0  0  0  0
   -2.6358   -0.1678    0.1000 H   0  0  0  0  0  0  0  0  0  0  0  0
   -2.9693   -0.3291   -1.6361 H   0  0  0  0  0  0  0  0  0  0  0  0
   -0.7695    1.6501    0.7580 H   0  0  0  0  0  0  0  0  0  0  0  0
   -0.3650    4.0826    0.5366 H   0  0  0  0  0  0  0  0  0  0  0  0
   -1.3293    5.3383   -1.3673 H   0  0  0  0  0  0  0  0  0  0  0  0
   -2.7052    4.1617   -3.0608 H   0  0  0  0  0  0  0  0  0  0  0  0
   -3.1210    1.7371   -2.8577 H   0  0  0  0  0  0  0  0  0  0  0  0
    3.9746    2.1441    1.2867 H   0  0  0  0  0  0  0  0  0  0  0  0
    3.8831    0.3761    1.5237 H   0  0  0  0  0  0  0  0  0  0  0  0
    1.9656    3.6040    1.7712 H   0  0  0  0  0  0  0  0  0  0  0  0
    0.0684    3.9595    3.3134 H   0  0  0  0  0  0  0  0  0  0  0  0
   -0.8460    2.0639    4.6240 H   0  0  0  0  0  0  0  0  0  0  0  0
    0.1463   -0.1971    4.3939 H   0  0  0  0  0  0  0  0  0  0  0  0
    2.0480   -0.5705    2.8657 H   0  0  0  0  0  0  0  0  0  0  0  0
  1  2  2  0  0  0  0
  2  3  1  0  0  0  0
  2 22  1  0  0  0  0
  3  4  1  0  0  0  0
  3 30  1  0  0  0  0
  4  5  1  0  0  0  0
  4 31  1  1  0  0  0
  5  6  1  0  0  0  0
  5  7  1  0  0  0  0
  5 32  1  6  0  0  0
  6 33  1  0  0  0  0
  7  8  1  0  0  0  0
  7  9  1  0  0  0  0
  7 34  1  1  0  0  0
  8 35  1  0  0  0  0
  9 10  1  0  0  0  0
  9 12  1  0  0  0  0
  9 36  1  6  0  0  0
 10 11  1  0  0  0  0
 10 37  1  0  0  0  0
 10 38  1  0  0  0  0
 11 39  1  0  0  0  0
 12 13  1  0  0  0  0
 13 14  1  0  0  0  0
 13  4  1  0  0  0  0
 13 40  1  6  0  0  0
 14 15  1  0  0  0  0
 15 16  1  0  0  0  0
 15 41  1  0  0  0  0
 15 42  1  0  0  0  0
 16 17  2  0  0  0  0
 17 18  1  0  0  0  0
 17 43  1  0  0  0  0
 18 19  2  0  0  0  0
 18 44  1  0  0  0  0
 19 20  1  0  0  0  0
 19 45  1  0  0  0  0
 20 21  2  0  0  0  0
 20 46  1  0  0  0  0
 21 16  1  0  0  0  0
 21 47  1  0  0  0  0
 22 23  1  0  0  0  0
 23 24  1  0  0  0  0
 23 48  1  0  0  0  0
 23 49  1  0  0  0  0
 24 25  2  0  0  0  0
 25 26  1  0  0  0  0
 25 50  1  0  0  0  0
 26 27  2  0  0  0  0
 26 51  1  0  0  0  0
 27 28  1  0  0  0  0
 27 52  1  0  0  0  0
 28 29  2  0  0  0  0
 28 53  1  0  0  0  0
 29 24  1  0  0  0  0
 29 54  1  0  0  0  0
M  END
>  <UniqueID>
253

>  <SMILES>
O=C(N[C@@H]1[C@H](O)[C@H](O)[C@@H](CO)O[C@H]1OCc1ccccc1)OCc1ccccc1

>  <Energy>
52.246052377055214

>  <Genealogy>
O=C(N[C@@H]1[C@H](O)[C@H](O)[C@@H](CO)O[C@H]1OCc1ccccc1)OCc1ccccc1 (3D coordinates assigned)
O=C(N[C@@H]1[C@H](O)[C@H](O)[C@@H](CO)O[C@H]1OCc1ccccc1)OCc1ccccc1 (nonaromatic ring conformer: 52.246052377055214 kcal/mol)

$$$$
ZINC000101361998
 OpenBabel03032110343D

 54 56  0  0  0  0  0  0  0  0999 V2000
   -3.4701    2.6217   -1.1976 H   0  0  0  0  0  0  0  0  0  0  0  0
   -2.9264    2.0410   -0.5712 O   0  0  0  0  0  0  0  0  0  0  0  0
   -1.8314    1.3225   -1.0429 C   0  0  0  0  0  0  0  0  0  0  0  0
   -1.1330    0.5774   -0.2379 N   0  0  0  0  0  0  0  0  0  0  0  0
   -1.3901    0.4003    1.1938 C   0  0  2  0  0  0  0  0  0  0  0  0
   -2.4897    0.3929    1.3738 H   0  0  0  0  0  0  0  0  0  0  0  0
   -0.7712    1.5467    2.0449 C   0  0  2  0  0  0  0  0  0  0  0  0
   -1.3796    1.6504    2.9763 H   0  0  0  0  0  0  0  0  0  0  0  0
   -0.7713    2.7695    1.3523 O   0  0  0  0  0  0  0  0  0  0  0  0
   -1.6703    3.1715    1.4771 H   0  0  0  0  0  0  0  0  0  0  0  0
    0.6599    1.2079    2.4925 C   0  0  2  0  0  0  0  0  0  0  0  0
    0.9983    2.0243    3.1739 H   0  0  0  0  0  0  0  0  0  0  0  0
    1.5024    1.1825    1.3687 O   0  0  0  0  0  0  0  0  0  0  0  0
    2.4341    1.2287    1.7086 H   0  0  0  0  0  0  0  0  0  0  0  0
    0.6896   -0.1800    3.2193 C   0  0  1  0  0  0  0  0  0  0  0  0
    1.5623   -0.7745    2.8609 H   0  0  0  0  0  0  0  0  0  0  0  0
    0.8676   -0.0077    4.7319 C   0  0  0  0  0  0  0  0  0  0  0  0
    0.0591    0.6439    5.1339 H   0  0  0  0  0  0  0  0  0  0  0  0
    0.7953   -1.0043    5.2230 H   0  0  0  0  0  0  0  0  0  0  0  0
    2.1212    0.5540    5.0094 O   0  0  0  0  0  0  0  0  0  0  0  0
    2.1682    0.6469    5.9963 H   0  0  0  0  0  0  0  0  0  0  0  0
   -0.4940   -0.9382    3.0006 O   0  0  0  0  0  0  0  0  0  0  0  0
   -0.8138   -0.9674    1.6219 C   0  0  1  0  0  0  0  0  0  0  0  0
    0.1055   -1.1658    1.0106 H   0  0  0  0  0  0  0  0  0  0  0  0
   -1.7936   -1.9632    1.3881 O   0  0  0  0  0  0  0  0  0  0  0  0
   -1.1973   -3.2415    1.2718 C   0  0  0  0  0  0  0  0  0  0  0  0
   -1.9816   -4.0051    1.4565 H   0  0  0  0  0  0  0  0  0  0  0  0
   -0.4161   -3.4086    2.0502 H   0  0  0  0  0  0  0  0  0  0  0  0
   -0.6588   -3.4560   -0.1203 C   0  0  0  0  0  0  0  0  0  0  0  0
   -1.4959   -3.2810   -1.2347 C   0  0  0  0  0  0  0  0  0  0  0  0
   -2.5319   -2.9948   -1.1015 H   0  0  0  0  0  0  0  0  0  0  0  0
   -0.9960   -3.4665   -2.5272 C   0  0  0  0  0  0  0  0  0  0  0  0
   -1.6433   -3.3238   -3.3827 H   0  0  0  0  0  0  0  0  0  0  0  0
    0.3396   -3.8321   -2.7160 C   0  0  0  0  0  0  0  0  0  0  0  0
    0.7258   -3.9725   -3.7172 H   0  0  0  0  0  0  0  0  0  0  0  0
    1.1773   -4.0141   -1.6121 C   0  0  0  0  0  0  0  0  0  0  0  0
    2.2121   -4.2946   -1.7595 H   0  0  0  0  0  0  0  0  0  0  0  0
    0.6821   -3.8261   -0.3177 C   0  0  0  0  0  0  0  0  0  0  0  0
    1.3452   -3.9633    0.5272 H   0  0  0  0  0  0  0  0  0  0  0  0
   -1.4931    1.4098   -2.3993 O   0  0  0  0  0  0  0  0  0  0  0  0
   -0.5115    0.5830   -3.0261 C   0  0  0  0  0  0  0  0  0  0  0  0
   -0.5240    0.7824   -4.1182 H   0  0  0  0  0  0  0  0  0  0  0  0
   -0.7824   -0.4856   -2.8824 H   0  0  0  0  0  0  0  0  0  0  0  0
    0.8663    0.8777   -2.4952 C   0  0  0  0  0  0  0  0  0  0  0  0
    1.5963   -0.1128   -1.8166 C   0  0  0  0  0  0  0  0  0  0  0  0
    1.1751   -1.0970   -1.6636 H   0  0  0  0  0  0  0  0  0  0  0  0
    2.8729    0.1679   -1.3216 C   0  0  0  0  0  0  0  0  0  0  0  0
    3.4291   -0.5980   -0.7967 H   0  0  0  0  0  0  0  0  0  0  0  0
    3.4264    1.4395   -1.4941 C   0  0  0  0  0  0  0  0  0  0  0  0
    4.4129    1.6571   -1.1058 H   0  0  0  0  0  0  0  0  0  0  0  0
    2.7046    2.4313   -2.1646 C   0  0  0  0  0  0  0  0  0  0  0  0
    3.1337    3.4161   -2.2962 H   0  0  0  0  0  0  0  0  0  0  0  0
    1.4289    2.1526   -2.6656 C   0  0  0  0  0  0  0  0  0  0  0  0
    0.8784    2.9287   -3.1828 H   0  0  0  0  0  0  0  0  0  0  0  0
  1  2  1  0  0  0  0
  2  3  1  0  0  0  0
  3  4  2  0  0  0  0
  3 40  1  0  0  0  0
  4  5  1  0  0  0  0
  5  6  1  1  0  0  0
  5  7  1  0  0  0  0
  7  8  1  1  0  0  0
  7  9  1  0  0  0  0
  7 11  1  0  0  0  0
  9 10  1  0  0  0  0
 11 12  1  1  0  0  0
 11 13  1  0  0  0  0
 11 15  1  0  0  0  0
 13 14  1  0  0  0  0
 15 16  1  6  0  0  0
 15 17  1  0  0  0  0
 15 22  1  0  0  0  0
 17 18  1  0  0  0  0
 17 19  1  0  0  0  0
 17 20  1  0  0  0  0
 20 21  1  0  0  0  0
 22 23  1  0  0  0  0
 23 24  1  6  0  0  0
 23 25  1  0  0  0  0
 23  5  1  0  0  0  0
 25 26  1  0  0  0  0
 26 27  1  0  0  0  0
 26 28  1  0  0  0  0
 26 29  1  0  0  0  0
 29 30  2  0  0  0  0
 30 31  1  0  0  0  0
 30 32  1  0  0  0  0
 32 33  1  0  0  0  0
 32 34  2  0  0  0  0
 34 35  1  0  0  0  0
 34 36  1  0  0  0  0
 36 37  1  0  0  0  0
 36 38  2  0  0  0  0
 38 39  1  0  0  0  0
 38 29  1  0  0  0  0
 40 41  1  0  0  0  0
 41 42  1  0  0  0  0
 41 43  1  0  0  0  0
 41 44  1  0  0  0  0
 44 45  2  0  0  0  0
 45 46  1  0  0  0  0
 45 47  1  0  0  0  0
 47 48  1  0  0  0  0
 47 49  2  0  0  0  0
 49 50  1  0  0  0  0
 49 51  1  0  0  0  0
 51 52  1  0  0  0  0
 51 53  2  0  0  0  0
 53 54  1  0  0  0  0
 53 44  1  0  0  0  0
M  END
>  <UniqueID>
254

>  <SMILES>
OC[C@H]1O[C@@H](OCc2ccccc2)[C@H](/N=C(/O)OCc2ccccc2)[C@H](O)[C@@H]1O

>  <Energy>
58.41468198095224

>  <Genealogy>
OC[C@H]1O[C@@H](OCc2ccccc2)[C@H](N=C(O)OCc2ccccc2)[C@H](O)[C@@H]1O (tautomer)
OC[C@H]1O[C@@H](OCc2ccccc2)[C@H](/N=C(/O)OCc2ccccc2)[C@H](O)[C@@H]1O (cis-trans isomerization)
OC[C@H]1O[C@@H](OCc2ccccc2)[C@H](/N=C(/O)OCc2ccccc2)[C@H](O)[C@@H]1O (3D coordinates assigned)
OC[C@H]1O[C@@H](OCc2ccccc2)[C@H](/N=C(/O)OCc2ccccc2)[C@H](O)[C@@H]1O (nonaromatic ring conformer: 58.41468198095224 kcal/mol)

$$$$
ZINC000102205030
 OpenBabel03032110343D

 38 38  0  0  0  0  0  0  0  0999 V2000
   -1.0485    5.3031   -1.0924 H   0  0  0  0  0  0  0  0  0  0  0  0
   -0.9698    4.3137   -0.8938 O   0  0  0  0  0  0  0  0  0  0  0  0
   -0.4227    3.8578    0.3040 C   0  0  0  0  0  0  0  0  0  0  0  0
   -0.3408    2.5847    0.5524 N   0  0  0  0  0  0  0  0  0  0  0  0
   -0.7922    1.5333   -0.3636 C   0  0  2  0  0  0  0  0  0  0  0  0
   -0.4401    1.7649   -1.3943 H   0  0  0  0  0  0  0  0  0  0  0  0
   -2.3303    1.4299   -0.3637 C   0  0  2  0  0  0  0  0  0  0  0  0
   -2.7471    2.3489   -0.8373 H   0  0  0  0  0  0  0  0  0  0  0  0
   -2.7979    1.3197    0.9586 O   0  0  0  0  0  0  0  0  0  0  0  0
   -3.7376    1.6388    0.9612 H   0  0  0  0  0  0  0  0  0  0  0  0
   -2.7677    0.2050   -1.1940 C   0  0  2  0  0  0  0  0  0  0  0  0
   -2.5205    0.4023   -2.2631 H   0  0  0  0  0  0  0  0  0  0  0  0
   -4.1501   -0.0058   -1.0611 O   0  0  0  0  0  0  0  0  0  0  0  0
   -4.6000    0.7122   -1.5798 H   0  0  0  0  0  0  0  0  0  0  0  0
   -1.9928   -1.0514   -0.7294 C   0  0  1  0  0  0  0  0  0  0  0  0
   -2.2693   -1.2843    0.3259 H   0  0  0  0  0  0  0  0  0  0  0  0
   -2.3650   -2.2895   -1.5604 C   0  0  0  0  0  0  0  0  0  0  0  0
   -3.4563   -2.5021   -1.4836 H   0  0  0  0  0  0  0  0  0  0  0  0
   -1.8360   -3.1717   -1.1421 H   0  0  0  0  0  0  0  0  0  0  0  0
   -1.9710   -2.1348   -2.8967 O   0  0  0  0  0  0  0  0  0  0  0  0
   -2.7461   -1.7482   -3.3822 H   0  0  0  0  0  0  0  0  0  0  0  0
   -0.5950   -0.8363   -0.8369 O   0  0  0  0  0  0  0  0  0  0  0  0
   -0.1766    0.1860    0.0564 C   0  0  1  0  0  0  0  0  0  0  0  0
   -0.4963   -0.0369    1.1041 H   0  0  0  0  0  0  0  0  0  0  0  0
    1.2322    0.3094    0.0135 O   0  0  0  0  0  0  0  0  0  0  0  0
    1.8630   -0.8753    0.4657 C   0  0  0  0  0  0  0  0  0  0  0  0
    1.2228   -1.5105    1.1229 H   0  0  0  0  0  0  0  0  0  0  0  0
    2.1562   -1.4852   -0.4161 H   0  0  0  0  0  0  0  0  0  0  0  0
    3.1251   -0.5063    1.2457 C   0  0  0  0  0  0  0  0  0  0  0  0
    3.6513   -1.4294    1.5713 H   0  0  0  0  0  0  0  0  0  0  0  0
    3.8096    0.0675    0.5850 H   0  0  0  0  0  0  0  0  0  0  0  0
    2.7993    0.3113    2.4096 N   0  0  0  0  0  0  0  0  0  0  0  0
    2.1193   -0.1411    3.3308 N   0  3  0  0  0  0  0  0  0  0  0  0
    1.4380   -0.5917    4.2501 N   0  5  0  0  0  0  0  0  0  0  0  0
    0.0573    4.8391    1.3229 C   0  0  0  0  0  0  0  0  0  0  0  0
   -0.8084    5.2190    1.9098 H   0  0  0  0  0  0  0  0  0  0  0  0
    0.5574    5.6897    0.8084 H   0  0  0  0  0  0  0  0  0  0  0  0
    0.7979    4.3606    2.0108 H   0  0  0  0  0  0  0  0  0  0  0  0
  1  2  1  0  0  0  0
  2  3  1  0  0  0  0
  3  4  2  0  0  0  0
  3 35  1  0  0  0  0
  4  5  1  0  0  0  0
  5  6  1  6  0  0  0
  5  7  1  0  0  0  0
  7  8  1  6  0  0  0
  7  9  1  0  0  0  0
  7 11  1  0  0  0  0
  9 10  1  0  0  0  0
 11 12  1  6  0  0  0
 11 13  1  0  0  0  0
 11 15  1  0  0  0  0
 13 14  1  0  0  0  0
 15 16  1  1  0  0  0
 15 17  1  0  0  0  0
 15 22  1  0  0  0  0
 17 18  1  0  0  0  0
 17 19  1  0  0  0  0
 17 20  1  0  0  0  0
 20 21  1  0  0  0  0
 22 23  1  0  0  0  0
 23 24  1  1  0  0  0
 23 25  1  0  0  0  0
 23  5  1  0  0  0  0
 25 26  1  0  0  0  0
 26 27  1  0  0  0  0
 26 28  1  0  0  0  0
 26 29  1  0  0  0  0
 29 30  1  0  0  0  0
 29 31  1  0  0  0  0
 29 32  1  0  0  0  0
 32 33  2  0  0  0  0
 33 34  2  0  0  0  0
 35 36  1  0  0  0  0
 35 37  1  0  0  0  0
 35 38  1  0  0  0  0
M  CHG  2  33   1  34  -1
M  END
>  <UniqueID>
255

>  <SMILES>
C/C(O)=N\[C@@H]1[C@H](O)[C@H](O)[C@@H](CO)O[C@H]1OCCN=[N+]=[N-]

>  <Energy>
30.876726622235704

>  <Genealogy>
CC(O)=N[C@@H]1[C@H](O)[C@H](O)[C@@H](CO)O[C@H]1OCCN=[N+]=[N-] (tautomer)
C/C(O)=N\[C@@H]1[C@H](O)[C@H](O)[C@@H](CO)O[C@H]1OCCN=[N+]=[N-] (cis-trans isomerization)
C/C(O)=N\[C@@H]1[C@H](O)[C@H](O)[C@@H](CO)O[C@H]1OCCN=[N+]=[N-] (3D coordinates assigned)
C/C(O)=N\[C@@H]1[C@H](O)[C@H](O)[C@@H](CO)O[C@H]1OCCN=[N+]=[N-] (nonaromatic ring conformer: 30.876726622235704 kcal/mol)

$$$$
ZINC000102205030
 OpenBabel03032110343D

 38 38  0  0  0  0  0  0  0  0999 V2000
    1.2986    3.8347    1.3937 H   0  0  0  0  0  0  0  0  0  0  0  0
    0.6758    3.2969    0.8046 O   0  0  0  0  0  0  0  0  0  0  0  0
   -0.7096    3.4069    0.9321 C   0  0  0  0  0  0  0  0  0  0  0  0
   -1.5039    2.7005    0.1850 N   0  0  0  0  0  0  0  0  0  0  0  0
   -1.0581    1.7360   -0.8256 C   0  0  2  0  0  0  0  0  0  0  0  0
   -0.2515    2.1981   -1.4396 H   0  0  0  0  0  0  0  0  0  0  0  0
   -2.2238    1.4033   -1.7921 C   0  0  2  0  0  0  0  0  0  0  0  0
   -1.7914    1.0680   -2.7647 H   0  0  0  0  0  0  0  0  0  0  0  0
   -3.0330    2.5273   -2.0232 O   0  0  0  0  0  0  0  0  0  0  0  0
   -2.4827    3.1847   -2.5221 H   0  0  0  0  0  0  0  0  0  0  0  0
   -3.0841    0.2470   -1.2521 C   0  0  2  0  0  0  0  0  0  0  0  0
   -3.8339   -0.0049   -2.0401 H   0  0  0  0  0  0  0  0  0  0  0  0
   -3.7688    0.6743   -0.1010 O   0  0  0  0  0  0  0  0  0  0  0  0
   -4.4899    0.0130    0.0648 H   0  0  0  0  0  0  0  0  0  0  0  0
   -2.1883   -0.9900   -0.9137 C   0  0  1  0  0  0  0  0  0  0  0  0
   -2.4477   -1.3747    0.0988 H   0  0  0  0  0  0  0  0  0  0  0  0
   -2.4481   -2.1370   -1.8983 C   0  0  0  0  0  0  0  0  0  0  0  0
   -3.5211   -2.4291   -1.8579 H   0  0  0  0  0  0  0  0  0  0  0  0
   -2.2027   -1.8014   -2.9310 H   0  0  0  0  0  0  0  0  0  0  0  0
   -1.6547   -3.2412   -1.5584 O   0  0  0  0  0  0  0  0  0  0  0  0
   -1.8412   -3.9346   -2.2432 H   0  0  0  0  0  0  0  0  0  0  0  0
   -0.8035   -0.6784   -0.9487 O   0  0  0  0  0  0  0  0  0  0  0  0
   -0.5281    0.4502   -0.1374 C   0  0  1  0  0  0  0  0  0  0  0  0
   -1.0418    0.3531    0.8567 H   0  0  0  0  0  0  0  0  0  0  0  0
    0.8753    0.5610    0.0217 O   0  0  0  0  0  0  0  0  0  0  0  0
    1.3073   -0.2089    1.1252 C   0  0  0  0  0  0  0  0  0  0  0  0
    0.9621    0.2696    2.0695 H   0  0  0  0  0  0  0  0  0  0  0  0
    0.9137   -1.2506    1.0709 H   0  0  0  0  0  0  0  0  0  0  0  0
    2.8344   -0.2723    1.1303 C   0  0  0  0  0  0  0  0  0  0  0  0
    3.1782   -0.8307    0.2350 H   0  0  0  0  0  0  0  0  0  0  0  0
    3.2612    0.7539    1.0902 H   0  0  0  0  0  0  0  0  0  0  0  0
    3.3206   -0.9563    2.3231 N   0  0  0  0  0  0  0  0  0  0  0  0
    3.1874   -0.4532    3.4394 N   0  3  0  0  0  0  0  0  0  0  0  0
    3.0539    0.0517    4.5521 N   0  5  0  0  0  0  0  0  0  0  0  0
   -1.2886    4.3399    1.9471 C   0  0  0  0  0  0  0  0  0  0  0  0
   -0.8784    5.3600    1.7902 H   0  0  0  0  0  0  0  0  0  0  0  0
   -2.3952    4.3778    1.8585 H   0  0  0  0  0  0  0  0  0  0  0  0
   -1.0198    3.9919    2.9667 H   0  0  0  0  0  0  0  0  0  0  0  0
  1  2  1  0  0  0  0
  2  3  1  0  0  0  0
  3  4  2  0  0  0  0
  3 35  1  0  0  0  0
  4  5  1  0  0  0  0
  5  6  1  6  0  0  0
  5  7  1  0  0  0  0
  7  8  1  6  0  0  0
  7  9  1  0  0  0  0
  7 11  1  0  0  0  0
  9 10  1  0  0  0  0
 11 12  1  6  0  0  0
 11 13  1  0  0  0  0
 11 15  1  0  0  0  0
 13 14  1  0  0  0  0
 15 16  1  1  0  0  0
 15 17  1  0  0  0  0
 15 22  1  0  0  0  0
 17 18  1  0  0  0  0
 17 19  1  0  0  0  0
 17 20  1  0  0  0  0
 20 21  1  0  0  0  0
 22 23  1  0  0  0  0
 23 24  1  1  0  0  0
 23 25  1  0  0  0  0
 23  5  1  0  0  0  0
 25 26  1  0  0  0  0
 26 27  1  0  0  0  0
 26 28  1  0  0  0  0
 26 29  1  0  0  0  0
 29 30  1  0  0  0  0
 29 31  1  0  0  0  0
 29 32  1  0  0  0  0
 32 33  2  0  0  0  0
 33 34  2  0  0  0  0
 35 36  1  0  0  0  0
 35 37  1  0  0  0  0
 35 38  1  0  0  0  0
M  CHG  2  33   1  34  -1
M  END
>  <UniqueID>
256

>  <SMILES>
C/C(O)=N\[C@@H]1[C@H](O)[C@H](O)[C@@H](CO)O[C@H]1OCCN=[N+]=[N-]

>  <Energy>
37.15322173802628

>  <Genealogy>
CC(O)=N[C@@H]1[C@H](O)[C@H](O)[C@@H](CO)O[C@H]1OCCN=[N+]=[N-] (tautomer)
C/C(O)=N\[C@@H]1[C@H](O)[C@H](O)[C@@H](CO)O[C@H]1OCCN=[N+]=[N-] (cis-trans isomerization)
C/C(O)=N\[C@@H]1[C@H](O)[C@H](O)[C@@H](CO)O[C@H]1OCCN=[N+]=[N-] (3D coordinates assigned)
C/C(O)=N\[C@@H]1[C@H](O)[C@H](O)[C@@H](CO)O[C@H]1OCCN=[N+]=[N-] (nonaromatic ring conformer: 37.15322173802628 kcal/mol)

$$$$
ZINC000102863660
 OpenBabel03032110343D

 42 42  0  0  0  0  0  0  0  0999 V2000
   -2.9494   -3.0218    0.9383 H   0  0  0  0  0  0  0  0  0  0  0  0
   -2.5068   -2.1177    0.8260 O   0  0  0  0  0  0  0  0  0  0  0  0
   -2.9938   -1.1838   -0.0880 C   0  0  0  0  0  0  0  0  0  0  0  0
   -2.4287   -0.0204   -0.2116 N   0  0  0  0  0  0  0  0  0  0  0  0
   -1.2346    0.4018    0.5270 C   0  0  1  0  0  0  0  0  0  0  0  0
   -1.3051    0.0413    1.5791 H   0  0  0  0  0  0  0  0  0  0  0  0
    0.0360   -0.1801   -0.1459 C   0  0  2  0  0  0  0  0  0  0  0  0
   -0.1717   -0.2930   -1.2353 H   0  0  0  0  0  0  0  0  0  0  0  0
    0.3385   -1.4278    0.4597 O   0  0  0  0  0  0  0  0  0  0  0  0
    1.0183   -2.3617   -0.3819 C   0  0  0  0  0  0  0  0  0  0  0  0
    0.0549   -2.9812   -1.4197 C   0  0  0  0  0  0  0  0  0  0  0  0
   -0.8603   -3.3610   -0.9193 H   0  0  0  0  0  0  0  0  0  0  0  0
   -0.2474   -2.2519   -2.1977 H   0  0  0  0  0  0  0  0  0  0  0  0
    0.5424   -3.8313   -1.9444 H   0  0  0  0  0  0  0  0  0  0  0  0
    2.2601   -1.7615   -1.0875 C   0  0  0  0  0  0  0  0  0  0  0  0
    1.9718   -1.0227   -1.8640 H   0  0  0  0  0  0  0  0  0  0  0  0
    2.8430   -2.5591   -1.5970 H   0  0  0  0  0  0  0  0  0  0  0  0
    2.9225   -1.2638   -0.3474 H   0  0  0  0  0  0  0  0  0  0  0  0
    1.5047   -3.4915    0.5416 C   0  0  0  0  0  0  0  0  0  0  0  0
    2.0361   -4.2820   -0.0321 H   0  0  0  0  0  0  0  0  0  0  0  0
    2.1986   -3.0882    1.3106 H   0  0  0  0  0  0  0  0  0  0  0  0
    0.6437   -3.9579    1.0678 H   0  0  0  0  0  0  0  0  0  0  0  0
    1.1225    0.7051    0.0597 O   0  0  0  0  0  0  0  0  0  0  0  0
    0.9870    1.8613   -0.7575 C   0  0  2  0  0  0  0  0  0  0  0  0
    1.1669    1.5768   -1.8205 H   0  0  0  0  0  0  0  0  0  0  0  0
    2.0932    2.8503   -0.3766 C   0  0  0  0  0  0  0  0  0  0  0  0
    2.0297    3.7499   -1.0297 H   0  0  0  0  0  0  0  0  0  0  0  0
    1.9638    3.1628    0.6843 H   0  0  0  0  0  0  0  0  0  0  0  0
    3.3462    2.2457   -0.5410 O   0  0  0  0  0  0  0  0  0  0  0  0
    4.0173    2.9256   -0.2720 H   0  0  0  0  0  0  0  0  0  0  0  0
   -0.4223    2.5270   -0.6219 C   0  0  1  0  0  0  0  0  0  0  0  0
   -0.3323    3.6289   -0.4677 H   0  0  0  0  0  0  0  0  0  0  0  0
   -1.1793    2.2946   -1.7831 O   0  0  0  0  0  0  0  0  0  0  0  0
   -0.8160    2.8954   -2.4852 H   0  0  0  0  0  0  0  0  0  0  0  0
   -1.1655    1.9499    0.5934 C   0  0  1  0  0  0  0  0  0  0  0  0
   -0.5808    2.2374    1.5000 H   0  0  0  0  0  0  0  0  0  0  0  0
   -2.4481    2.5166    0.6839 O   0  0  0  0  0  0  0  0  0  0  0  0
   -2.7928    2.2968    1.5888 H   0  0  0  0  0  0  0  0  0  0  0  0
   -4.2024   -1.5055   -0.9057 C   0  0  0  0  0  0  0  0  0  0  0  0
   -4.1474   -2.5564   -1.2587 H   0  0  0  0  0  0  0  0  0  0  0  0
   -5.1128   -1.3760   -0.2846 H   0  0  0  0  0  0  0  0  0  0  0  0
   -4.2667   -0.8373   -1.7910 H   0  0  0  0  0  0  0  0  0  0  0  0
  1  2  1  0  0  0  0
  2  3  1  0  0  0  0
  3  4  2  0  0  0  0
  3 39  1  0  0  0  0
  4  5  1  0  0  0  0
  5  6  1  1  0  0  0
  5  7  1  0  0  0  0
  7  8  1  6  0  0  0
  7  9  1  0  0  0  0
  7 23  1  0  0  0  0
  9 10  1  0  0  0  0
 10 11  1  0  0  0  0
 10 15  1  0  0  0  0
 10 19  1  0  0  0  0
 11 12  1  0  0  0  0
 11 13  1  0  0  0  0
 11 14  1  0  0  0  0
 15 16  1  0  0  0  0
 15 17  1  0  0  0  0
 15 18  1  0  0  0  0
 19 20  1  0  0  0  0
 19 21  1  0  0  0  0
 19 22  1  0  0  0  0
 23 24  1  0  0  0  0
 24 25  1  6  0  0  0
 24 26  1  0  0  0  0
 24 31  1  0  0  0  0
 26 27  1  0  0  0  0
 26 28  1  0  0  0  0
 26 29  1  0  0  0  0
 29 30  1  0  0  0  0
 31 32  1  1  0  0  0
 31 33  1  0  0  0  0
 31 35  1  0  0  0  0
 33 34  1  0  0  0  0
 35 36  1  1  0  0  0
 35 37  1  0  0  0  0
 35  5  1  0  0  0  0
 37 38  1  0  0  0  0
 39 40  1  0  0  0  0
 39 41  1  0  0  0  0
 39 42  1  0  0  0  0
M  END
>  <UniqueID>
257

>  <SMILES>
C/C(O)=N\[C@H]1[C@H](OC(C)(C)C)O[C@H](CO)[C@@H](O)[C@H]1O

>  <Energy>
45.711366308794446

>  <Genealogy>
CC(O)=N[C@H]1[C@H](OC(C)(C)C)O[C@H](CO)[C@@H](O)[C@H]1O (tautomer)
C/C(O)=N\[C@H]1[C@H](OC(C)(C)C)O[C@H](CO)[C@@H](O)[C@H]1O (cis-trans isomerization)
C/C(O)=N\[C@H]1[C@H](OC(C)(C)C)O[C@H](CO)[C@@H](O)[C@H]1O (3D coordinates assigned)
C/C(O)=N\[C@H]1[C@H](OC(C)(C)C)O[C@H](CO)[C@@H](O)[C@H]1O (nonaromatic ring conformer: 45.711366308794446 kcal/mol)

$$$$
ZINC000102863660
 OpenBabel03032110343D

 42 42  0  0  0  0  0  0  0  0999 V2000
    2.3660   -3.4152    1.1390 C   0  0  0  0  0  0  0  0  0  0  0  0
    1.8261   -2.5255    0.0677 C   0  0  0  0  0  0  0  0  0  0  0  0
    1.2745   -3.0360   -0.9446 O   0  0  0  0  0  0  0  0  0  0  0  0
    1.9013   -1.1009    0.2165 N   0  0  0  0  0  0  0  0  0  0  0  0
    1.2256   -0.1771   -0.7034 C   0  0  1  0  0  0  0  0  0  0  0  0
   -0.2165    0.0818   -0.2106 C   0  0  2  0  0  0  0  0  0  0  0  0
   -1.0639   -0.9159   -0.7597 O   0  0  0  0  0  0  0  0  0  0  0  0
   -2.1665   -1.2946    0.0646 C   0  0  0  0  0  0  0  0  0  0  0  0
   -3.0899   -2.1462   -0.8231 C   0  0  0  0  0  0  0  0  0  0  0  0
   -1.6992   -2.1767    1.2446 C   0  0  0  0  0  0  0  0  0  0  0  0
   -2.9883   -0.0855    0.5776 C   0  0  0  0  0  0  0  0  0  0  0  0
   -0.6462    1.3499   -0.6705 O   0  0  0  0  0  0  0  0  0  0  0  0
   -0.0207    2.3894    0.0708 C   0  0  2  0  0  0  0  0  0  0  0  0
   -0.4025    3.7266   -0.5771 C   0  0  0  0  0  0  0  0  0  0  0  0
   -0.0432    4.7974    0.2573 O   0  0  0  0  0  0  0  0  0  0  0  0
    1.5343    2.2177    0.1500 C   0  0  1  0  0  0  0  0  0  0  0  0
    1.9108    1.8376    1.4490 O   0  0  0  0  0  0  0  0  0  0  0  0
    2.0120    1.1517   -0.8565 C   0  0  1  0  0  0  0  0  0  0  0  0
    3.3939    0.9277   -0.7292 O   0  0  0  0  0  0  0  0  0  0  0  0
    3.3759   -3.0681    1.4420 H   0  0  0  0  0  0  0  0  0  0  0  0
    2.4420   -4.4619    0.7750 H   0  0  0  0  0  0  0  0  0  0  0  0
    1.6892   -3.3848    2.0180 H   0  0  0  0  0  0  0  0  0  0  0  0
    2.3055   -0.7232    1.1031 H   0  0  0  0  0  0  0  0  0  0  0  0
    1.1877   -0.6359   -1.7177 H   0  0  0  0  0  0  0  0  0  0  0  0
   -0.2080    0.0535    0.9039 H   0  0  0  0  0  0  0  0  0  0  0  0
   -3.9772   -2.5042   -0.2568 H   0  0  0  0  0  0  0  0  0  0  0  0
   -2.5420   -3.0310   -1.2138 H   0  0  0  0  0  0  0  0  0  0  0  0
   -3.4441   -1.5511   -1.6926 H   0  0  0  0  0  0  0  0  0  0  0  0
   -1.0531   -3.0012    0.8752 H   0  0  0  0  0  0  0  0  0  0  0  0
   -1.1301   -1.5983    1.9998 H   0  0  0  0  0  0  0  0  0  0  0  0
   -2.5724   -2.6233    1.7675 H   0  0  0  0  0  0  0  0  0  0  0  0
   -2.4254    0.5050    1.3299 H   0  0  0  0  0  0  0  0  0  0  0  0
   -3.2607    0.5819   -0.2678 H   0  0  0  0  0  0  0  0  0  0  0  0
   -3.9245   -0.4297    1.0681 H   0  0  0  0  0  0  0  0  0  0  0  0
   -0.4524    2.4005    1.0989 H   0  0  0  0  0  0  0  0  0  0  0  0
    0.0648    3.8141   -1.5866 H   0  0  0  0  0  0  0  0  0  0  0  0
   -1.5041    3.7567   -0.7192 H   0  0  0  0  0  0  0  0  0  0  0  0
    0.7787    5.2037   -0.1228 H   0  0  0  0  0  0  0  0  0  0  0  0
    2.0554    3.1695   -0.1069 H   0  0  0  0  0  0  0  0  0  0  0  0
    1.8325    2.6480    2.0174 H   0  0  0  0  0  0  0  0  0  0  0  0
    1.8041    1.5449   -1.8809 H   0  0  0  0  0  0  0  0  0  0  0  0
    3.8507    1.7285   -1.0979 H   0  0  0  0  0  0  0  0  0  0  0  0
  1  2  1  0  0  0  0
  1 20  1  0  0  0  0
  1 21  1  0  0  0  0
  1 22  1  0  0  0  0
  2  3  2  0  0  0  0
  2  4  1  0  0  0  0
  4  5  1  0  0  0  0
  4 23  1  0  0  0  0
  5  6  1  0  0  0  0
  5 24  1  6  0  0  0
  6  7  1  0  0  0  0
  6 12  1  0  0  0  0
  6 25  1  1  0  0  0
  7  8  1  0  0  0  0
  8  9  1  0  0  0  0
  8 10  1  0  0  0  0
  8 11  1  0  0  0  0
  9 26  1  0  0  0  0
  9 27  1  0  0  0  0
  9 28  1  0  0  0  0
 10 29  1  0  0  0  0
 10 30  1  0  0  0  0
 10 31  1  0  0  0  0
 11 32  1  0  0  0  0
 11 33  1  0  0  0  0
 11 34  1  0  0  0  0
 12 13  1  0  0  0  0
 13 14  1  0  0  0  0
 13 16  1  0  0  0  0
 13 35  1  1  0  0  0
 14 15  1  0  0  0  0
 14 36  1  0  0  0  0
 14 37  1  0  0  0  0
 15 38  1  0  0  0  0
 16 17  1  0  0  0  0
 16 18  1  0  0  0  0
 16 39  1  6  0  0  0
 17 40  1  0  0  0  0
 18 19  1  0  0  0  0
 18  5  1  0  0  0  0
 18 41  1  6  0  0  0
 19 42  1  0  0  0  0
M  END
>  <UniqueID>
258

>  <SMILES>
CC(=O)N[C@H]1[C@H](OC(C)(C)C)O[C@H](CO)[C@@H](O)[C@H]1O

>  <Energy>
47.093764464885766

>  <Genealogy>
CC(=O)N[C@H]1[C@H](OC(C)(C)C)O[C@H](CO)[C@@H](O)[C@H]1O (3D coordinates assigned)
CC(=O)N[C@H]1[C@H](OC(C)(C)C)O[C@H](CO)[C@@H](O)[C@H]1O (nonaromatic ring conformer: 47.093764464885766 kcal/mol)

$$$$
ZINC000102974493
 OpenBabel03032110343D

 40 41  0  0  0  0  0  0  0  0999 V2000
   -2.6701    4.2850   -1.8467 H   0  0  0  0  0  0  0  0  0  0  0  0
   -2.1335    3.6359   -1.2840 O   0  0  0  0  0  0  0  0  0  0  0  0
   -1.3391    2.6539   -1.8753 C   0  0  0  0  0  0  0  0  0  0  0  0
   -0.6397    1.8385   -1.1444 N   0  0  0  0  0  0  0  0  0  0  0  0
   -0.6096    1.8600    0.3198 C   0  0  1  0  0  0  0  0  0  0  0  0
   -1.6477    1.9636    0.7114 H   0  0  0  0  0  0  0  0  0  0  0  0
   -0.0354    0.5304    0.8411 C   0  0  2  0  0  0  0  0  0  0  0  0
    0.9842    0.3729    0.4164 H   0  0  0  0  0  0  0  0  0  0  0  0
   -0.8746   -0.5362    0.3995 O   0  0  0  0  0  0  0  0  0  0  0  0
   -0.6061   -1.9003    0.5917 C   0  0  0  0  0  0  0  0  0  0  0  0
   -1.5410   -2.8325    0.1238 C   0  0  0  0  0  0  0  0  0  0  0  0
   -2.4419   -2.4919   -0.3706 H   0  0  0  0  0  0  0  0  0  0  0  0
   -1.3215   -4.2032    0.2903 C   0  0  0  0  0  0  0  0  0  0  0  0
   -2.0530   -4.9122   -0.0759 H   0  0  0  0  0  0  0  0  0  0  0  0
   -0.1618   -4.6547    0.9274 C   0  0  0  0  0  0  0  0  0  0  0  0
    0.1130   -6.3745    1.1363 Cl  0  0  0  0  0  0  0  0  0  0  0  0
    0.7789   -3.7331    1.3973 C   0  0  0  0  0  0  0  0  0  0  0  0
    1.6788   -4.0780    1.8906 H   0  0  0  0  0  0  0  0  0  0  0  0
    0.5620   -2.3615    1.2318 C   0  0  0  0  0  0  0  0  0  0  0  0
    1.3073   -1.6722    1.6037 H   0  0  0  0  0  0  0  0  0  0  0  0
   -0.0052    0.5337    2.2583 O   0  0  0  0  0  0  0  0  0  0  0  0
    0.9075    1.5078    2.7357 C   0  0  2  0  0  0  0  0  0  0  0  0
    1.9214    1.3342    2.3035 H   0  0  0  0  0  0  0  0  0  0  0  0
    1.0441    1.3434    4.2549 C   0  0  0  0  0  0  0  0  0  0  0  0
    1.4432    0.3269    4.4713 H   0  0  0  0  0  0  0  0  0  0  0  0
    1.7655    2.0900    4.6561 H   0  0  0  0  0  0  0  0  0  0  0  0
   -0.2016    1.4981    4.8784 O   0  0  0  0  0  0  0  0  0  0  0  0
   -0.0393    1.3804    5.8503 H   0  0  0  0  0  0  0  0  0  0  0  0
    0.4232    2.9287    2.3594 C   0  0  1  0  0  0  0  0  0  0  0  0
   -0.5671    3.1067    2.8418 H   0  0  0  0  0  0  0  0  0  0  0  0
    1.3463    3.8867    2.8110 O   0  0  0  0  0  0  0  0  0  0  0  0
    0.8860    4.7657    2.7746 H   0  0  0  0  0  0  0  0  0  0  0  0
    0.2472    3.0360    0.8304 C   0  0  1  0  0  0  0  0  0  0  0  0
   -0.2856    3.9879    0.5983 H   0  0  0  0  0  0  0  0  0  0  0  0
    1.5008    3.0215    0.1912 O   0  0  0  0  0  0  0  0  0  0  0  0
    1.8504    3.9503    0.2160 H   0  0  0  0  0  0  0  0  0  0  0  0
   -1.2690    2.5521   -3.3648 C   0  0  0  0  0  0  0  0  0  0  0  0
   -0.5932    3.3406   -3.7561 H   0  0  0  0  0  0  0  0  0  0  0  0
   -0.8839    1.5566   -3.6733 H   0  0  0  0  0  0  0  0  0  0  0  0
   -2.2811    2.6907   -3.7989 H   0  0  0  0  0  0  0  0  0  0  0  0
  1  2  1  0  0  0  0
  2  3  1  0  0  0  0
  3  4  2  0  0  0  0
  3 37  1  0  0  0  0
  4  5  1  0  0  0  0
  5  6  1  1  0  0  0
  5  7  1  0  0  0  0
  7  8  1  6  0  0  0
  7  9  1  0  0  0  0
  7 21  1  0  0  0  0
  9 10  1  0  0  0  0
 10 11  2  0  0  0  0
 11 12  1  0  0  0  0
 11 13  1  0  0  0  0
 13 14  1  0  0  0  0
 13 15  2  0  0  0  0
 15 16  1  0  0  0  0
 15 17  1  0  0  0  0
 17 18  1  0  0  0  0
 17 19  2  0  0  0  0
 19 20  1  0  0  0  0
 19 10  1  0  0  0  0
 21 22  1  0  0  0  0
 22 23  1  6  0  0  0
 22 24  1  0  0  0  0
 22 29  1  0  0  0  0
 24 25  1  0  0  0  0
 24 26  1  0  0  0  0
 24 27  1  0  0  0  0
 27 28  1  0  0  0  0
 29 30  1  1  0  0  0
 29 31  1  0  0  0  0
 29 33  1  0  0  0  0
 31 32  1  0  0  0  0
 33 34  1  6  0  0  0
 33 35  1  0  0  0  0
 33  5  1  0  0  0  0
 35 36  1  0  0  0  0
 37 38  1  0  0  0  0
 37 39  1  0  0  0  0
 37 40  1  0  0  0  0
M  END
>  <UniqueID>
259

>  <SMILES>
C/C(O)=N\[C@H]1[C@H](Oc2ccc(Cl)cc2)O[C@H](CO)[C@@H](O)[C@H]1O

>  <Energy>
35.350386127512536

>  <Genealogy>
CC(O)=N[C@H]1[C@H](Oc2ccc(Cl)cc2)O[C@H](CO)[C@@H](O)[C@H]1O (tautomer)
C/C(O)=N\[C@H]1[C@H](Oc2ccc(Cl)cc2)O[C@H](CO)[C@@H](O)[C@H]1O (cis-trans isomerization)
C/C(O)=N\[C@H]1[C@H](Oc2ccc(Cl)cc2)O[C@H](CO)[C@@H](O)[C@H]1O (3D coordinates assigned)
C/C(O)=N\[C@H]1[C@H](Oc2ccc(Cl)cc2)O[C@H](CO)[C@@H](O)[C@H]1O (nonaromatic ring conformer: 35.350386127512536 kcal/mol)

$$$$
ZINC000102974493
 OpenBabel03032110343D

 40 41  0  0  0  0  0  0  0  0999 V2000
    1.9673    2.5112    1.6956 C   0  0  0  0  0  0  0  0  0  0  0  0
    0.7720    1.6530    1.4377 C   0  0  0  0  0  0  0  0  0  0  0  0
    0.3604    0.8846    2.3468 O   0  0  0  0  0  0  0  0  0  0  0  0
    0.1494    1.6733    0.1410 N   0  0  0  0  0  0  0  0  0  0  0  0
   -0.9697    0.8252   -0.3013 C   0  0  1  0  0  0  0  0  0  0  0  0
   -0.6884   -0.6883   -0.1369 C   0  0  2  0  0  0  0  0  0  0  0  0
    0.4816   -1.0310   -0.8854 O   0  0  0  0  0  0  0  0  0  0  0  0
    1.7990   -0.9451   -0.4130 C   0  0  0  0  0  0  0  0  0  0  0  0
    2.1509   -1.3014    0.9024 C   0  0  0  0  0  0  0  0  0  0  0  0
    3.4757   -1.1798    1.3332 C   0  0  0  0  0  0  0  0  0  0  0  0
    4.4602   -0.7182    0.4541 C   0  0  0  0  0  0  0  0  0  0  0  0
    6.1200   -0.5608    0.9985 Cl  0  0  0  0  0  0  0  0  0  0  0  0
    4.1206   -0.3899   -0.8620 C   0  0  0  0  0  0  0  0  0  0  0  0
    2.7967   -0.5113   -1.2945 C   0  0  0  0  0  0  0  0  0  0  0  0
   -1.7697   -1.4332   -0.6700 O   0  0  0  0  0  0  0  0  0  0  0  0
   -2.9643   -1.1954    0.0590 C   0  0  2  0  0  0  0  0  0  0  0  0
   -4.0402   -2.1674   -0.4478 C   0  0  0  0  0  0  0  0  0  0  0  0
   -3.5943   -3.4924   -0.3384 O   0  0  0  0  0  0  0  0  0  0  0  0
   -3.4163    0.2754   -0.1226 C   0  0  1  0  0  0  0  0  0  0  0  0
   -4.5928    0.5259    0.6062 O   0  0  0  0  0  0  0  0  0  0  0  0
   -2.3044    1.2247    0.3613 C   0  0  1  0  0  0  0  0  0  0  0  0
   -2.2025    1.1657    1.7614 O   0  0  0  0  0  0  0  0  0  0  0  0
    2.8419    2.0961    1.1526 H   0  0  0  0  0  0  0  0  0  0  0  0
    2.1973    2.5443    2.7818 H   0  0  0  0  0  0  0  0  0  0  0  0
    1.7720    3.5444    1.3400 H   0  0  0  0  0  0  0  0  0  0  0  0
    0.5633    2.3138   -0.5741 H   0  0  0  0  0  0  0  0  0  0  0  0
   -1.0988    1.0004   -1.3945 H   0  0  0  0  0  0  0  0  0  0  0  0
   -0.5548   -0.9565    0.9311 H   0  0  0  0  0  0  0  0  0  0  0  0
    1.4162   -1.6889    1.5931 H   0  0  0  0  0  0  0  0  0  0  0  0
    3.7363   -1.4493    2.3488 H   0  0  0  0  0  0  0  0  0  0  0  0
    4.8799   -0.0391   -1.5492 H   0  0  0  0  0  0  0  0  0  0  0  0
    2.5405   -0.2485   -2.3130 H   0  0  0  0  0  0  0  0  0  0  0  0
   -2.8113   -1.4091    1.1433 H   0  0  0  0  0  0  0  0  0  0  0  0
   -4.9862   -2.0401    0.1258 H   0  0  0  0  0  0  0  0  0  0  0  0
   -4.2587   -1.9575   -1.5168 H   0  0  0  0  0  0  0  0  0  0  0  0
   -3.6463   -3.7314    0.6239 H   0  0  0  0  0  0  0  0  0  0  0  0
   -3.5840    0.4718   -1.2099 H   0  0  0  0  0  0  0  0  0  0  0  0
   -5.3569    0.3906   -0.0130 H   0  0  0  0  0  0  0  0  0  0  0  0
   -2.5516    2.2652    0.0413 H   0  0  0  0  0  0  0  0  0  0  0  0
   -2.8655    1.8060    2.1301 H   0  0  0  0  0  0  0  0  0  0  0  0
  1  2  1  0  0  0  0
  1 23  1  0  0  0  0
  1 24  1  0  0  0  0
  1 25  1  0  0  0  0
  2  3  2  0  0  0  0
  2  4  1  0  0  0  0
  4  5  1  0  0  0  0
  4 26  1  0  0  0  0
  5  6  1  0  0  0  0
  5 27  1  6  0  0  0
  6  7  1  0  0  0  0
  6 15  1  0  0  0  0
  6 28  1  1  0  0  0
  7  8  1  0  0  0  0
  8  9  2  0  0  0  0
  9 10  1  0  0  0  0
  9 29  1  0  0  0  0
 10 11  2  0  0  0  0
 10 30  1  0  0  0  0
 11 12  1  0  0  0  0
 11 13  1  0  0  0  0
 13 14  2  0  0  0  0
 13 31  1  0  0  0  0
 14  8  1  0  0  0  0
 14 32  1  0  0  0  0
 15 16  1  0  0  0  0
 16 17  1  0  0  0  0
 16 19  1  0  0  0  0
 16 33  1  1  0  0  0
 17 18  1  0  0  0  0
 17 34  1  0  0  0  0
 17 35  1  0  0  0  0
 18 36  1  0  0  0  0
 19 20  1  0  0  0  0
 19 21  1  0  0  0  0
 19 37  1  6  0  0  0
 20 38  1  0  0  0  0
 21 22  1  0  0  0  0
 21  5  1  0  0  0  0
 21 39  1  6  0  0  0
 22 40  1  0  0  0  0
M  END
>  <UniqueID>
260

>  <SMILES>
CC(=O)N[C@H]1[C@H](Oc2ccc(Cl)cc2)O[C@H](CO)[C@@H](O)[C@H]1O

>  <Energy>
42.18589618353214

>  <Genealogy>
CC(=O)N[C@H]1[C@H](Oc2ccc(Cl)cc2)O[C@H](CO)[C@@H](O)[C@H]1O (3D coordinates assigned)
CC(=O)N[C@H]1[C@H](Oc2ccc(Cl)cc2)O[C@H](CO)[C@@H](O)[C@H]1O (nonaromatic ring conformer: 42.18589618353214 kcal/mol)

$$$$
ZINC000105341667
 OpenBabel03032110343D

 29 29  0  0  0  0  0  0  0  0999 V2000
    2.2230    0.8814    2.4210 C   0  0  0  0  0  0  0  0  0  0  0  0
    1.4891    0.7347    1.2258 O   0  0  0  0  0  0  0  0  0  0  0  0
    0.1838    1.2831    1.3594 C   0  0  2  0  0  0  0  0  0  0  0  0
   -0.8608    0.1643    1.2062 C   0  0  2  0  0  0  0  0  0  0  0  0
   -0.5541   -0.8755    2.1021 O   0  0  0  0  0  0  0  0  0  0  0  0
   -0.8698   -0.3599   -0.2516 C   0  0  1  0  0  0  0  0  0  0  0  0
   -1.9367   -1.4501   -0.4332 C   0  0  0  0  0  0  0  0  0  0  0  0
   -1.9171   -1.9385   -1.7480 O   0  0  0  0  0  0  0  0  0  0  0  0
   -1.1506    0.6953   -1.1604 O   0  0  0  0  0  0  0  0  0  0  0  0
   -0.1457    1.6981   -1.1307 C   0  0  2  0  0  0  0  0  0  0  0  0
    1.0967    1.1842   -1.5426 O   0  0  0  0  0  0  0  0  0  0  0  0
   -0.0520    2.3499    0.2688 C   0  0  2  0  0  0  0  0  0  0  0  0
    0.9791    3.3957    0.3065 N   0  3  0  0  0  0  0  0  0  0  0  0
    1.7250    0.3514    3.2629 H   0  0  0  0  0  0  0  0  0  0  0  0
    3.2252    0.4278    2.2799 H   0  0  0  0  0  0  0  0  0  0  0  0
    2.3680    1.9563    2.6681 H   0  0  0  0  0  0  0  0  0  0  0  0
    0.0032    1.7739    2.3488 H   0  0  0  0  0  0  0  0  0  0  0  0
   -1.8644    0.5973    1.4405 H   0  0  0  0  0  0  0  0  0  0  0  0
   -1.4146   -1.2352    2.4423 H   0  0  0  0  0  0  0  0  0  0  0  0
    0.1140   -0.8284   -0.4860 H   0  0  0  0  0  0  0  0  0  0  0  0
   -1.7258   -2.3004    0.2490 H   0  0  0  0  0  0  0  0  0  0  0  0
   -2.9466   -1.0525   -0.1788 H   0  0  0  0  0  0  0  0  0  0  0  0
   -2.4530   -1.3082   -2.2967 H   0  0  0  0  0  0  0  0  0  0  0  0
   -0.4492    2.4961   -1.8456 H   0  0  0  0  0  0  0  0  0  0  0  0
    0.9783    0.8859   -2.4819 H   0  0  0  0  0  0  0  0  0  0  0  0
   -1.0367    2.8304    0.4751 H   0  0  0  0  0  0  0  0  0  0  0  0
    0.9961    3.8398    1.2533 H   0  0  0  0  0  0  0  0  0  0  0  0
    1.9247    3.0020    0.0967 H   0  0  0  0  0  0  0  0  0  0  0  0
    0.7555    4.1359   -0.3978 H   0  0  0  0  0  0  0  0  0  0  0  0
  1  2  1  0  0  0  0
  1 14  1  0  0  0  0
  1 15  1  0  0  0  0
  1 16  1  0  0  0  0
  2  3  1  0  0  0  0
  3  4  1  0  0  0  0
  3 17  1  1  0  0  0
  4  5  1  0  0  0  0
  4  6  1  0  0  0  0
  4 18  1  1  0  0  0
  5 19  1  0  0  0  0
  6  7  1  0  0  0  0
  6  9  1  0  0  0  0
  6 20  1  6  0  0  0
  7  8  1  0  0  0  0
  7 21  1  0  0  0  0
  7 22  1  0  0  0  0
  8 23  1  0  0  0  0
  9 10  1  0  0  0  0
 10 11  1  0  0  0  0
 10 12  1  0  0  0  0
 10 24  1  6  0  0  0
 11 25  1  0  0  0  0
 12 13  1  0  0  0  0
 12  3  1  0  0  0  0
 12 26  1  1  0  0  0
 13 27  1  0  0  0  0
 13 28  1  0  0  0  0
 13 29  1  0  0  0  0
M  CHG  1  13   1
M  END
>  <UniqueID>
261

>  <SMILES>
CO[C@@H]1[C@H](O)[C@@H](CO)O[C@H](O)[C@@H]1[NH3+]

>  <Energy>
30.312762406282356

>  <Genealogy>
CO[C@@H]1[C@H](O)[C@@H](CO)O[C@H](O)[C@@H]1[NH3+] (protonated)
CO[C@@H]1[C@H](O)[C@@H](CO)O[C@H](O)[C@@H]1[NH3+] (3D coordinates assigned)
CO[C@@H]1[C@H](O)[C@@H](CO)O[C@H](O)[C@@H]1[NH3+] (nonaromatic ring conformer: 30.312762406282356 kcal/mol)

$$$$
ZINC000105341667
 OpenBabel03032110343D

 28 28  0  0  0  0  0  0  0  0999 V2000
   -1.4641    2.6400   -0.1885 C   0  0  0  0  0  0  0  0  0  0  0  0
   -0.6648    1.5337    0.1672 O   0  0  0  0  0  0  0  0  0  0  0  0
   -0.1209    0.9033   -0.9853 C   0  0  2  0  0  0  0  0  0  0  0  0
   -0.6710   -0.5291   -1.1006 C   0  0  2  0  0  0  0  0  0  0  0  0
   -2.0736   -0.5098   -1.0164 O   0  0  0  0  0  0  0  0  0  0  0  0
   -0.0846   -1.4170    0.0193 C   0  0  1  0  0  0  0  0  0  0  0  0
   -0.6311   -2.8495   -0.0852 C   0  0  0  0  0  0  0  0  0  0  0  0
   -0.1359   -3.6390    0.9632 O   0  0  0  0  0  0  0  0  0  0  0  0
    1.3287   -1.4740   -0.0816 O   0  0  0  0  0  0  0  0  0  0  0  0
    1.9360   -0.2056    0.1062 C   0  0  2  0  0  0  0  0  0  0  0  0
    1.8892    0.1933    1.4569 O   0  0  0  0  0  0  0  0  0  0  0  0
    1.4204    0.8662   -0.8958 C   0  0  2  0  0  0  0  0  0  0  0  0
    1.9505    2.1884   -0.5550 N   0  0  0  0  0  0  0  0  0  0  0  0
   -1.8796    3.0893    0.7365 H   0  0  0  0  0  0  0  0  0  0  0  0
   -0.8581    3.4186   -0.7022 H   0  0  0  0  0  0  0  0  0  0  0  0
   -2.3187    2.3264   -0.8278 H   0  0  0  0  0  0  0  0  0  0  0  0
   -0.3771    1.4301   -1.9392 H   0  0  0  0  0  0  0  0  0  0  0  0
   -0.3606   -0.9568   -2.0841 H   0  0  0  0  0  0  0  0  0  0  0  0
   -2.4077   -0.1713   -1.8879 H   0  0  0  0  0  0  0  0  0  0  0  0
   -0.3964   -1.0273    1.0142 H   0  0  0  0  0  0  0  0  0  0  0  0
   -1.7390   -2.8374   -0.0096 H   0  0  0  0  0  0  0  0  0  0  0  0
   -0.3640   -3.2970   -1.0707 H   0  0  0  0  0  0  0  0  0  0  0  0
    0.7679   -3.9457    0.6898 H   0  0  0  0  0  0  0  0  0  0  0  0
    3.0129   -0.3448   -0.1292 H   0  0  0  0  0  0  0  0  0  0  0  0
    1.0119    0.6098    1.6393 H   0  0  0  0  0  0  0  0  0  0  0  0
    1.8027    0.5809   -1.9042 H   0  0  0  0  0  0  0  0  0  0  0  0
    1.6697    2.8586   -1.3075 H   0  0  0  0  0  0  0  0  0  0  0  0
    2.9951    2.1423   -0.5860 H   0  0  0  0  0  0  0  0  0  0  0  0
  1  2  1  0  0  0  0
  1 14  1  0  0  0  0
  1 15  1  0  0  0  0
  1 16  1  0  0  0  0
  2  3  1  0  0  0  0
  3  4  1  0  0  0  0
  3 17  1  6  0  0  0
  4  5  1  0  0  0  0
  4  6  1  0  0  0  0
  4 18  1  6  0  0  0
  5 19  1  0  0  0  0
  6  7  1  0  0  0  0
  6  9  1  0  0  0  0
  6 20  1  1  0  0  0
  7  8  1  0  0  0  0
  7 21  1  0  0  0  0
  7 22  1  0  0  0  0
  8 23  1  0  0  0  0
  9 10  1  0  0  0  0
 10 11  1  0  0  0  0
 10 12  1  0  0  0  0
 10 24  1  6  0  0  0
 11 25  1  0  0  0  0
 12 13  1  0  0  0  0
 12  3  1  0  0  0  0
 12 26  1  6  0  0  0
 13 27  1  0  0  0  0
 13 28  1  0  0  0  0
M  END
>  <UniqueID>
262

>  <SMILES>
CO[C@@H]1[C@H](O)[C@@H](CO)O[C@H](O)[C@@H]1N

>  <Energy>
32.17047900534827

>  <Genealogy>
CO[C@@H]1[C@H](O)[C@@H](CO)O[C@H](O)[C@@H]1N (3D coordinates assigned)
CO[C@@H]1[C@H](O)[C@@H](CO)O[C@H](O)[C@@H]1N (nonaromatic ring conformer: 32.17047900534827 kcal/mol)

$$$$
ZINC000106381125
 OpenBabel03032110343D

 45 45  0  0  0  0  0  0  0  0999 V2000
   -2.9259    1.6259    1.1660 C   0  0  0  0  0  0  0  0  0  0  0  0
   -1.6529    1.0924    0.4989 C   0  0  0  0  0  0  0  0  0  0  0  0
   -0.9510   -0.0856    1.2481 C   0  0  0  0  0  0  0  0  0  0  0  0
   -0.6333    0.3366    2.6960 C   0  0  0  0  0  0  0  0  0  0  0  0
   -1.8498   -1.3506    1.3129 C   0  0  0  0  0  0  0  0  0  0  0  0
    0.3188   -0.3501    0.6493 O   0  0  0  0  0  0  0  0  0  0  0  0
    0.2757   -1.0340   -0.5943 C   0  0  2  0  0  0  0  0  0  0  0  0
    0.4771   -2.4159   -0.3494 O   0  0  0  0  0  0  0  0  0  0  0  0
    0.3720   -3.1655   -1.5491 C   0  0  2  0  0  0  0  0  0  0  0  0
    0.4268   -4.6580   -1.1915 C   0  0  0  0  0  0  0  0  0  0  0  0
   -0.5719   -4.9752   -0.2595 O   0  0  0  0  0  0  0  0  0  0  0  0
    1.5183   -2.7832   -2.5182 C   0  0  1  0  0  0  0  0  0  0  0  0
    1.4018   -3.4923   -3.7269 O   0  0  0  0  0  0  0  0  0  0  0  0
    1.4739   -1.2707   -2.8071 C   0  0  1  0  0  0  0  0  0  0  0  0
    0.3505   -0.9611   -3.5968 O   0  0  0  0  0  0  0  0  0  0  0  0
    1.4160   -0.4926   -1.4778 C   0  0  1  0  0  0  0  0  0  0  0  0
    1.2292    0.9421   -1.7255 N   0  0  0  0  0  0  0  0  0  0  0  0
    1.9212    1.9553   -0.9816 C   0  0  0  0  0  0  0  0  0  0  0  0
    1.6072    3.3966   -1.2179 C   0  0  0  0  0  0  0  0  0  0  0  0
    2.7690    1.6406   -0.1031 O   0  0  0  0  0  0  0  0  0  0  0  0
   -2.6964    2.1032    2.1407 H   0  0  0  0  0  0  0  0  0  0  0  0
   -3.3811    2.4006    0.5135 H   0  0  0  0  0  0  0  0  0  0  0  0
   -3.6719    0.8177    1.3075 H   0  0  0  0  0  0  0  0  0  0  0  0
   -0.9351    1.9353    0.4001 H   0  0  0  0  0  0  0  0  0  0  0  0
   -1.9322    0.7899   -0.5305 H   0  0  0  0  0  0  0  0  0  0  0  0
   -0.0103   -0.4400    3.1903 H   0  0  0  0  0  0  0  0  0  0  0  0
   -0.0624    1.2902    2.7059 H   0  0  0  0  0  0  0  0  0  0  0  0
   -1.5539    0.4639    3.3039 H   0  0  0  0  0  0  0  0  0  0  0  0
   -1.2663   -2.2155    1.6943 H   0  0  0  0  0  0  0  0  0  0  0  0
   -2.7100   -1.1984    1.9982 H   0  0  0  0  0  0  0  0  0  0  0  0
   -2.2645   -1.6117    0.3172 H   0  0  0  0  0  0  0  0  0  0  0  0
   -0.6821   -0.8704   -1.1362 H   0  0  0  0  0  0  0  0  0  0  0  0
   -0.6122   -2.9811   -2.0411 H   0  0  0  0  0  0  0  0  0  0  0  0
    0.3035   -5.2847   -2.1037 H   0  0  0  0  0  0  0  0  0  0  0  0
    1.4146   -4.8981   -0.7431 H   0  0  0  0  0  0  0  0  0  0  0  0
   -1.4319   -4.9827   -0.7556 H   0  0  0  0  0  0  0  0  0  0  0  0
    2.4978   -3.0074   -2.0291 H   0  0  0  0  0  0  0  0  0  0  0  0
    1.9582   -4.3101   -3.6425 H   0  0  0  0  0  0  0  0  0  0  0  0
    2.4079   -0.9750   -3.3416 H   0  0  0  0  0  0  0  0  0  0  0  0
    0.6081   -1.1166   -4.5428 H   0  0  0  0  0  0  0  0  0  0  0  0
    2.3808   -0.6629   -0.9485 H   0  0  0  0  0  0  0  0  0  0  0  0
    0.4530    1.2467   -2.3560 H   0  0  0  0  0  0  0  0  0  0  0  0
    0.6183    3.6373   -0.7759 H   0  0  0  0  0  0  0  0  0  0  0  0
    2.3802    4.0450   -0.7534 H   0  0  0  0  0  0  0  0  0  0  0  0
    1.5791    3.6005   -2.3087 H   0  0  0  0  0  0  0  0  0  0  0  0
  1  2  1  0  0  0  0
  1 21  1  0  0  0  0
  1 22  1  0  0  0  0
  1 23  1  0  0  0  0
  2  3  1  0  0  0  0
  2 24  1  0  0  0  0
  2 25  1  0  0  0  0
  3  4  1  0  0  0  0
  3  5  1  0  0  0  0
  3  6  1  0  0  0  0
  4 26  1  0  0  0  0
  4 27  1  0  0  0  0
  4 28  1  0  0  0  0
  5 29  1  0  0  0  0
  5 30  1  0  0  0  0
  5 31  1  0  0  0  0
  6  7  1  0  0  0  0
  7  8  1  0  0  0  0
  7 32  1  6  0  0  0
  8  9  1  0  0  0  0
  9 10  1  0  0  0  0
  9 12  1  0  0  0  0
  9 33  1  6  0  0  0
 10 11  1  0  0  0  0
 10 34  1  0  0  0  0
 10 35  1  0  0  0  0
 11 36  1  0  0  0  0
 12 13  1  0  0  0  0
 12 14  1  0  0  0  0
 12 37  1  1  0  0  0
 13 38  1  0  0  0  0
 14 15  1  0  0  0  0
 14 16  1  0  0  0  0
 14 39  1  6  0  0  0
 15 40  1  0  0  0  0
 16 17  1  0  0  0  0
 16  7  1  0  0  0  0
 16 41  1  1  0  0  0
 17 18  1  0  0  0  0
 17 42  1  0  0  0  0
 18 19  1  0  0  0  0
 18 20  2  0  0  0  0
 19 43  1  0  0  0  0
 19 44  1  0  0  0  0
 19 45  1  0  0  0  0
M  END
>  <UniqueID>
263

>  <SMILES>
CCC(C)(C)O[C@@H]1O[C@H](CO)[C@@H](O)[C@@H](O)[C@H]1NC(C)=O

>  <Energy>
42.48120540896817

>  <Genealogy>
CCC(C)(C)O[C@@H]1O[C@H](CO)[C@@H](O)[C@@H](O)[C@H]1NC(C)=O (3D coordinates assigned)
CCC(C)(C)O[C@@H]1O[C@H](CO)[C@@H](O)[C@@H](O)[C@H]1NC(C)=O (nonaromatic ring conformer: 42.48120540896817 kcal/mol)

$$$$
ZINC000106381125
 OpenBabel03032110343D

 45 45  0  0  0  0  0  0  0  0999 V2000
   -3.3100   -0.4632    2.0065 C   0  0  0  0  0  0  0  0  0  0  0  0
   -1.9915   -0.8622    1.3340 C   0  0  0  0  0  0  0  0  0  0  0  0
   -0.8956    0.2559    1.3000 C   0  0  0  0  0  0  0  0  0  0  0  0
   -1.3417    1.4703    0.4475 C   0  0  0  0  0  0  0  0  0  0  0  0
   -0.6250    0.7593    2.7317 C   0  0  0  0  0  0  0  0  0  0  0  0
    0.3613   -0.2437    0.8379 O   0  0  0  0  0  0  0  0  0  0  0  0
    0.3256   -0.9204   -0.4099 C   0  0  2  0  0  0  0  0  0  0  0  0
    0.1715   -2.3078   -0.1735 O   0  0  0  0  0  0  0  0  0  0  0  0
   -0.1552   -2.9912   -1.3774 C   0  0  2  0  0  0  0  0  0  0  0  0
   -0.1182   -4.4964   -1.0880 C   0  0  0  0  0  0  0  0  0  0  0  0
   -0.6319   -5.2108   -2.1786 O   0  0  0  0  0  0  0  0  0  0  0  0
    0.7968   -2.6164   -2.5609 C   0  0  1  0  0  0  0  0  0  0  0  0
    0.1036   -1.7951   -3.4678 O   0  0  0  0  0  0  0  0  0  0  0  0
    2.0497   -1.8864   -2.0284 C   0  0  1  0  0  0  0  0  0  0  0  0
    2.8857   -1.4821   -3.0837 O   0  0  0  0  0  0  0  0  0  0  0  0
    1.6687   -0.6759   -1.1360 C   0  0  1  0  0  0  0  0  0  0  0  0
    1.5876    0.5641   -1.9181 N   0  0  0  0  0  0  0  0  0  0  0  0
    1.9495    1.8419   -1.3762 C   0  0  0  0  0  0  0  0  0  0  0  0
    1.6870    3.0845   -2.1622 C   0  0  0  0  0  0  0  0  0  0  0  0
    2.4547    1.9302   -0.2244 O   0  0  0  0  0  0  0  0  0  0  0  0
   -3.1683   -0.2960    3.0939 H   0  0  0  0  0  0  0  0  0  0  0  0
   -4.0436   -1.2885    1.8878 H   0  0  0  0  0  0  0  0  0  0  0  0
   -3.7389    0.4458    1.5376 H   0  0  0  0  0  0  0  0  0  0  0  0
   -2.2432   -1.1819    0.3008 H   0  0  0  0  0  0  0  0  0  0  0  0
   -1.5875   -1.7521    1.8644 H   0  0  0  0  0  0  0  0  0  0  0  0
   -1.7679    1.1595   -0.5279 H   0  0  0  0  0  0  0  0  0  0  0  0
   -0.4780    2.1423    0.2592 H   0  0  0  0  0  0  0  0  0  0  0  0
   -2.1229    2.0633    0.9685 H   0  0  0  0  0  0  0  0  0  0  0  0
   -1.4967    1.3019    3.1547 H   0  0  0  0  0  0  0  0  0  0  0  0
    0.2375    1.4607    2.7325 H   0  0  0  0  0  0  0  0  0  0  0  0
   -0.3743   -0.0924    3.4001 H   0  0  0  0  0  0  0  0  0  0  0  0
   -0.4934   -0.5433   -1.0650 H   0  0  0  0  0  0  0  0  0  0  0  0
   -1.2081   -2.7461   -1.6505 H   0  0  0  0  0  0  0  0  0  0  0  0
    0.9290   -4.8138   -0.8813 H   0  0  0  0  0  0  0  0  0  0  0  0
   -0.7363   -4.7089   -0.1867 H   0  0  0  0  0  0  0  0  0  0  0  0
   -0.5655   -6.1704   -1.9345 H   0  0  0  0  0  0  0  0  0  0  0  0
    1.1308   -3.5395   -3.0923 H   0  0  0  0  0  0  0  0  0  0  0  0
    0.5873   -1.8420   -4.3336 H   0  0  0  0  0  0  0  0  0  0  0  0
    2.6079   -2.6103   -1.3871 H   0  0  0  0  0  0  0  0  0  0  0  0
    3.2979   -2.3053   -3.4556 H   0  0  0  0  0  0  0  0  0  0  0  0
    2.4795   -0.5786   -0.3786 H   0  0  0  0  0  0  0  0  0  0  0  0
    1.0988    0.5456   -2.8417 H   0  0  0  0  0  0  0  0  0  0  0  0
    2.2209    3.9494   -1.7142 H   0  0  0  0  0  0  0  0  0  0  0  0
    0.5971    3.2935   -2.1672 H   0  0  0  0  0  0  0  0  0  0  0  0
    2.0386    2.9495   -3.2064 H   0  0  0  0  0  0  0  0  0  0  0  0
  1  2  1  0  0  0  0
  1 21  1  0  0  0  0
  1 22  1  0  0  0  0
  1 23  1  0  0  0  0
  2  3  1  0  0  0  0
  2 24  1  0  0  0  0
  2 25  1  0  0  0  0
  3  4  1  0  0  0  0
  3  5  1  0  0  0  0
  3  6  1  0  0  0  0
  4 26  1  0  0  0  0
  4 27  1  0  0  0  0
  4 28  1  0  0  0  0
  5 29  1  0  0  0  0
  5 30  1  0  0  0  0
  5 31  1  0  0  0  0
  6  7  1  0  0  0  0
  7  8  1  0  0  0  0
  7 32  1  6  0  0  0
  8  9  1  0  0  0  0
  9 10  1  0  0  0  0
  9 12  1  0  0  0  0
  9 33  1  6  0  0  0
 10 11  1  0  0  0  0
 10 34  1  0  0  0  0
 10 35  1  0  0  0  0
 11 36  1  0  0  0  0
 12 13  1  0  0  0  0
 12 14  1  0  0  0  0
 12 37  1  6  0  0  0
 13 38  1  0  0  0  0
 14 15  1  0  0  0  0
 14 16  1  0  0  0  0
 14 39  1  1  0  0  0
 15 40  1  0  0  0  0
 16 17  1  0  0  0  0
 16  7  1  0  0  0  0
 16 41  1  1  0  0  0
 17 18  1  0  0  0  0
 17 42  1  0  0  0  0
 18 19  1  0  0  0  0
 18 20  2  0  0  0  0
 19 43  1  0  0  0  0
 19 44  1  0  0  0  0
 19 45  1  0  0  0  0
M  END
>  <UniqueID>
264

>  <SMILES>
CCC(C)(C)O[C@@H]1O[C@H](CO)[C@@H](O)[C@@H](O)[C@H]1NC(C)=O

>  <Energy>
50.47937579834037

>  <Genealogy>
CCC(C)(C)O[C@@H]1O[C@H](CO)[C@@H](O)[C@@H](O)[C@H]1NC(C)=O (3D coordinates assigned)
CCC(C)(C)O[C@@H]1O[C@H](CO)[C@@H](O)[C@@H](O)[C@H]1NC(C)=O (nonaromatic ring conformer: 50.47937579834037 kcal/mol)

$$$$
ZINC000106382931
 OpenBabel03032110343D

 40 41  0  0  0  0  0  0  0  0999 V2000
    0.2753    3.1839    4.4450 H   0  0  0  0  0  0  0  0  0  0  0  0
    0.1737    2.3265    3.9154 O   0  0  0  0  0  0  0  0  0  0  0  0
    0.3105    2.3024    2.5297 C   0  0  0  0  0  0  0  0  0  0  0  0
    0.1831    1.1605    1.9174 N   0  0  0  0  0  0  0  0  0  0  0  0
    0.2789    0.9175    0.4747 C   0  0  1  0  0  0  0  0  0  0  0  0
    1.0037    1.6245    0.0135 H   0  0  0  0  0  0  0  0  0  0  0  0
    0.8193   -0.5092    0.2104 C   0  0  2  0  0  0  0  0  0  0  0  0
    0.1824   -1.2851    0.6875 H   0  0  0  0  0  0  0  0  0  0  0  0
    2.1521   -0.6187    0.7189 O   0  0  0  0  0  0  0  0  0  0  0  0
    2.5265   -0.8816    2.0486 C   0  0  0  0  0  0  0  0  0  0  0  0
    3.8818   -0.7578    2.3822 C   0  0  0  0  0  0  0  0  0  0  0  0
    4.5989   -0.4650    1.6257 H   0  0  0  0  0  0  0  0  0  0  0  0
    4.3196   -1.0030    3.6870 C   0  0  0  0  0  0  0  0  0  0  0  0
    5.3688   -0.9001    3.9325 H   0  0  0  0  0  0  0  0  0  0  0  0
    3.4045   -1.3795    4.6727 C   0  0  0  0  0  0  0  0  0  0  0  0
    3.8293   -1.6161    5.9383 F   0  0  0  0  0  0  0  0  0  0  0  0
    2.0514   -1.5141    4.3526 C   0  0  0  0  0  0  0  0  0  0  0  0
    1.3422   -1.8082    5.1157 H   0  0  0  0  0  0  0  0  0  0  0  0
    1.6097   -1.2711    3.0480 C   0  0  0  0  0  0  0  0  0  0  0  0
    0.5571   -1.3880    2.8392 H   0  0  0  0  0  0  0  0  0  0  0  0
    0.8792   -0.7474   -1.1847 O   0  0  0  0  0  0  0  0  0  0  0  0
   -0.4208   -0.7930   -1.7483 C   0  0  2  0  0  0  0  0  0  0  0  0
   -1.0461   -1.5569   -1.2304 H   0  0  0  0  0  0  0  0  0  0  0  0
   -0.3014   -1.2330   -3.2148 C   0  0  0  0  0  0  0  0  0  0  0  0
    0.3232   -0.5101   -3.7892 H   0  0  0  0  0  0  0  0  0  0  0  0
   -1.3084   -1.2552   -3.6826 H   0  0  0  0  0  0  0  0  0  0  0  0
    0.2426   -2.5233   -3.2950 O   0  0  0  0  0  0  0  0  0  0  0  0
    1.2272   -2.4251   -3.2141 H   0  0  0  0  0  0  0  0  0  0  0  0
   -1.0864    0.6037   -1.6509 C   0  0  1  0  0  0  0  0  0  0  0  0
   -0.4680    1.3153   -2.2427 H   0  0  0  0  0  0  0  0  0  0  0  0
   -2.3821    0.6113   -2.2001 O   0  0  0  0  0  0  0  0  0  0  0  0
   -2.8980   -0.1224   -1.7750 H   0  0  0  0  0  0  0  0  0  0  0  0
   -1.1029    1.1149   -0.1928 C   0  0  1  0  0  0  0  0  0  0  0  0
   -1.3166    2.2038   -0.2303 H   0  0  0  0  0  0  0  0  0  0  0  0
   -2.1354    0.5234    0.5619 O   0  0  0  0  0  0  0  0  0  0  0  0
   -1.9674   -0.4515    0.6116 H   0  0  0  0  0  0  0  0  0  0  0  0
    0.6265    3.5774    1.7961 C   0  0  0  0  0  0  0  0  0  0  0  0
    1.6341    3.5079    1.3359 H   0  0  0  0  0  0  0  0  0  0  0  0
   -0.1315    3.7735    1.0120 H   0  0  0  0  0  0  0  0  0  0  0  0
    0.6244    4.4393    2.4951 H   0  0  0  0  0  0  0  0  0  0  0  0
  1  2  1  0  0  0  0
  2  3  1  0  0  0  0
  3  4  2  0  0  0  0
  3 37  1  0  0  0  0
  4  5  1  0  0  0  0
  5  6  1  6  0  0  0
  5  7  1  0  0  0  0
  7  8  1  1  0  0  0
  7  9  1  0  0  0  0
  7 21  1  0  0  0  0
  9 10  1  0  0  0  0
 10 11  2  0  0  0  0
 11 12  1  0  0  0  0
 11 13  1  0  0  0  0
 13 14  1  0  0  0  0
 13 15  2  0  0  0  0
 15 16  1  0  0  0  0
 15 17  1  0  0  0  0
 17 18  1  0  0  0  0
 17 19  2  0  0  0  0
 19 20  1  0  0  0  0
 19 10  1  0  0  0  0
 21 22  1  0  0  0  0
 22 23  1  1  0  0  0
 22 24  1  0  0  0  0
 22 29  1  0  0  0  0
 24 25  1  0  0  0  0
 24 26  1  0  0  0  0
 24 27  1  0  0  0  0
 27 28  1  0  0  0  0
 29 30  1  6  0  0  0
 29 31  1  0  0  0  0
 29 33  1  0  0  0  0
 31 32  1  0  0  0  0
 33 34  1  6  0  0  0
 33 35  1  0  0  0  0
 33  5  1  0  0  0  0
 35 36  1  0  0  0  0
 37 38  1  0  0  0  0
 37 39  1  0  0  0  0
 37 40  1  0  0  0  0
M  END
>  <UniqueID>
265

>  <SMILES>
C/C(O)=N\[C@H]1[C@H](Oc2ccc(F)cc2)O[C@H](CO)[C@@H](O)[C@H]1O

>  <Energy>
43.59722223459094

>  <Genealogy>
CC(O)=N[C@H]1[C@H](Oc2ccc(F)cc2)O[C@H](CO)[C@@H](O)[C@H]1O (tautomer)
C/C(O)=N\[C@H]1[C@H](Oc2ccc(F)cc2)O[C@H](CO)[C@@H](O)[C@H]1O (cis-trans isomerization)
C/C(O)=N\[C@H]1[C@H](Oc2ccc(F)cc2)O[C@H](CO)[C@@H](O)[C@H]1O (3D coordinates assigned)
C/C(O)=N\[C@H]1[C@H](Oc2ccc(F)cc2)O[C@H](CO)[C@@H](O)[C@H]1O (nonaromatic ring conformer: 43.59722223459094 kcal/mol)

$$$$
ZINC000106382931
 OpenBabel03032110343D

 40 41  0  0  0  0  0  0  0  0999 V2000
   -0.6763    4.1914    2.3385 C   0  0  0  0  0  0  0  0  0  0  0  0
   -0.4667    2.7241    2.1535 C   0  0  0  0  0  0  0  0  0  0  0  0
   -1.4482    1.9378    2.2452 O   0  0  0  0  0  0  0  0  0  0  0  0
    0.8504    2.2161    1.8986 N   0  0  0  0  0  0  0  0  0  0  0  0
    1.1113    0.7808    1.7201 C   0  0  1  0  0  0  0  0  0  0  0  0
    0.5414    0.2881    0.3532 C   0  0  2  0  0  0  0  0  0  0  0  0
   -0.3277   -0.8193    0.5908 O   0  0  0  0  0  0  0  0  0  0  0  0
   -1.1288   -1.4379   -0.3821 C   0  0  0  0  0  0  0  0  0  0  0  0
   -1.1787   -0.9956   -1.7199 C   0  0  0  0  0  0  0  0  0  0  0  0
   -1.9952   -1.6507   -2.6473 C   0  0  0  0  0  0  0  0  0  0  0  0
   -2.7669   -2.7467   -2.2521 C   0  0  0  0  0  0  0  0  0  0  0  0
   -3.5577   -3.3798   -3.1532 F   0  0  0  0  0  0  0  0  0  0  0  0
   -2.7233   -3.1892   -0.9275 C   0  0  0  0  0  0  0  0  0  0  0  0
   -1.9079   -2.5368    0.0024 C   0  0  0  0  0  0  0  0  0  0  0  0
    1.5620   -0.1202   -0.5468 O   0  0  0  0  0  0  0  0  0  0  0  0
    2.5316    0.9012   -0.6821 C   0  0  2  0  0  0  0  0  0  0  0  0
    3.3770    0.6260   -1.9290 C   0  0  0  0  0  0  0  0  0  0  0  0
    2.5609    0.6567   -3.0671 O   0  0  0  0  0  0  0  0  0  0  0  0
    3.4138    0.9596    0.5894 C   0  0  1  0  0  0  0  0  0  0  0  0
    3.8696    2.2778    0.7698 O   0  0  0  0  0  0  0  0  0  0  0  0
    2.6237    0.4675    1.8292 C   0  0  1  0  0  0  0  0  0  0  0  0
    3.1651    1.0079    3.0084 O   0  0  0  0  0  0  0  0  0  0  0  0
   -0.2138    4.5132    3.2946 H   0  0  0  0  0  0  0  0  0  0  0  0
   -0.2045    4.7446    1.4996 H   0  0  0  0  0  0  0  0  0  0  0  0
   -1.7605    4.4317    2.3608 H   0  0  0  0  0  0  0  0  0  0  0  0
    1.6419    2.8977    1.8918 H   0  0  0  0  0  0  0  0  0  0  0  0
    0.6076    0.2362    2.5509 H   0  0  0  0  0  0  0  0  0  0  0  0
   -0.0621    1.0987   -0.1168 H   0  0  0  0  0  0  0  0  0  0  0  0
   -0.5944   -0.1497   -2.0542 H   0  0  0  0  0  0  0  0  0  0  0  0
   -2.0292   -1.3070   -3.6732 H   0  0  0  0  0  0  0  0  0  0  0  0
   -3.3208   -4.0376   -0.6197 H   0  0  0  0  0  0  0  0  0  0  0  0
   -1.8802   -2.8865    1.0267 H   0  0  0  0  0  0  0  0  0  0  0  0
    2.0382    1.8916   -0.8405 H   0  0  0  0  0  0  0  0  0  0  0  0
    3.8598   -0.3738   -1.8431 H   0  0  0  0  0  0  0  0  0  0  0  0
    4.1690    1.4033   -2.0192 H   0  0  0  0  0  0  0  0  0  0  0  0
    3.1570    0.4701   -3.8383 H   0  0  0  0  0  0  0  0  0  0  0  0
    4.2891    0.2769    0.4627 H   0  0  0  0  0  0  0  0  0  0  0  0
    4.7177    2.2263    1.2836 H   0  0  0  0  0  0  0  0  0  0  0  0
    2.7294   -0.6436    1.8636 H   0  0  0  0  0  0  0  0  0  0  0  0
    2.8041    0.4722    3.7625 H   0  0  0  0  0  0  0  0  0  0  0  0
  1  2  1  0  0  0  0
  1 23  1  0  0  0  0
  1 24  1  0  0  0  0
  1 25  1  0  0  0  0
  2  3  2  0  0  0  0
  2  4  1  0  0  0  0
  4  5  1  0  0  0  0
  4 26  1  0  0  0  0
  5  6  1  0  0  0  0
  5 27  1  1  0  0  0
  6  7  1  0  0  0  0
  6 15  1  0  0  0  0
  6 28  1  6  0  0  0
  7  8  1  0  0  0  0
  8  9  2  0  0  0  0
  9 10  1  0  0  0  0
  9 29  1  0  0  0  0
 10 11  2  0  0  0  0
 10 30  1  0  0  0  0
 11 12  1  0  0  0  0
 11 13  1  0  0  0  0
 13 14  2  0  0  0  0
 13 31  1  0  0  0  0
 14  8  1  0  0  0  0
 14 32  1  0  0  0  0
 15 16  1  0  0  0  0
 16 17  1  0  0  0  0
 16 19  1  0  0  0  0
 16 33  1  6  0  0  0
 17 18  1  0  0  0  0
 17 34  1  0  0  0  0
 17 35  1  0  0  0  0
 18 36  1  0  0  0  0
 19 20  1  0  0  0  0
 19 21  1  0  0  0  0
 19 37  1  6  0  0  0
 20 38  1  0  0  0  0
 21 22  1  0  0  0  0
 21  5  1  0  0  0  0
 21 39  1  1  0  0  0
 22 40  1  0  0  0  0
M  END
>  <UniqueID>
266

>  <SMILES>
CC(=O)N[C@H]1[C@H](Oc2ccc(F)cc2)O[C@H](CO)[C@@H](O)[C@H]1O

>  <Energy>
43.93414606792534

>  <Genealogy>
CC(=O)N[C@H]1[C@H](Oc2ccc(F)cc2)O[C@H](CO)[C@@H](O)[C@H]1O (3D coordinates assigned)
CC(=O)N[C@H]1[C@H](Oc2ccc(F)cc2)O[C@H](CO)[C@@H](O)[C@H]1O (nonaromatic ring conformer: 43.93414606792534 kcal/mol)

$$$$
ZINC000106382957
 OpenBabel03032110343D

 42 43  0  0  0  0  0  0  0  0999 V2000
   -3.7540   -1.7725    1.2936 C   0  0  0  0  0  0  0  0  0  0  0  0
   -2.4249   -1.8143    0.6131 C   0  0  0  0  0  0  0  0  0  0  0  0
   -2.2926   -2.4885   -0.4439 O   0  0  0  0  0  0  0  0  0  0  0  0
   -1.3307   -1.0420    1.1303 N   0  0  0  0  0  0  0  0  0  0  0  0
   -0.0320   -0.9404    0.4544 C   0  0  1  0  0  0  0  0  0  0  0  0
    0.1800    0.4740   -0.1369 C   0  0  2  0  0  0  0  0  0  0  0  0
   -0.8364    0.7495   -1.1056 O   0  0  0  0  0  0  0  0  0  0  0  0
   -2.1551    1.1728   -0.8533 C   0  0  0  0  0  0  0  0  0  0  0  0
   -2.5258    1.7744    0.3685 C   0  0  0  0  0  0  0  0  0  0  0  0
   -3.8428    2.1799    0.5897 C   0  0  0  0  0  0  0  0  0  0  0  0
   -4.8064    2.0003   -0.3998 C   0  0  0  0  0  0  0  0  0  0  0  0
   -4.4567    1.4173   -1.6176 C   0  0  0  0  0  0  0  0  0  0  0  0
   -3.1368    1.0015   -1.8601 C   0  0  0  0  0  0  0  0  0  0  0  0
   -2.8318    0.3778   -3.1676 C   0  0  0  0  0  0  0  0  0  0  0  0
   -1.6796   -0.0450   -3.4500 O   0  0  0  0  0  0  0  0  0  0  0  0
    1.4282    0.5253   -0.8069 O   0  0  0  0  0  0  0  0  0  0  0  0
    2.5065    0.3720    0.1027 C   0  0  2  0  0  0  0  0  0  0  0  0
    3.8117    0.6009   -0.6717 C   0  0  0  0  0  0  0  0  0  0  0  0
    4.8967    0.6897    0.2102 O   0  0  0  0  0  0  0  0  0  0  0  0
    2.4654   -1.0451    0.7382 C   0  0  1  0  0  0  0  0  0  0  0  0
    3.5270   -1.2561    1.6375 O   0  0  0  0  0  0  0  0  0  0  0  0
    1.1101   -1.2824    1.4316 C   0  0  1  0  0  0  0  0  0  0  0  0
    1.0216   -0.4839    2.5878 O   0  0  0  0  0  0  0  0  0  0  0  0
   -4.3516   -2.6706    1.0297 H   0  0  0  0  0  0  0  0  0  0  0  0
   -4.3037   -0.8635    0.9729 H   0  0  0  0  0  0  0  0  0  0  0  0
   -3.6169   -1.7476    2.3948 H   0  0  0  0  0  0  0  0  0  0  0  0
   -1.5016   -0.4557    1.9784 H   0  0  0  0  0  0  0  0  0  0  0  0
    0.0174   -1.6693   -0.3852 H   0  0  0  0  0  0  0  0  0  0  0  0
    0.1627    1.2478    0.6600 H   0  0  0  0  0  0  0  0  0  0  0  0
   -1.8116    1.9424    1.1589 H   0  0  0  0  0  0  0  0  0  0  0  0
   -4.1165    2.6364    1.5323 H   0  0  0  0  0  0  0  0  0  0  0  0
   -5.8269    2.3153   -0.2239 H   0  0  0  0  0  0  0  0  0  0  0  0
   -5.2216    1.2876   -2.3738 H   0  0  0  0  0  0  0  0  0  0  0  0
   -3.6150    0.2746   -3.9080 H   0  0  0  0  0  0  0  0  0  0  0  0
    2.4508    1.1521    0.8982 H   0  0  0  0  0  0  0  0  0  0  0  0
    3.7296    1.5531   -1.2427 H   0  0  0  0  0  0  0  0  0  0  0  0
    3.9748   -0.2284   -1.3967 H   0  0  0  0  0  0  0  0  0  0  0  0
    5.7014    0.8219   -0.3554 H   0  0  0  0  0  0  0  0  0  0  0  0
    2.5641   -1.7947   -0.0785 H   0  0  0  0  0  0  0  0  0  0  0  0
    3.5148   -0.5197    2.3030 H   0  0  0  0  0  0  0  0  0  0  0  0
    1.0439   -2.3642    1.7005 H   0  0  0  0  0  0  0  0  0  0  0  0
    0.5137   -1.0026    3.2650 H   0  0  0  0  0  0  0  0  0  0  0  0
  1  2  1  0  0  0  0
  1 24  1  0  0  0  0
  1 25  1  0  0  0  0
  1 26  1  0  0  0  0
  2  3  2  0  0  0  0
  2  4  1  0  0  0  0
  4  5  1  0  0  0  0
  4 27  1  0  0  0  0
  5  6  1  0  0  0  0
  5 28  1  6  0  0  0
  6  7  1  0  0  0  0
  6 16  1  0  0  0  0
  6 29  1  1  0  0  0
  7  8  1  0  0  0  0
  8  9  2  0  0  0  0
  9 10  1  0  0  0  0
  9 30  1  0  0  0  0
 10 11  2  0  0  0  0
 10 31  1  0  0  0  0
 11 12  1  0  0  0  0
 11 32  1  0  0  0  0
 12 13  2  0  0  0  0
 12 33  1  0  0  0  0
 13 14  1  0  0  0  0
 13  8  1  0  0  0  0
 14 15  2  0  0  0  0
 14 34  1  0  0  0  0
 16 17  1  0  0  0  0
 17 18  1  0  0  0  0
 17 20  1  0  0  0  0
 17 35  1  1  0  0  0
 18 19  1  0  0  0  0
 18 36  1  0  0  0  0
 18 37  1  0  0  0  0
 19 38  1  0  0  0  0
 20 21  1  0  0  0  0
 20 22  1  0  0  0  0
 20 39  1  6  0  0  0
 21 40  1  0  0  0  0
 22 23  1  0  0  0  0
 22  5  1  0  0  0  0
 22 41  1  1  0  0  0
 23 42  1  0  0  0  0
M  END
>  <UniqueID>
267

>  <SMILES>
CC(=O)N[C@H]1[C@H](Oc2ccccc2C=O)O[C@H](CO)[C@@H](O)[C@H]1O

>  <Energy>
42.568866348113666

>  <Genealogy>
CC(=O)N[C@H]1[C@H](Oc2ccccc2C=O)O[C@H](CO)[C@@H](O)[C@H]1O (3D coordinates assigned)
CC(=O)N[C@H]1[C@H](Oc2ccccc2C=O)O[C@H](CO)[C@@H](O)[C@H]1O (nonaromatic ring conformer: 42.568866348113666 kcal/mol)

$$$$
ZINC000106382957
 OpenBabel03032110343D

 42 43  0  0  0  0  0  0  0  0999 V2000
    2.9419    2.4669    1.9015 H   0  0  0  0  0  0  0  0  0  0  0  0
    2.6004    1.5773    1.5581 O   0  0  0  0  0  0  0  0  0  0  0  0
    2.4385    0.4884    2.4108 C   0  0  0  0  0  0  0  0  0  0  0  0
    2.0123   -0.6609    1.9721 N   0  0  0  0  0  0  0  0  0  0  0  0
    1.6365   -1.0346    0.6004 C   0  0  1  0  0  0  0  0  0  0  0  0
    1.1331   -2.0244    0.6787 H   0  0  0  0  0  0  0  0  0  0  0  0
    0.6092   -0.0799   -0.0407 C   0  0  2  0  0  0  0  0  0  0  0  0
    1.0406    0.9348   -0.1789 H   0  0  0  0  0  0  0  0  0  0  0  0
   -0.5177    0.0271    0.8278 O   0  0  0  0  0  0  0  0  0  0  0  0
   -1.6113    0.8896    0.6390 C   0  0  0  0  0  0  0  0  0  0  0  0
   -1.6890    1.7481   -0.4778 C   0  0  0  0  0  0  0  0  0  0  0  0
   -0.9077    1.7706   -1.2243 H   0  0  0  0  0  0  0  0  0  0  0  0
   -2.7858    2.5946   -0.6469 C   0  0  0  0  0  0  0  0  0  0  0  0
   -2.8361    3.2486   -1.5080 H   0  0  0  0  0  0  0  0  0  0  0  0
   -3.8168    2.5997    0.2905 C   0  0  0  0  0  0  0  0  0  0  0  0
   -4.6659    3.2574    0.1562 H   0  0  0  0  0  0  0  0  0  0  0  0
   -3.7551    1.7589    1.4025 C   0  0  0  0  0  0  0  0  0  0  0  0
   -4.5666    1.7801    2.1199 H   0  0  0  0  0  0  0  0  0  0  0  0
   -2.6592    0.8998    1.5911 C   0  0  0  0  0  0  0  0  0  0  0  0
   -2.6471    0.0350    2.7926 C   0  0  0  0  0  0  0  0  0  0  0  0
   -3.4762    0.0717    3.4880 H   0  0  0  0  0  0  0  0  0  0  0  0
   -1.6926   -0.7493    3.0370 O   0  0  0  0  0  0  0  0  0  0  0  0
    0.1856   -0.6135   -1.2836 O   0  0  0  0  0  0  0  0  0  0  0  0
    1.2512   -0.6111   -2.2216 C   0  0  2  0  0  0  0  0  0  0  0  0
    1.6460    0.4237   -2.3462 H   0  0  0  0  0  0  0  0  0  0  0  0
    0.6772   -1.0403   -3.5821 C   0  0  0  0  0  0  0  0  0  0  0  0
   -0.2244   -0.4293   -3.8175 H   0  0  0  0  0  0  0  0  0  0  0  0
    0.3533   -2.1021   -3.5378 H   0  0  0  0  0  0  0  0  0  0  0  0
    1.6264   -0.8974   -4.6046 O   0  0  0  0  0  0  0  0  0  0  0  0
    1.6959    0.0745   -4.7948 H   0  0  0  0  0  0  0  0  0  0  0  0
    2.3842   -1.5754   -1.7561 C   0  0  1  0  0  0  0  0  0  0  0  0
    1.9602   -2.6041   -1.7319 H   0  0  0  0  0  0  0  0  0  0  0  0
    3.4712   -1.5905   -2.6492 O   0  0  0  0  0  0  0  0  0  0  0  0
    3.7632   -0.6525   -2.7899 H   0  0  0  0  0  0  0  0  0  0  0  0
    2.8595   -1.2451   -0.3180 C   0  0  1  0  0  0  0  0  0  0  0  0
    3.4224   -2.1255    0.0628 H   0  0  0  0  0  0  0  0  0  0  0  0
    3.7425   -0.1493   -0.2889 O   0  0  0  0  0  0  0  0  0  0  0  0
    3.3059    0.6154   -0.7428 H   0  0  0  0  0  0  0  0  0  0  0  0
    2.7789    0.6352    3.8589 C   0  0  0  0  0  0  0  0  0  0  0  0
    3.8821    0.6472    3.9784 H   0  0  0  0  0  0  0  0  0  0  0  0
    2.3596    1.5868    4.2470 H   0  0  0  0  0  0  0  0  0  0  0  0
    2.3582   -0.2055    4.4513 H   0  0  0  0  0  0  0  0  0  0  0  0
  1  2  1  0  0  0  0
  2  3  1  0  0  0  0
  3  4  2  0  0  0  0
  3 39  1  0  0  0  0
  4  5  1  0  0  0  0
  5  6  1  1  0  0  0
  5  7  1  0  0  0  0
  7  8  1  6  0  0  0
  7  9  1  0  0  0  0
  7 23  1  0  0  0  0
  9 10  1  0  0  0  0
 10 11  2  0  0  0  0
 11 12  1  0  0  0  0
 11 13  1  0  0  0  0
 13 14  1  0  0  0  0
 13 15  2  0  0  0  0
 15 16  1  0  0  0  0
 15 17  1  0  0  0  0
 17 18  1  0  0  0  0
 17 19  2  0  0  0  0
 19 20  1  0  0  0  0
 19 10  1  0  0  0  0
 20 21  1  0  0  0  0
 20 22  2  0  0  0  0
 23 24  1  0  0  0  0
 24 25  1  6  0  0  0
 24 26  1  0  0  0  0
 24 31  1  0  0  0  0
 26 27  1  0  0  0  0
 26 28  1  0  0  0  0
 26 29  1  0  0  0  0
 29 30  1  0  0  0  0
 31 32  1  1  0  0  0
 31 33  1  0  0  0  0
 31 35  1  0  0  0  0
 33 34  1  0  0  0  0
 35 36  1  1  0  0  0
 35 37  1  0  0  0  0
 35  5  1  0  0  0  0
 37 38  1  0  0  0  0
 39 40  1  0  0  0  0
 39 41  1  0  0  0  0
 39 42  1  0  0  0  0
M  END
>  <UniqueID>
268

>  <SMILES>
C/C(O)=N\[C@H]1[C@H](Oc2ccccc2C=O)O[C@H](CO)[C@@H](O)[C@H]1O

>  <Energy>
46.82777698398147

>  <Genealogy>
CC(O)=N[C@H]1[C@H](Oc2ccccc2C=O)O[C@H](CO)[C@@H](O)[C@H]1O (tautomer)
C/C(O)=N\[C@H]1[C@H](Oc2ccccc2C=O)O[C@H](CO)[C@@H](O)[C@H]1O (cis-trans isomerization)
C/C(O)=N\[C@H]1[C@H](Oc2ccccc2C=O)O[C@H](CO)[C@@H](O)[C@H]1O (3D coordinates assigned)
C/C(O)=N\[C@H]1[C@H](Oc2ccccc2C=O)O[C@H](CO)[C@@H](O)[C@H]1O (nonaromatic ring conformer: 46.82777698398147 kcal/mol)

$$$$
ZINC000106382965
 OpenBabel03032110343D

 42 43  0  0  0  0  0  0  0  0999 V2000
   -3.5199   -1.7448    0.9787 C   0  0  0  0  0  0  0  0  0  0  0  0
   -2.3188   -1.0501    1.5339 C   0  0  0  0  0  0  0  0  0  0  0  0
   -2.0088   -1.2209    2.7442 O   0  0  0  0  0  0  0  0  0  0  0  0
   -1.5485   -0.1707    0.7022 N   0  0  0  0  0  0  0  0  0  0  0  0
   -0.3976    0.5829    1.2134 C   0  0  1  0  0  0  0  0  0  0  0  0
    0.4821    1.0931    0.0538 C   0  0  2  0  0  0  0  0  0  0  0  0
    0.9490   -0.0276   -0.6964 O   0  0  0  0  0  0  0  0  0  0  0  0
    1.6907    0.0561   -1.8851 C   0  0  0  0  0  0  0  0  0  0  0  0
    2.1166   -1.1340   -2.4857 C   0  0  0  0  0  0  0  0  0  0  0  0
    2.8589   -1.1081   -3.6697 C   0  0  0  0  0  0  0  0  0  0  0  0
    3.1833    0.1174   -4.2756 C   0  0  0  0  0  0  0  0  0  0  0  0
    3.9606    0.1673   -5.5275 C   0  0  0  0  0  0  0  0  0  0  0  0
    4.3511   -0.8885   -6.0935 O   0  0  0  0  0  0  0  0  0  0  0  0
    2.7562    1.3120   -3.6770 C   0  0  0  0  0  0  0  0  0  0  0  0
    2.0158    1.2849   -2.4914 C   0  0  0  0  0  0  0  0  0  0  0  0
    1.5997    1.7987    0.5654 O   0  0  0  0  0  0  0  0  0  0  0  0
    1.1844    2.9834    1.2245 C   0  0  2  0  0  0  0  0  0  0  0  0
    2.4330    3.8050    1.5846 C   0  0  0  0  0  0  0  0  0  0  0  0
    3.2496    3.1193    2.4966 O   0  0  0  0  0  0  0  0  0  0  0  0
    0.3423    2.6350    2.4788 C   0  0  1  0  0  0  0  0  0  0  0  0
   -0.1139    3.8069    3.1080 O   0  0  0  0  0  0  0  0  0  0  0  0
   -0.8670    1.7744    2.0762 C   0  0  1  0  0  0  0  0  0  0  0  0
   -1.7907    2.5629    1.3646 O   0  0  0  0  0  0  0  0  0  0  0  0
   -4.3932   -1.0612    1.0206 H   0  0  0  0  0  0  0  0  0  0  0  0
   -3.7447   -2.6586    1.5692 H   0  0  0  0  0  0  0  0  0  0  0  0
   -3.3360   -2.0408   -0.0758 H   0  0  0  0  0  0  0  0  0  0  0  0
   -1.8136   -0.0843   -0.3060 H   0  0  0  0  0  0  0  0  0  0  0  0
    0.2278   -0.0935    1.8395 H   0  0  0  0  0  0  0  0  0  0  0  0
   -0.1273    1.7393   -0.6211 H   0  0  0  0  0  0  0  0  0  0  0  0
    1.8709   -2.0855   -2.0313 H   0  0  0  0  0  0  0  0  0  0  0  0
    3.1751   -2.0449   -4.1118 H   0  0  0  0  0  0  0  0  0  0  0  0
    4.2036    1.1228   -5.9760 H   0  0  0  0  0  0  0  0  0  0  0  0
    2.9933    2.2677   -4.1297 H   0  0  0  0  0  0  0  0  0  0  0  0
    1.7023    2.2242   -2.0576 H   0  0  0  0  0  0  0  0  0  0  0  0
    0.5778    3.6166    0.5342 H   0  0  0  0  0  0  0  0  0  0  0  0
    3.0050    4.0410    0.6579 H   0  0  0  0  0  0  0  0  0  0  0  0
    2.1306    4.7746    2.0332 H   0  0  0  0  0  0  0  0  0  0  0  0
    3.7377    2.4275    1.9790 H   0  0  0  0  0  0  0  0  0  0  0  0
    0.9649    2.0321    3.1840 H   0  0  0  0  0  0  0  0  0  0  0  0
    0.5554    4.0460    3.8012 H   0  0  0  0  0  0  0  0  0  0  0  0
   -1.3392    1.3910    3.0114 H   0  0  0  0  0  0  0  0  0  0  0  0
   -2.6798    2.1348    1.4687 H   0  0  0  0  0  0  0  0  0  0  0  0
  1  2  1  0  0  0  0
  1 24  1  0  0  0  0
  1 25  1  0  0  0  0
  1 26  1  0  0  0  0
  2  3  2  0  0  0  0
  2  4  1  0  0  0  0
  4  5  1  0  0  0  0
  4 27  1  0  0  0  0
  5  6  1  0  0  0  0
  5 28  1  1  0  0  0
  6  7  1  0  0  0  0
  6 16  1  0  0  0  0
  6 29  1  6  0  0  0
  7  8  1  0  0  0  0
  8  9  2  0  0  0  0
  9 10  1  0  0  0  0
  9 30  1  0  0  0  0
 10 11  2  0  0  0  0
 10 31  1  0  0  0  0
 11 12  1  0  0  0  0
 11 14  1  0  0  0  0
 12 13  2  0  0  0  0
 12 32  1  0  0  0  0
 14 15  2  0  0  0  0
 14 33  1  0  0  0  0
 15  8  1  0  0  0  0
 15 34  1  0  0  0  0
 16 17  1  0  0  0  0
 17 18  1  0  0  0  0
 17 20  1  0  0  0  0
 17 35  1  6  0  0  0
 18 19  1  0  0  0  0
 18 36  1  0  0  0  0
 18 37  1  0  0  0  0
 19 38  1  0  0  0  0
 20 21  1  0  0  0  0
 20 22  1  0  0  0  0
 20 39  1  1  0  0  0
 21 40  1  0  0  0  0
 22 23  1  0  0  0  0
 22  5  1  0  0  0  0
 22 41  1  1  0  0  0
 23 42  1  0  0  0  0
M  END
>  <UniqueID>
269

>  <SMILES>
CC(=O)N[C@H]1[C@H](Oc2ccc(C=O)cc2)O[C@H](CO)[C@@H](O)[C@H]1O

>  <Energy>
37.90711196494932

>  <Genealogy>
CC(=O)N[C@H]1[C@H](Oc2ccc(C=O)cc2)O[C@H](CO)[C@@H](O)[C@H]1O (3D coordinates assigned)
CC(=O)N[C@H]1[C@H](Oc2ccc(C=O)cc2)O[C@H](CO)[C@@H](O)[C@H]1O (nonaromatic ring conformer: 37.90711196494932 kcal/mol)

$$$$
ZINC000106382965
 OpenBabel03032110343D

 42 43  0  0  0  0  0  0  0  0999 V2000
    5.6670   -1.0623    0.6864 H   0  0  0  0  0  0  0  0  0  0  0  0
    4.8357   -0.5749    0.3741 O   0  0  0  0  0  0  0  0  0  0  0  0
    3.6137   -1.2281    0.2349 C   0  0  0  0  0  0  0  0  0  0  0  0
    2.5847   -0.5343   -0.1598 N   0  0  0  0  0  0  0  0  0  0  0  0
    1.2235   -1.0325   -0.3858 C   0  0  1  0  0  0  0  0  0  0  0  0
    0.9783   -1.8322    0.3482 H   0  0  0  0  0  0  0  0  0  0  0  0
    0.2193    0.1137   -0.1721 C   0  0  2  0  0  0  0  0  0  0  0  0
    0.4623    0.9567   -0.8616 H   0  0  0  0  0  0  0  0  0  0  0  0
    0.3379    0.5841    1.1701 O   0  0  0  0  0  0  0  0  0  0  0  0
   -0.3488    1.6895    1.6960 C   0  0  0  0  0  0  0  0  0  0  0  0
   -0.1508    2.0127    3.0429 C   0  0  0  0  0  0  0  0  0  0  0  0
    0.5184    1.4143    3.6483 H   0  0  0  0  0  0  0  0  0  0  0  0
   -0.8106    3.1028    3.6175 C   0  0  0  0  0  0  0  0  0  0  0  0
   -0.6408    3.3318    4.6626 H   0  0  0  0  0  0  0  0  0  0  0  0
   -1.6816    3.8895    2.8496 C   0  0  0  0  0  0  0  0  0  0  0  0
   -2.3694    5.0353    3.4724 C   0  0  0  0  0  0  0  0  0  0  0  0
   -2.2009    5.2652    4.5168 H   0  0  0  0  0  0  0  0  0  0  0  0
   -3.1574    5.7603    2.8086 O   0  0  0  0  0  0  0  0  0  0  0  0
   -1.8821    3.5694    1.4964 C   0  0  0  0  0  0  0  0  0  0  0  0
   -2.5487    4.1612    0.8815 H   0  0  0  0  0  0  0  0  0  0  0  0
   -1.2213    2.4790    0.9224 C   0  0  0  0  0  0  0  0  0  0  0  0
   -1.3966    2.2613   -0.1220 H   0  0  0  0  0  0  0  0  0  0  0  0
   -1.1023   -0.3542   -0.3788 O   0  0  0  0  0  0  0  0  0  0  0  0
   -1.2969   -0.7154   -1.7358 C   0  0  2  0  0  0  0  0  0  0  0  0
   -1.0606    0.1438   -2.4075 H   0  0  0  0  0  0  0  0  0  0  0  0
   -2.7780   -1.0537   -1.9381 C   0  0  0  0  0  0  0  0  0  0  0  0
   -3.0582   -1.9135   -1.2882 H   0  0  0  0  0  0  0  0  0  0  0  0
   -2.9606   -1.3314   -3.0003 H   0  0  0  0  0  0  0  0  0  0  0  0
   -3.5637    0.0588   -1.6102 O   0  0  0  0  0  0  0  0  0  0  0  0
   -4.5064   -0.2193   -1.7479 H   0  0  0  0  0  0  0  0  0  0  0  0
   -0.4019   -1.9236   -2.0994 C   0  0  1  0  0  0  0  0  0  0  0  0
   -0.7008   -2.7888   -1.4605 H   0  0  0  0  0  0  0  0  0  0  0  0
   -0.5702   -2.2555   -3.4543 O   0  0  0  0  0  0  0  0  0  0  0  0
   -0.1953   -3.1671   -3.5737 H   0  0  0  0  0  0  0  0  0  0  0  0
    1.0756   -1.5895   -1.8186 C   0  0  1  0  0  0  0  0  0  0  0  0
    1.6598   -2.5330   -1.9144 H   0  0  0  0  0  0  0  0  0  0  0  0
    1.5318   -0.6494   -2.7614 O   0  0  0  0  0  0  0  0  0  0  0  0
    2.5147   -0.7666   -2.8368 H   0  0  0  0  0  0  0  0  0  0  0  0
    3.5173   -2.6929    0.5659 C   0  0  0  0  0  0  0  0  0  0  0  0
    4.5143   -3.0966    0.8389 H   0  0  0  0  0  0  0  0  0  0  0  0
    3.1460   -3.2660   -0.3064 H   0  0  0  0  0  0  0  0  0  0  0  0
    2.8374   -2.8416    1.4304 H   0  0  0  0  0  0  0  0  0  0  0  0
  1  2  1  0  0  0  0
  2  3  1  0  0  0  0
  3  4  2  0  0  0  0
  3 39  1  0  0  0  0
  4  5  1  0  0  0  0
  5  6  1  1  0  0  0
  5  7  1  0  0  0  0
  7  8  1  6  0  0  0
  7  9  1  0  0  0  0
  7 23  1  0  0  0  0
  9 10  1  0  0  0  0
 10 11  2  0  0  0  0
 11 12  1  0  0  0  0
 11 13  1  0  0  0  0
 13 14  1  0  0  0  0
 13 15  2  0  0  0  0
 15 16  1  0  0  0  0
 15 19  1  0  0  0  0
 16 17  1  0  0  0  0
 16 18  2  0  0  0  0
 19 20  1  0  0  0  0
 19 21  2  0  0  0  0
 21 22  1  0  0  0  0
 21 10  1  0  0  0  0
 23 24  1  0  0  0  0
 24 25  1  6  0  0  0
 24 26  1  0  0  0  0
 24 31  1  0  0  0  0
 26 27  1  0  0  0  0
 26 28  1  0  0  0  0
 26 29  1  0  0  0  0
 29 30  1  0  0  0  0
 31 32  1  1  0  0  0
 31 33  1  0  0  0  0
 31 35  1  0  0  0  0
 33 34  1  0  0  0  0
 35 36  1  6  0  0  0
 35 37  1  0  0  0  0
 35  5  1  0  0  0  0
 37 38  1  0  0  0  0
 39 40  1  0  0  0  0
 39 41  1  0  0  0  0
 39 42  1  0  0  0  0
M  END
>  <UniqueID>
270

>  <SMILES>
C/C(O)=N\[C@H]1[C@H](Oc2ccc(C=O)cc2)O[C@H](CO)[C@@H](O)[C@H]1O

>  <Energy>
39.33811266795455

>  <Genealogy>
CC(O)=N[C@H]1[C@H](Oc2ccc(C=O)cc2)O[C@H](CO)[C@@H](O)[C@H]1O (tautomer)
C/C(O)=N\[C@H]1[C@H](Oc2ccc(C=O)cc2)O[C@H](CO)[C@@H](O)[C@H]1O (cis-trans isomerization)
C/C(O)=N\[C@H]1[C@H](Oc2ccc(C=O)cc2)O[C@H](CO)[C@@H](O)[C@H]1O (3D coordinates assigned)
C/C(O)=N\[C@H]1[C@H](Oc2ccc(C=O)cc2)O[C@H](CO)[C@@H](O)[C@H]1O (nonaromatic ring conformer: 39.33811266795455 kcal/mol)

$$$$
ZINC000106384102
 OpenBabel03032110343D

 43 44  0  0  0  0  0  0  0  0999 V2000
    0.1656    3.7702    0.4298 C   0  0  0  0  0  0  0  0  0  0  0  0
   -0.1914    2.5738   -0.3906 C   0  0  0  0  0  0  0  0  0  0  0  0
    0.0862    2.5615   -1.6202 O   0  0  0  0  0  0  0  0  0  0  0  0
   -0.8755    1.4672    0.2164 N   0  0  0  0  0  0  0  0  0  0  0  0
   -1.1694    0.2186   -0.4966 C   0  0  1  0  0  0  0  0  0  0  0  0
   -0.2808   -0.9397    0.0167 C   0  0  2  0  0  0  0  0  0  0  0  0
    1.0934   -0.6429   -0.2478 O   0  0  0  0  0  0  0  0  0  0  0  0
    1.9352    0.1948    0.5078 C   0  0  0  0  0  0  0  0  0  0  0  0
    1.6555    0.5433    1.8458 C   0  0  0  0  0  0  0  0  0  0  0  0
    2.5126    1.3927    2.5490 C   0  0  0  0  0  0  0  0  0  0  0  0
    3.6561    1.9013    1.9341 C   0  0  0  0  0  0  0  0  0  0  0  0
    3.9526    1.5556    0.6150 C   0  0  0  0  0  0  0  0  0  0  0  0
    3.1044    0.6949   -0.1012 C   0  0  0  0  0  0  0  0  0  0  0  0
    3.4171    0.3512   -1.5304 C   0  0  0  0  0  0  0  0  0  0  0  0
   -0.5992   -2.1269   -0.6868 O   0  0  0  0  0  0  0  0  0  0  0  0
   -1.9135   -2.5634   -0.3813 C   0  0  2  0  0  0  0  0  0  0  0  0
   -2.1276   -3.9438   -1.0203 C   0  0  0  0  0  0  0  0  0  0  0  0
   -1.2299   -4.8765   -0.4804 O   0  0  0  0  0  0  0  0  0  0  0  0
   -2.9513   -1.5495   -0.9181 C   0  0  1  0  0  0  0  0  0  0  0  0
   -4.2487   -1.9554   -0.5630 O   0  0  0  0  0  0  0  0  0  0  0  0
   -2.6692   -0.1329   -0.3696 C   0  0  1  0  0  0  0  0  0  0  0  0
   -3.1412    0.0137    0.9501 O   0  0  0  0  0  0  0  0  0  0  0  0
   -0.7274    4.4185    0.5453 H   0  0  0  0  0  0  0  0  0  0  0  0
    0.9763    4.3484   -0.0623 H   0  0  0  0  0  0  0  0  0  0  0  0
    0.5181    3.4513    1.4328 H   0  0  0  0  0  0  0  0  0  0  0  0
   -1.0913    1.5230    1.2376 H   0  0  0  0  0  0  0  0  0  0  0  0
   -0.9550    0.3412   -1.5819 H   0  0  0  0  0  0  0  0  0  0  0  0
   -0.4207   -1.1104    1.1047 H   0  0  0  0  0  0  0  0  0  0  0  0
    0.7835    0.1701    2.3597 H   0  0  0  0  0  0  0  0  0  0  0  0
    2.2874    1.6599    3.5735 H   0  0  0  0  0  0  0  0  0  0  0  0
    4.3146    2.5637    2.4809 H   0  0  0  0  0  0  0  0  0  0  0  0
    4.8437    1.9615    0.1526 H   0  0  0  0  0  0  0  0  0  0  0  0
    3.4037   -0.7510   -1.6656 H   0  0  0  0  0  0  0  0  0  0  0  0
    2.6558    0.8090   -2.1966 H   0  0  0  0  0  0  0  0  0  0  0  0
    4.4199    0.7232   -1.8306 H   0  0  0  0  0  0  0  0  0  0  0  0
   -2.0397   -2.6944    0.7185 H   0  0  0  0  0  0  0  0  0  0  0  0
   -3.1589   -4.2988   -0.8106 H   0  0  0  0  0  0  0  0  0  0  0  0
   -2.0086   -3.8837   -2.1270 H   0  0  0  0  0  0  0  0  0  0  0  0
   -0.3689   -4.7570   -0.9599 H   0  0  0  0  0  0  0  0  0  0  0  0
   -2.8601   -1.5187   -2.0303 H   0  0  0  0  0  0  0  0  0  0  0  0
   -4.8756   -1.4399   -1.1349 H   0  0  0  0  0  0  0  0  0  0  0  0
   -3.2360    0.5898   -0.9970 H   0  0  0  0  0  0  0  0  0  0  0  0
   -2.6423   -0.6133    1.5324 H   0  0  0  0  0  0  0  0  0  0  0  0
  1  2  1  0  0  0  0
  1 23  1  0  0  0  0
  1 24  1  0  0  0  0
  1 25  1  0  0  0  0
  2  3  2  0  0  0  0
  2  4  1  0  0  0  0
  4  5  1  0  0  0  0
  4 26  1  0  0  0  0
  5  6  1  0  0  0  0
  5 27  1  6  0  0  0
  6  7  1  0  0  0  0
  6 15  1  0  0  0  0
  6 28  1  1  0  0  0
  7  8  1  0  0  0  0
  8  9  2  0  0  0  0
  9 10  1  0  0  0  0
  9 29  1  0  0  0  0
 10 11  2  0  0  0  0
 10 30  1  0  0  0  0
 11 12  1  0  0  0  0
 11 31  1  0  0  0  0
 12 13  2  0  0  0  0
 12 32  1  0  0  0  0
 13 14  1  0  0  0  0
 13  8  1  0  0  0  0
 14 33  1  0  0  0  0
 14 34  1  0  0  0  0
 14 35  1  0  0  0  0
 15 16  1  0  0  0  0
 16 17  1  0  0  0  0
 16 19  1  0  0  0  0
 16 36  1  1  0  0  0
 17 18  1  0  0  0  0
 17 37  1  0  0  0  0
 17 38  1  0  0  0  0
 18 39  1  0  0  0  0
 19 20  1  0  0  0  0
 19 21  1  0  0  0  0
 19 40  1  6  0  0  0
 20 41  1  0  0  0  0
 21 22  1  0  0  0  0
 21  5  1  0  0  0  0
 21 42  1  6  0  0  0
 22 43  1  0  0  0  0
M  END
>  <UniqueID>
271

>  <SMILES>
CC(=O)N[C@H]1[C@H](Oc2ccccc2C)O[C@H](CO)[C@@H](O)[C@H]1O

>  <Energy>
41.80861612272658

>  <Genealogy>
CC(=O)N[C@H]1[C@H](Oc2ccccc2C)O[C@H](CO)[C@@H](O)[C@H]1O (3D coordinates assigned)
CC(=O)N[C@H]1[C@H](Oc2ccccc2C)O[C@H](CO)[C@@H](O)[C@H]1O (nonaromatic ring conformer: 41.80861612272658 kcal/mol)

$$$$
ZINC000106384102
 OpenBabel03032110343D

 43 44  0  0  0  0  0  0  0  0999 V2000
    0.9255   -3.6578   -1.8077 H   0  0  0  0  0  0  0  0  0  0  0  0
    0.6626   -2.8534   -2.3650 O   0  0  0  0  0  0  0  0  0  0  0  0
    0.8441   -1.5583   -1.8885 C   0  0  0  0  0  0  0  0  0  0  0  0
    1.3676   -1.3846   -0.7075 N   0  0  0  0  0  0  0  0  0  0  0  0
    1.6158   -0.0962   -0.0493 C   0  0  1  0  0  0  0  0  0  0  0  0
    2.0631    0.6087   -0.7857 H   0  0  0  0  0  0  0  0  0  0  0  0
    0.2888    0.4909    0.5233 C   0  0  2  0  0  0  0  0  0  0  0  0
   -0.5759   -0.1168    0.1691 H   0  0  0  0  0  0  0  0  0  0  0  0
    0.1240    1.8174    0.0236 O   0  0  0  0  0  0  0  0  0  0  0  0
   -1.0220    2.6127    0.1964 C   0  0  0  0  0  0  0  0  0  0  0  0
   -2.1526    2.1541    0.9034 C   0  0  0  0  0  0  0  0  0  0  0  0
   -2.1793    1.1657    1.3401 H   0  0  0  0  0  0  0  0  0  0  0  0
   -3.2716    2.9759    1.0555 C   0  0  0  0  0  0  0  0  0  0  0  0
   -4.1353    2.6172    1.6005 H   0  0  0  0  0  0  0  0  0  0  0  0
   -3.2791    4.2584    0.5067 C   0  0  0  0  0  0  0  0  0  0  0  0
   -4.1480    4.8925    0.6269 H   0  0  0  0  0  0  0  0  0  0  0  0
   -2.1676    4.7244   -0.1980 C   0  0  0  0  0  0  0  0  0  0  0  0
   -2.1914    5.7224   -0.6177 H   0  0  0  0  0  0  0  0  0  0  0  0
   -1.0358    3.9077   -0.3594 C   0  0  0  0  0  0  0  0  0  0  0  0
    0.1576    4.4147   -1.1195 C   0  0  0  0  0  0  0  0  0  0  0  0
    0.3713    3.7389   -1.9745 H   0  0  0  0  0  0  0  0  0  0  0  0
   -0.0139    5.4375   -1.5175 H   0  0  0  0  0  0  0  0  0  0  0  0
    1.0422    4.4432   -0.4490 H   0  0  0  0  0  0  0  0  0  0  0  0
    0.2860    0.5351    1.9433 O   0  0  0  0  0  0  0  0  0  0  0  0
    0.5665   -0.7484    2.4711 C   0  0  2  0  0  0  0  0  0  0  0  0
   -0.0749   -1.5188    1.9771 H   0  0  0  0  0  0  0  0  0  0  0  0
    0.2049   -0.7680    3.9621 C   0  0  0  0  0  0  0  0  0  0  0  0
    0.4783   -1.7545    4.3941 H   0  0  0  0  0  0  0  0  0  0  0  0
    0.7750    0.0160    4.5121 H   0  0  0  0  0  0  0  0  0  0  0  0
   -1.1744   -0.5799    4.1334 O   0  0  0  0  0  0  0  0  0  0  0  0
   -1.3440    0.3942    4.0432 H   0  0  0  0  0  0  0  0  0  0  0  0
    2.0622   -1.1005    2.2541 C   0  0  1  0  0  0  0  0  0  0  0  0
    2.6473   -0.8315    3.1669 H   0  0  0  0  0  0  0  0  0  0  0  0
    2.1755   -2.4807    2.0078 O   0  0  0  0  0  0  0  0  0  0  0  0
    3.0852   -2.7557    2.2949 H   0  0  0  0  0  0  0  0  0  0  0  0
    2.6504   -0.2846    1.0748 C   0  0  1  0  0  0  0  0  0  0  0  0
    2.9121    0.7334    1.4516 H   0  0  0  0  0  0  0  0  0  0  0  0
    3.8105   -0.8909    0.5641 O   0  0  0  0  0  0  0  0  0  0  0  0
    4.5222   -0.7624    1.2445 H   0  0  0  0  0  0  0  0  0  0  0  0
    0.4379   -0.4095   -2.7657 C   0  0  0  0  0  0  0  0  0  0  0  0
   -0.3312    0.2111   -2.2625 H   0  0  0  0  0  0  0  0  0  0  0  0
    1.3221    0.2140   -3.0126 H   0  0  0  0  0  0  0  0  0  0  0  0
    0.0069   -0.7925   -3.7144 H   0  0  0  0  0  0  0  0  0  0  0  0
  1  2  1  0  0  0  0
  2  3  1  0  0  0  0
  3  4  2  0  0  0  0
  3 40  1  0  0  0  0
  4  5  1  0  0  0  0
  5  6  1  6  0  0  0
  5  7  1  0  0  0  0
  7  8  1  6  0  0  0
  7  9  1  0  0  0  0
  7 24  1  0  0  0  0
  9 10  1  0  0  0  0
 10 11  2  0  0  0  0
 11 12  1  0  0  0  0
 11 13  1  0  0  0  0
 13 14  1  0  0  0  0
 13 15  2  0  0  0  0
 15 16  1  0  0  0  0
 15 17  1  0  0  0  0
 17 18  1  0  0  0  0
 17 19  2  0  0  0  0
 19 20  1  0  0  0  0
 19 10  1  0  0  0  0
 20 21  1  0  0  0  0
 20 22  1  0  0  0  0
 20 23  1  0  0  0  0
 24 25  1  0  0  0  0
 25 26  1  6  0  0  0
 25 27  1  0  0  0  0
 25 32  1  0  0  0  0
 27 28  1  0  0  0  0
 27 29  1  0  0  0  0
 27 30  1  0  0  0  0
 30 31  1  0  0  0  0
 32 33  1  1  0  0  0
 32 34  1  0  0  0  0
 32 36  1  0  0  0  0
 34 35  1  0  0  0  0
 36 37  1  1  0  0  0
 36 38  1  0  0  0  0
 36  5  1  0  0  0  0
 38 39  1  0  0  0  0
 40 41  1  0  0  0  0
 40 42  1  0  0  0  0
 40 43  1  0  0  0  0
M  END
>  <UniqueID>
272

>  <SMILES>
C/C(O)=N\[C@H]1[C@H](Oc2ccccc2C)O[C@H](CO)[C@@H](O)[C@H]1O

>  <Energy>
47.619388368638425

>  <Genealogy>
CC(O)=N[C@H]1[C@H](Oc2ccccc2C)O[C@H](CO)[C@@H](O)[C@H]1O (tautomer)
C/C(O)=N\[C@H]1[C@H](Oc2ccccc2C)O[C@H](CO)[C@@H](O)[C@H]1O (cis-trans isomerization)
C/C(O)=N\[C@H]1[C@H](Oc2ccccc2C)O[C@H](CO)[C@@H](O)[C@H]1O (3D coordinates assigned)
C/C(O)=N\[C@H]1[C@H](Oc2ccccc2C)O[C@H](CO)[C@@H](O)[C@H]1O (nonaromatic ring conformer: 47.619388368638425 kcal/mol)

$$$$
ZINC000164373873
 OpenBabel03032110343D

 28 28  0  0  0  0  0  0  0  0999 V2000
   -3.0293    1.4644   -0.4458 C   0  0  0  0  0  0  0  0  0  0  0  0
   -2.1327    0.6729   -1.1948 O   0  0  0  0  0  0  0  0  0  0  0  0
   -1.1437    0.1210   -0.3458 C   0  0  2  0  0  0  0  0  0  0  0  0
   -0.2038    1.1340   -0.0202 O   0  0  0  0  0  0  0  0  0  0  0  0
    0.7563    0.6549    0.9062 C   0  0  2  0  0  0  0  0  0  0  0  0
    1.6221    1.8358    1.3648 C   0  0  0  0  0  0  0  0  0  0  0  0
    2.2602    2.4308    0.2678 O   0  0  0  0  0  0  0  0  0  0  0  0
    1.6140   -0.4600    0.2624 C   0  0  1  0  0  0  0  0  0  0  0  0
    2.5423   -0.9513    1.1957 O   0  0  0  0  0  0  0  0  0  0  0  0
    0.7050   -1.6014   -0.2275 C   0  0  1  0  0  0  0  0  0  0  0  0
    0.1801   -2.2928    0.8804 O   0  0  0  0  0  0  0  0  0  0  0  0
   -0.4357   -1.0289   -1.0975 C   0  0  1  0  0  0  0  0  0  0  0  0
   -1.3920   -2.0843   -1.4434 N   0  0  0  0  0  0  0  0  0  0  0  0
   -3.6162    0.8387    0.2622 H   0  0  0  0  0  0  0  0  0  0  0  0
   -3.7467    1.9419   -1.1441 H   0  0  0  0  0  0  0  0  0  0  0  0
   -2.5010    2.2773    0.1003 H   0  0  0  0  0  0  0  0  0  0  0  0
   -1.6137   -0.3026    0.5778 H   0  0  0  0  0  0  0  0  0  0  0  0
    0.2510    0.2570    1.8178 H   0  0  0  0  0  0  0  0  0  0  0  0
    0.9699    2.5859    1.8659 H   0  0  0  0  0  0  0  0  0  0  0  0
    2.3795    1.4893    2.1031 H   0  0  0  0  0  0  0  0  0  0  0  0
    2.7989    3.1788    0.6354 H   0  0  0  0  0  0  0  0  0  0  0  0
    2.1538   -0.0335   -0.6162 H   0  0  0  0  0  0  0  0  0  0  0  0
    3.2223   -1.4604    0.6815 H   0  0  0  0  0  0  0  0  0  0  0  0
    1.3244   -2.2918   -0.8485 H   0  0  0  0  0  0  0  0  0  0  0  0
   -0.0141   -3.2191    0.5808 H   0  0  0  0  0  0  0  0  0  0  0  0
    0.0079   -0.6193   -2.0349 H   0  0  0  0  0  0  0  0  0  0  0  0
   -2.0810   -1.6989   -2.1292 H   0  0  0  0  0  0  0  0  0  0  0  0
   -0.8777   -2.8386   -1.9544 H   0  0  0  0  0  0  0  0  0  0  0  0
  1  2  1  0  0  0  0
  1 14  1  0  0  0  0
  1 15  1  0  0  0  0
  1 16  1  0  0  0  0
  2  3  1  0  0  0  0
  3  4  1  0  0  0  0
  3 17  1  1  0  0  0
  4  5  1  0  0  0  0
  5  6  1  0  0  0  0
  5  8  1  0  0  0  0
  5 18  1  1  0  0  0
  6  7  1  0  0  0  0
  6 19  1  0  0  0  0
  6 20  1  0  0  0  0
  7 21  1  0  0  0  0
  8  9  1  0  0  0  0
  8 10  1  0  0  0  0
  8 22  1  6  0  0  0
  9 23  1  0  0  0  0
 10 11  1  0  0  0  0
 10 12  1  0  0  0  0
 10 24  1  6  0  0  0
 11 25  1  0  0  0  0
 12 13  1  0  0  0  0
 12  3  1  0  0  0  0
 12 26  1  6  0  0  0
 13 27  1  0  0  0  0
 13 28  1  0  0  0  0
M  END
>  <UniqueID>
273

>  <SMILES>
CO[C@@H]1O[C@H](CO)[C@@H](O)[C@@H](O)[C@H]1N

>  <Energy>
25.91754151654896

>  <Genealogy>
CO[C@@H]1O[C@H](CO)[C@@H](O)[C@@H](O)[C@H]1N (3D coordinates assigned)
CO[C@@H]1O[C@H](CO)[C@@H](O)[C@@H](O)[C@H]1N (nonaromatic ring conformer: 25.91754151654896 kcal/mol)

$$$$
ZINC000164373873
 OpenBabel03032110343D

 28 28  0  0  0  0  0  0  0  0999 V2000
   -2.3272    2.0148   -0.9613 C   0  0  0  0  0  0  0  0  0  0  0  0
   -1.3481    1.0231   -1.1847 O   0  0  0  0  0  0  0  0  0  0  0  0
   -1.3706    0.0655   -0.1397 C   0  0  2  0  0  0  0  0  0  0  0  0
   -0.7539    0.5666    1.0434 O   0  0  0  0  0  0  0  0  0  0  0  0
    0.6538    0.7658    0.9391 C   0  0  2  0  0  0  0  0  0  0  0  0
    1.0162    2.0287    0.1266 C   0  0  0  0  0  0  0  0  0  0  0  0
    2.2948    2.4891    0.4782 O   0  0  0  0  0  0  0  0  0  0  0  0
    1.4180   -0.5038    0.4844 C   0  0  1  0  0  0  0  0  0  0  0  0
    1.4240   -1.4565    1.5180 O   0  0  0  0  0  0  0  0  0  0  0  0
    0.7851   -1.1092   -0.7789 C   0  0  1  0  0  0  0  0  0  0  0  0
    1.3583   -2.3590   -1.0686 O   0  0  0  0  0  0  0  0  0  0  0  0
   -0.7359   -1.2570   -0.6240 C   0  0  1  0  0  0  0  0  0  0  0  0
   -1.0716   -2.3730    0.2700 N   0  0  0  0  0  0  0  0  0  0  0  0
   -2.2217    2.4811    0.0435 H   0  0  0  0  0  0  0  0  0  0  0  0
   -2.1977    2.8156   -1.7177 H   0  0  0  0  0  0  0  0  0  0  0  0
   -3.3488    1.5937   -1.0861 H   0  0  0  0  0  0  0  0  0  0  0  0
   -2.4264   -0.1892    0.1191 H   0  0  0  0  0  0  0  0  0  0  0  0
    0.9984    0.9821    1.9745 H   0  0  0  0  0  0  0  0  0  0  0  0
    0.9589    1.8459   -0.9692 H   0  0  0  0  0  0  0  0  0  0  0  0
    0.2894    2.8321    0.3695 H   0  0  0  0  0  0  0  0  0  0  0  0
    2.9400    2.0599   -0.1419 H   0  0  0  0  0  0  0  0  0  0  0  0
    2.4725   -0.2378    0.2391 H   0  0  0  0  0  0  0  0  0  0  0  0
    2.1035   -1.1623    2.1797 H   0  0  0  0  0  0  0  0  0  0  0  0
    0.9723   -0.4216   -1.6368 H   0  0  0  0  0  0  0  0  0  0  0  0
    2.2762   -2.1829   -1.4041 H   0  0  0  0  0  0  0  0  0  0  0  0
   -1.1505   -1.4908   -1.6316 H   0  0  0  0  0  0  0  0  0  0  0  0
   -1.0034   -2.0691    1.2680 H   0  0  0  0  0  0  0  0  0  0  0  0
   -2.0707   -2.6371    0.1074 H   0  0  0  0  0  0  0  0  0  0  0  0
  1  2  1  0  0  0  0
  1 14  1  0  0  0  0
  1 15  1  0  0  0  0
  1 16  1  0  0  0  0
  2  3  1  0  0  0  0
  3  4  1  0  0  0  0
  3 17  1  1  0  0  0
  4  5  1  0  0  0  0
  5  6  1  0  0  0  0
  5  8  1  0  0  0  0
  5 18  1  1  0  0  0
  6  7  1  0  0  0  0
  6 19  1  0  0  0  0
  6 20  1  0  0  0  0
  7 21  1  0  0  0  0
  8  9  1  0  0  0  0
  8 10  1  0  0  0  0
  8 22  1  6  0  0  0
  9 23  1  0  0  0  0
 10 11  1  0  0  0  0
 10 12  1  0  0  0  0
 10 24  1  6  0  0  0
 11 25  1  0  0  0  0
 12 13  1  0  0  0  0
 12  3  1  0  0  0  0
 12 26  1  6  0  0  0
 13 27  1  0  0  0  0
 13 28  1  0  0  0  0
M  END
>  <UniqueID>
274

>  <SMILES>
CO[C@@H]1O[C@H](CO)[C@@H](O)[C@@H](O)[C@H]1N

>  <Energy>
34.73833871126179

>  <Genealogy>
CO[C@@H]1O[C@H](CO)[C@@H](O)[C@@H](O)[C@H]1N (3D coordinates assigned)
CO[C@@H]1O[C@H](CO)[C@@H](O)[C@@H](O)[C@H]1N (nonaromatic ring conformer: 34.73833871126179 kcal/mol)

$$$$
ZINC000196304985
 OpenBabel03032110343D

 33 33  0  0  0  0  0  0  0  0999 V2000
   -0.1865   -2.8472   -0.3333 C   0  0  0  0  0  0  0  0  0  0  0  0
    0.1817   -1.6001    0.2138 O   0  0  0  0  0  0  0  0  0  0  0  0
   -0.0085   -0.5706   -0.7448 C   0  0  1  0  0  0  0  0  0  0  0  0
   -1.3885   -0.3024   -0.9587 O   0  0  0  0  0  0  0  0  0  0  0  0
   -2.0306    0.1491    0.2246 C   0  0  2  0  0  0  0  0  0  0  0  0
   -3.5311    0.2966   -0.0683 C   0  0  0  0  0  0  0  0  0  0  0  0
   -4.0648   -0.9210   -0.5144 O   0  0  0  0  0  0  0  0  0  0  0  0
   -1.4301    1.4953    0.6898 C   0  0  1  0  0  0  0  0  0  0  0  0
   -2.0662    1.9252    1.8665 O   0  0  0  0  0  0  0  0  0  0  0  0
    0.0826    1.3347    0.9328 C   0  0  1  0  0  0  0  0  0  0  0  0
    0.3106    0.5224    2.0594 O   0  0  0  0  0  0  0  0  0  0  0  0
    0.7394    0.7124   -0.3158 C   0  0  1  0  0  0  0  0  0  0  0  0
    2.1634    0.4350   -0.0850 N   0  0  0  0  0  0  0  0  0  0  0  0
    3.0834    0.1936   -1.1591 C   0  0  0  0  0  0  0  0  0  0  0  0
    4.5127   -0.1204   -0.8593 C   0  0  0  0  0  0  0  0  0  0  0  0
    2.7051    0.2832   -2.3585 O   0  0  0  0  0  0  0  0  0  0  0  0
   -1.2484   -2.8502   -0.6651 H   0  0  0  0  0  0  0  0  0  0  0  0
    0.4853   -3.1281   -1.1741 H   0  0  0  0  0  0  0  0  0  0  0  0
   -0.0804   -3.6222    0.4531 H   0  0  0  0  0  0  0  0  0  0  0  0
    0.4266   -0.8716   -1.7256 H   0  0  0  0  0  0  0  0  0  0  0  0
   -1.9296   -0.6051    1.0390 H   0  0  0  0  0  0  0  0  0  0  0  0
   -3.6826    1.0585   -0.8627 H   0  0  0  0  0  0  0  0  0  0  0  0
   -4.0773    0.6387    0.8402 H   0  0  0  0  0  0  0  0  0  0  0  0
   -4.1441   -1.5062    0.2838 H   0  0  0  0  0  0  0  0  0  0  0  0
   -1.5867    2.2501   -0.1174 H   0  0  0  0  0  0  0  0  0  0  0  0
   -1.8351    2.8839    1.9818 H   0  0  0  0  0  0  0  0  0  0  0  0
    0.5341    2.3425    1.0943 H   0  0  0  0  0  0  0  0  0  0  0  0
    0.2433    1.1080    2.8582 H   0  0  0  0  0  0  0  0  0  0  0  0
    0.6536    1.4574   -1.1395 H   0  0  0  0  0  0  0  0  0  0  0  0
    2.5466    0.4575    0.8873 H   0  0  0  0  0  0  0  0  0  0  0  0
    5.0301    0.8010   -0.5204 H   0  0  0  0  0  0  0  0  0  0  0  0
    4.5684   -0.8870   -0.0582 H   0  0  0  0  0  0  0  0  0  0  0  0
    5.0236   -0.5126   -1.7643 H   0  0  0  0  0  0  0  0  0  0  0  0
  1  2  1  0  0  0  0
  1 17  1  0  0  0  0
  1 18  1  0  0  0  0
  1 19  1  0  0  0  0
  2  3  1  0  0  0  0
  3  4  1  0  0  0  0
  3 20  1  6  0  0  0
  4  5  1  0  0  0  0
  5  6  1  0  0  0  0
  5  8  1  0  0  0  0
  5 21  1  1  0  0  0
  6  7  1  0  0  0  0
  6 22  1  0  0  0  0
  6 23  1  0  0  0  0
  7 24  1  0  0  0  0
  8  9  1  0  0  0  0
  8 10  1  0  0  0  0
  8 25  1  6  0  0  0
  9 26  1  0  0  0  0
 10 11  1  0  0  0  0
 10 12  1  0  0  0  0
 10 27  1  1  0  0  0
 11 28  1  0  0  0  0
 12 13  1  0  0  0  0
 12  3  1  0  0  0  0
 12 29  1  6  0  0  0
 13 14  1  0  0  0  0
 13 30  1  0  0  0  0
 14 15  1  0  0  0  0
 14 16  2  0  0  0  0
 15 31  1  0  0  0  0
 15 32  1  0  0  0  0
 15 33  1  0  0  0  0
M  END
>  <UniqueID>
275

>  <SMILES>
CO[C@H]1O[C@H](CO)[C@@H](O)[C@@H](O)[C@H]1NC(C)=O

>  <Energy>
29.850607541955185

>  <Genealogy>
CO[C@H]1O[C@H](CO)[C@@H](O)[C@@H](O)[C@H]1NC(C)=O (3D coordinates assigned)
CO[C@H]1O[C@H](CO)[C@@H](O)[C@@H](O)[C@H]1NC(C)=O (nonaromatic ring conformer: 29.850607541955185 kcal/mol)

$$$$
ZINC000196304985
 OpenBabel03032110343D

 33 33  0  0  0  0  0  0  0  0999 V2000
   -2.7202    2.0994   -2.3805 H   0  0  0  0  0  0  0  0  0  0  0  0
   -3.2915    1.6515   -1.6734 O   0  0  0  0  0  0  0  0  0  0  0  0
   -2.7131    1.0085   -0.5828 C   0  0  0  0  0  0  0  0  0  0  0  0
   -1.4144    0.9978   -0.4707 N   0  0  0  0  0  0  0  0  0  0  0  0
   -0.6230    0.3633    0.5923 C   0  0  1  0  0  0  0  0  0  0  0  0
   -1.2350    0.2141    1.5082 H   0  0  0  0  0  0  0  0  0  0  0  0
   -0.0879   -0.9998    0.1111 C   0  0  1  0  0  0  0  0  0  0  0  0
    0.4417   -1.4749    0.9707 H   0  0  0  0  0  0  0  0  0  0  0  0
   -1.1844   -1.8067   -0.2743 O   0  0  0  0  0  0  0  0  0  0  0  0
   -0.7832   -3.1553   -0.3844 C   0  0  0  0  0  0  0  0  0  0  0  0
   -0.4922   -3.5666    0.6072 H   0  0  0  0  0  0  0  0  0  0  0  0
    0.0473   -3.2780   -1.1145 H   0  0  0  0  0  0  0  0  0  0  0  0
   -1.6436   -3.7501   -0.7537 H   0  0  0  0  0  0  0  0  0  0  0  0
    0.7806   -0.8323   -1.0035 O   0  0  0  0  0  0  0  0  0  0  0  0
    1.9506   -0.0862   -0.6864 C   0  0  2  0  0  0  0  0  0  0  0  0
    2.4909    0.0529   -1.6489 H   0  0  0  0  0  0  0  0  0  0  0  0
    2.9238   -0.8769    0.2173 C   0  0  0  0  0  0  0  0  0  0  0  0
    2.9425   -1.9349   -0.1205 H   0  0  0  0  0  0  0  0  0  0  0  0
    2.5985   -0.8776    1.2812 H   0  0  0  0  0  0  0  0  0  0  0  0
    4.2256   -0.3650    0.1044 O   0  0  0  0  0  0  0  0  0  0  0  0
    4.3209    0.3405    0.7959 H   0  0  0  0  0  0  0  0  0  0  0  0
    1.6126    1.3332   -0.1576 C   0  0  1  0  0  0  0  0  0  0  0  0
    2.5309    1.8163    0.2497 H   0  0  0  0  0  0  0  0  0  0  0  0
    1.1127    2.1169   -1.2125 O   0  0  0  0  0  0  0  0  0  0  0  0
    1.8938    2.4091   -1.7514 H   0  0  0  0  0  0  0  0  0  0  0  0
    0.5723    1.2567    0.9793 C   0  0  1  0  0  0  0  0  0  0  0  0
    1.0673    0.7867    1.8569 H   0  0  0  0  0  0  0  0  0  0  0  0
    0.1580    2.5354    1.3982 O   0  0  0  0  0  0  0  0  0  0  0  0
   -0.2948    2.9841    0.6386 H   0  0  0  0  0  0  0  0  0  0  0  0
   -3.6184    0.3768    0.4338 C   0  0  0  0  0  0  0  0  0  0  0  0
   -3.3629   -0.6927    0.5756 H   0  0  0  0  0  0  0  0  0  0  0  0
   -4.6727    0.4382    0.0915 H   0  0  0  0  0  0  0  0  0  0  0  0
   -3.5331    0.9155    1.4006 H   0  0  0  0  0  0  0  0  0  0  0  0
  1  2  1  0  0  0  0
  2  3  1  0  0  0  0
  3  4  2  0  0  0  0
  3 30  1  0  0  0  0
  4  5  1  0  0  0  0
  5  6  1  1  0  0  0
  5  7  1  0  0  0  0
  7  8  1  1  0  0  0
  7  9  1  0  0  0  0
  7 14  1  0  0  0  0
  9 10  1  0  0  0  0
 10 11  1  0  0  0  0
 10 12  1  0  0  0  0
 10 13  1  0  0  0  0
 14 15  1  0  0  0  0
 15 16  1  6  0  0  0
 15 17  1  0  0  0  0
 15 22  1  0  0  0  0
 17 18  1  0  0  0  0
 17 19  1  0  0  0  0
 17 20  1  0  0  0  0
 20 21  1  0  0  0  0
 22 23  1  1  0  0  0
 22 24  1  0  0  0  0
 22 26  1  0  0  0  0
 24 25  1  0  0  0  0
 26 27  1  1  0  0  0
 26 28  1  0  0  0  0
 26  5  1  0  0  0  0
 28 29  1  0  0  0  0
 30 31  1  0  0  0  0
 30 32  1  0  0  0  0
 30 33  1  0  0  0  0
M  END
>  <UniqueID>
276

>  <SMILES>
CO[C@H]1O[C@H](CO)[C@@H](O)[C@@H](O)[C@H]1/N=C(\C)O

>  <Energy>
38.07452221133415

>  <Genealogy>
CO[C@H]1O[C@H](CO)[C@@H](O)[C@@H](O)[C@H]1N=C(C)O (tautomer)
CO[C@H]1O[C@H](CO)[C@@H](O)[C@@H](O)[C@H]1/N=C(\C)O (cis-trans isomerization)
CO[C@H]1O[C@H](CO)[C@@H](O)[C@@H](O)[C@H]1/N=C(\C)O (3D coordinates assigned)
CO[C@H]1O[C@H](CO)[C@@H](O)[C@@H](O)[C@H]1/N=C(\C)O (nonaromatic ring conformer: 38.07452221133415 kcal/mol)

$$$$
ZINC000252694384
 OpenBabel03032110343D

 54 54  0  0  0  0  0  0  0  0999 V2000
    6.5309   -2.5178    0.8753 C   0  0  0  0  0  0  0  0  0  0  0  0
    6.2869   -1.1441    1.4993 C   0  0  0  0  0  0  0  0  0  0  0  0
    4.8672   -0.6179    1.2389 C   0  0  0  0  0  0  0  0  0  0  0  0
    4.6369   -0.2495   -0.2373 C   0  0  0  0  0  0  0  0  0  0  0  0
    3.3177    0.5076   -0.4575 C   0  0  0  0  0  0  0  0  0  0  0  0
    2.0846   -0.3887   -0.2706 C   0  0  0  0  0  0  0  0  0  0  0  0
    0.7983    0.3722   -0.6105 C   0  0  0  0  0  0  0  0  0  0  0  0
   -0.4363   -0.5171   -0.4306 C   0  0  0  0  0  0  0  0  0  0  0  0
   -1.6011    0.1956   -0.8008 O   0  0  0  0  0  0  0  0  0  0  0  0
   -2.2207    0.7884    0.3259 C   0  0  2  0  0  0  0  0  0  0  0  0
   -3.0659   -0.1742    0.9345 O   0  0  0  0  0  0  0  0  0  0  0  0
   -3.6580    0.3450    2.1146 C   0  0  2  0  0  0  0  0  0  0  0  0
   -4.4236   -0.7902    2.8101 C   0  0  0  0  0  0  0  0  0  0  0  0
   -3.5692   -1.8725    3.0652 O   0  0  0  0  0  0  0  0  0  0  0  0
   -4.6053    1.5199    1.7645 C   0  0  1  0  0  0  0  0  0  0  0  0
   -5.1720    2.0633    2.9311 O   0  0  0  0  0  0  0  0  0  0  0  0
   -3.8217    2.6165    1.0198 C   0  0  1  0  0  0  0  0  0  0  0  0
   -2.9236    3.2508    1.8989 O   0  0  0  0  0  0  0  0  0  0  0  0
   -3.0535    1.9901   -0.1601 C   0  0  1  0  0  0  0  0  0  0  0  0
   -2.1808    2.9837   -0.7975 N   0  0  0  0  0  0  0  0  0  0  0  0
   -1.9706    3.0323   -2.2159 C   0  0  0  0  0  0  0  0  0  0  0  0
   -0.9101    3.9198   -2.7806 C   0  0  0  0  0  0  0  0  0  0  0  0
   -2.6469    2.3028   -2.9903 O   0  0  0  0  0  0  0  0  0  0  0  0
    7.5272   -2.8938    1.1900 H   0  0  0  0  0  0  0  0  0  0  0  0
    5.7579   -3.2411    1.2119 H   0  0  0  0  0  0  0  0  0  0  0  0
    6.5202   -2.4534   -0.2324 H   0  0  0  0  0  0  0  0  0  0  0  0
    7.0399   -0.4217    1.1160 H   0  0  0  0  0  0  0  0  0  0  0  0
    6.4336   -1.2295    2.5979 H   0  0  0  0  0  0  0  0  0  0  0  0
    4.7182    0.2880    1.8661 H   0  0  0  0  0  0  0  0  0  0  0  0
    4.1287   -1.3808    1.5649 H   0  0  0  0  0  0  0  0  0  0  0  0
    5.4676    0.4047   -0.5807 H   0  0  0  0  0  0  0  0  0  0  0  0
    4.6446   -1.1649   -0.8665 H   0  0  0  0  0  0  0  0  0  0  0  0
    3.2621    1.3779    0.2330 H   0  0  0  0  0  0  0  0  0  0  0  0
    3.3190    0.9035   -1.4971 H   0  0  0  0  0  0  0  0  0  0  0  0
    2.1706   -1.2786   -0.9323 H   0  0  0  0  0  0  0  0  0  0  0  0
    2.0286   -0.7336    0.7840 H   0  0  0  0  0  0  0  0  0  0  0  0
    0.8391    0.7227   -1.6653 H   0  0  0  0  0  0  0  0  0  0  0  0
    0.7124    1.2631    0.0485 H   0  0  0  0  0  0  0  0  0  0  0  0
   -0.3456   -1.3912   -1.1101 H   0  0  0  0  0  0  0  0  0  0  0  0
   -0.4822   -0.9269    0.6069 H   0  0  0  0  0  0  0  0  0  0  0  0
   -1.4586    1.1659    1.0540 H   0  0  0  0  0  0  0  0  0  0  0  0
   -2.8720    0.6959    2.8245 H   0  0  0  0  0  0  0  0  0  0  0  0
   -4.8746   -0.4333    3.7637 H   0  0  0  0  0  0  0  0  0  0  0  0
   -5.2483   -1.1409    2.1532 H   0  0  0  0  0  0  0  0  0  0  0  0
   -3.0010   -1.6107    3.8362 H   0  0  0  0  0  0  0  0  0  0  0  0
   -5.4065    1.1490    1.0795 H   0  0  0  0  0  0  0  0  0  0  0  0
   -6.0469    1.6150    3.0693 H   0  0  0  0  0  0  0  0  0  0  0  0
   -4.5423    3.3624    0.6073 H   0  0  0  0  0  0  0  0  0  0  0  0
   -3.4292    3.9674    2.3645 H   0  0  0  0  0  0  0  0  0  0  0  0
   -3.8071    1.6232   -0.8933 H   0  0  0  0  0  0  0  0  0  0  0  0
   -1.5410    3.5494   -0.1944 H   0  0  0  0  0  0  0  0  0  0  0  0
   -1.0331    4.0239   -3.8789 H   0  0  0  0  0  0  0  0  0  0  0  0
    0.0868    3.4822   -2.5676 H   0  0  0  0  0  0  0  0  0  0  0  0
   -0.9745    4.9261   -2.3166 H   0  0  0  0  0  0  0  0  0  0  0  0
  1  2  1  0  0  0  0
  1 24  1  0  0  0  0
  1 25  1  0  0  0  0
  1 26  1  0  0  0  0
  2  3  1  0  0  0  0
  2 27  1  0  0  0  0
  2 28  1  0  0  0  0
  3  4  1  0  0  0  0
  3 29  1  0  0  0  0
  3 30  1  0  0  0  0
  4  5  1  0  0  0  0
  4 31  1  0  0  0  0
  4 32  1  0  0  0  0
  5  6  1  0  0  0  0
  5 33  1  0  0  0  0
  5 34  1  0  0  0  0
  6  7  1  0  0  0  0
  6 35  1  0  0  0  0
  6 36  1  0  0  0  0
  7  8  1  0  0  0  0
  7 37  1  0  0  0  0
  7 38  1  0  0  0  0
  8  9  1  0  0  0  0
  8 39  1  0  0  0  0
  8 40  1  0  0  0  0
  9 10  1  0  0  0  0
 10 11  1  0  0  0  0
 10 41  1  1  0  0  0
 11 12  1  0  0  0  0
 12 13  1  0  0  0  0
 12 15  1  0  0  0  0
 12 42  1  1  0  0  0
 13 14  1  0  0  0  0
 13 43  1  0  0  0  0
 13 44  1  0  0  0  0
 14 45  1  0  0  0  0
 15 16  1  0  0  0  0
 15 17  1  0  0  0  0
 15 46  1  6  0  0  0
 16 47  1  0  0  0  0
 17 18  1  0  0  0  0
 17 19  1  0  0  0  0
 17 48  1  6  0  0  0
 18 49  1  0  0  0  0
 19 20  1  0  0  0  0
 19 10  1  0  0  0  0
 19 50  1  6  0  0  0
 20 21  1  0  0  0  0
 20 51  1  0  0  0  0
 21 22  1  0  0  0  0
 21 23  2  0  0  0  0
 22 52  1  0  0  0  0
 22 53  1  0  0  0  0
 22 54  1  0  0  0  0
M  END
>  <UniqueID>
277

>  <SMILES>
CCCCCCCCO[C@@H]1O[C@H](CO)[C@@H](O)[C@@H](O)[C@H]1NC(C)=O

>  <Energy>
36.353319544223034

>  <Genealogy>
CCCCCCCCO[C@@H]1O[C@H](CO)[C@@H](O)[C@@H](O)[C@H]1NC(C)=O (3D coordinates assigned)
CCCCCCCCO[C@@H]1O[C@H](CO)[C@@H](O)[C@@H](O)[C@H]1NC(C)=O (nonaromatic ring conformer: 36.353319544223034 kcal/mol)

$$$$
ZINC000252694384
 OpenBabel03032110343D

 54 54  0  0  0  0  0  0  0  0999 V2000
   -3.0116    3.0074   -3.8542 H   0  0  0  0  0  0  0  0  0  0  0  0
   -2.9495    2.7046   -2.8904 O   0  0  0  0  0  0  0  0  0  0  0  0
   -2.4798    1.4393   -2.5497 C   0  0  0  0  0  0  0  0  0  0  0  0
   -2.4092    1.1260   -1.2873 N   0  0  0  0  0  0  0  0  0  0  0  0
   -1.9602   -0.1522   -0.7242 C   0  0  2  0  0  0  0  0  0  0  0  0
   -1.1500   -0.5853   -1.3514 H   0  0  0  0  0  0  0  0  0  0  0  0
   -3.1319   -1.1539   -0.6379 C   0  0  2  0  0  0  0  0  0  0  0  0
   -3.4361   -1.4669   -1.6624 H   0  0  0  0  0  0  0  0  0  0  0  0
   -4.2265   -0.5706    0.0261 O   0  0  0  0  0  0  0  0  0  0  0  0
   -4.7373   -0.0552   -0.6514 H   0  0  0  0  0  0  0  0  0  0  0  0
   -2.6720   -2.4143    0.1187 C   0  0  2  0  0  0  0  0  0  0  0  0
   -1.9157   -2.9298   -0.5143 H   0  0  0  0  0  0  0  0  0  0  0  0
   -3.7467   -3.3037    0.3063 O   0  0  0  0  0  0  0  0  0  0  0  0
   -4.3550   -2.9085    0.9854 H   0  0  0  0  0  0  0  0  0  0  0  0
   -1.9958   -2.0268    1.4607 C   0  0  1  0  0  0  0  0  0  0  0  0
   -2.7418   -1.5532    2.1411 H   0  0  0  0  0  0  0  0  0  0  0  0
   -1.4551   -3.2726    2.1710 C   0  0  0  0  0  0  0  0  0  0  0  0
   -2.2939   -3.9638    2.4107 H   0  0  0  0  0  0  0  0  0  0  0  0
   -0.7358   -3.8007    1.5056 H   0  0  0  0  0  0  0  0  0  0  0  0
   -0.8109   -2.8976    3.3570 O   0  0  0  0  0  0  0  0  0  0  0  0
   -0.4520   -3.7362    3.7509 H   0  0  0  0  0  0  0  0  0  0  0  0
   -0.9147   -1.1414    1.2239 O   0  0  0  0  0  0  0  0  0  0  0  0
   -1.3753    0.0862    0.6808 C   0  0  1  0  0  0  0  0  0  0  0  0
   -2.1695    0.5397    1.3261 H   0  0  0  0  0  0  0  0  0  0  0  0
   -0.2795    0.9712    0.5560 O   0  0  0  0  0  0  0  0  0  0  0  0
    0.0620    1.5158    1.8153 C   0  0  0  0  0  0  0  0  0  0  0  0
   -0.6934    2.2811    2.1036 H   0  0  0  0  0  0  0  0  0  0  0  0
    0.0917    0.7441    2.6174 H   0  0  0  0  0  0  0  0  0  0  0  0
    1.4272    2.2062    1.7255 C   0  0  0  0  0  0  0  0  0  0  0  0
    1.3446    3.0467    1.0016 H   0  0  0  0  0  0  0  0  0  0  0  0
    1.6884    2.6440    2.7140 H   0  0  0  0  0  0  0  0  0  0  0  0
    2.5527    1.2698    1.2537 C   0  0  0  0  0  0  0  0  0  0  0  0
    2.2488    0.7538    0.3199 H   0  0  0  0  0  0  0  0  0  0  0  0
    3.4362    1.8956    1.0028 H   0  0  0  0  0  0  0  0  0  0  0  0
    2.9716    0.2534    2.3297 C   0  0  0  0  0  0  0  0  0  0  0  0
    2.0932   -0.3083    2.7084 H   0  0  0  0  0  0  0  0  0  0  0  0
    3.3906    0.8178    3.1917 H   0  0  0  0  0  0  0  0  0  0  0  0
    4.0446   -0.7281    1.8135 C   0  0  0  0  0  0  0  0  0  0  0  0
    4.5944   -0.3071    0.9430 H   0  0  0  0  0  0  0  0  0  0  0  0
    4.7984   -0.8728    2.6186 H   0  0  0  0  0  0  0  0  0  0  0  0
    3.4846   -2.1154    1.4560 C   0  0  0  0  0  0  0  0  0  0  0  0
    4.3434   -2.7795    1.2156 H   0  0  0  0  0  0  0  0  0  0  0  0
    2.9634   -2.5458    2.3391 H   0  0  0  0  0  0  0  0  0  0  0  0
    2.5289   -2.0849    0.2558 C   0  0  0  0  0  0  0  0  0  0  0  0
    3.0251   -1.5967   -0.6108 H   0  0  0  0  0  0  0  0  0  0  0  0
    1.6166   -1.5095    0.5149 H   0  0  0  0  0  0  0  0  0  0  0  0
    2.1061   -3.4946   -0.1462 C   0  0  0  0  0  0  0  0  0  0  0  0
    1.3868   -3.4416   -0.9914 H   0  0  0  0  0  0  0  0  0  0  0  0
    2.9907   -4.0853   -0.4678 H   0  0  0  0  0  0  0  0  0  0  0  0
    1.6164   -4.0074    0.7081 H   0  0  0  0  0  0  0  0  0  0  0  0
   -2.0545    0.4917   -3.6397 C   0  0  0  0  0  0  0  0  0  0  0  0
   -2.6169   -0.4590   -3.5718 H   0  0  0  0  0  0  0  0  0  0  0  0
   -2.2536    0.9303   -4.6380 H   0  0  0  0  0  0  0  0  0  0  0  0
   -0.9663    0.2898   -3.5618 H   0  0  0  0  0  0  0  0  0  0  0  0
  1  2  1  0  0  0  0
  2  3  1  0  0  0  0
  3  4  2  0  0  0  0
  3 51  1  0  0  0  0
  4  5  1  0  0  0  0
  5  6  1  6  0  0  0
  5  7  1  0  0  0  0
  7  8  1  6  0  0  0
  7  9  1  0  0  0  0
  7 11  1  0  0  0  0
  9 10  1  0  0  0  0
 11 12  1  6  0  0  0
 11 13  1  0  0  0  0
 11 15  1  0  0  0  0
 13 14  1  0  0  0  0
 15 16  1  1  0  0  0
 15 17  1  0  0  0  0
 15 22  1  0  0  0  0
 17 18  1  0  0  0  0
 17 19  1  0  0  0  0
 17 20  1  0  0  0  0
 20 21  1  0  0  0  0
 22 23  1  0  0  0  0
 23 24  1  1  0  0  0
 23 25  1  0  0  0  0
 23  5  1  0  0  0  0
 25 26  1  0  0  0  0
 26 27  1  0  0  0  0
 26 28  1  0  0  0  0
 26 29  1  0  0  0  0
 29 30  1  0  0  0  0
 29 31  1  0  0  0  0
 29 32  1  0  0  0  0
 32 33  1  0  0  0  0
 32 34  1  0  0  0  0
 32 35  1  0  0  0  0
 35 36  1  0  0  0  0
 35 37  1  0  0  0  0
 35 38  1  0  0  0  0
 38 39  1  0  0  0  0
 38 40  1  0  0  0  0
 38 41  1  0  0  0  0
 41 42  1  0  0  0  0
 41 43  1  0  0  0  0
 41 44  1  0  0  0  0
 44 45  1  0  0  0  0
 44 46  1  0  0  0  0
 44 47  1  0  0  0  0
 47 48  1  0  0  0  0
 47 49  1  0  0  0  0
 47 50  1  0  0  0  0
 51 52  1  0  0  0  0
 51 53  1  0  0  0  0
 51 54  1  0  0  0  0
M  END
>  <UniqueID>
278

>  <SMILES>
CCCCCCCCO[C@@H]1O[C@H](CO)[C@@H](O)[C@@H](O)[C@H]1/N=C(/C)O

>  <Energy>
38.25792518624254

>  <Genealogy>
CCCCCCCCO[C@@H]1O[C@H](CO)[C@@H](O)[C@@H](O)[C@H]1N=C(C)O (tautomer)
CCCCCCCCO[C@@H]1O[C@H](CO)[C@@H](O)[C@@H](O)[C@H]1/N=C(/C)O (cis-trans isomerization)
CCCCCCCCO[C@@H]1O[C@H](CO)[C@@H](O)[C@@H](O)[C@H]1/N=C(/C)O (3D coordinates assigned)
CCCCCCCCO[C@@H]1O[C@H](CO)[C@@H](O)[C@@H](O)[C@H]1/N=C(/C)O (nonaromatic ring conformer: 38.25792518624254 kcal/mol)

$$$$
ZINC000257346145
 OpenBabel03032110343D

 41 43  0  0  0  0  0  0  0  0999 V2000
    1.6826   -0.4854    5.8303 H   0  0  0  0  0  0  0  0  0  0  0  0
    0.8203   -0.8728    5.4656 O   0  0  0  0  0  0  0  0  0  0  0  0
    0.3111   -0.4600    4.2393 C   0  0  0  0  0  0  0  0  0  0  0  0
   -0.6135   -0.8943    3.8788 H   0  0  0  0  0  0  0  0  0  0  0  0
    0.9388    0.4351    3.5413 N   0  0  0  0  0  0  0  0  0  0  0  0
    0.4613    0.9118    2.2425 C   0  0  2  0  0  0  0  0  0  0  0  0
   -0.6195    1.1721    2.3236 H   0  0  0  0  0  0  0  0  0  0  0  0
    0.6330   -0.1800    1.1633 C   0  0  2  0  0  0  0  0  0  0  0  0
   -0.0815   -1.0087    1.3807 H   0  0  0  0  0  0  0  0  0  0  0  0
    1.9524   -0.6680    1.1835 O   0  0  0  0  0  0  0  0  0  0  0  0
    1.9335   -1.5708    0.7710 H   0  0  0  0  0  0  0  0  0  0  0  0
    0.3003    0.4123   -0.2152 C   0  0  2  0  0  0  0  0  0  0  0  0
   -0.7886    0.6543   -0.2230 H   0  0  0  0  0  0  0  0  0  0  0  0
    0.5629   -0.5332   -1.2367 O   0  0  0  0  0  0  0  0  0  0  0  0
    0.5708    0.0531   -2.5384 C   0  0  1  0  0  0  0  0  0  0  0  0
    1.6302    0.1101   -2.8831 H   0  0  0  0  0  0  0  0  0  0  0  0
   -0.1960   -0.8449   -3.4718 C   0  0  0  0  0  0  0  0  0  0  0  0
   -1.5445   -1.1436   -3.2090 C   0  0  0  0  0  0  0  0  0  0  0  0
   -2.0351   -0.7350   -2.3340 H   0  0  0  0  0  0  0  0  0  0  0  0
   -2.2659   -1.9712   -4.0749 C   0  0  0  0  0  0  0  0  0  0  0  0
   -3.3033   -2.1985   -3.8662 H   0  0  0  0  0  0  0  0  0  0  0  0
   -1.6495   -2.5044   -5.2098 C   0  0  0  0  0  0  0  0  0  0  0  0
   -2.2093   -3.1446   -5.8793 H   0  0  0  0  0  0  0  0  0  0  0  0
   -0.3108   -2.2098   -5.4816 C   0  0  0  0  0  0  0  0  0  0  0  0
    0.1648   -2.6220   -6.3622 H   0  0  0  0  0  0  0  0  0  0  0  0
    0.4150   -1.3825   -4.6186 C   0  0  0  0  0  0  0  0  0  0  0  0
    1.4507   -1.1633   -4.8464 H   0  0  0  0  0  0  0  0  0  0  0  0
   -0.0158    1.3478   -2.5783 O   0  0  0  0  0  0  0  0  0  0  0  0
    0.7629    2.2587   -1.8233 C   0  0  0  0  0  0  0  0  0  0  0  0
    1.6905    2.5177   -2.3812 H   0  0  0  0  0  0  0  0  0  0  0  0
    0.1791    3.1983   -1.7193 H   0  0  0  0  0  0  0  0  0  0  0  0
    1.1098    1.7032   -0.4299 C   0  0  1  0  0  0  0  0  0  0  0  0
    2.2013    1.4700   -0.4249 H   0  0  0  0  0  0  0  0  0  0  0  0
    0.7958    2.6531    0.5735 O   0  0  0  0  0  0  0  0  0  0  0  0
    1.2323    2.1901    1.8449 C   0  0  1  0  0  0  0  0  0  0  0  0
    2.3248    1.9455    1.8265 H   0  0  0  0  0  0  0  0  0  0  0  0
    0.9672    3.1863    2.8146 O   0  0  0  0  0  0  0  0  0  0  0  0
    1.9066    4.2336    2.7045 C   0  0  0  0  0  0  0  0  0  0  0  0
    1.6330    5.0304    3.4261 H   0  0  0  0  0  0  0  0  0  0  0  0
    2.9285    3.8808    2.9660 H   0  0  0  0  0  0  0  0  0  0  0  0
    1.8998    4.6853    1.6876 H   0  0  0  0  0  0  0  0  0  0  0  0
  1  2  1  0  0  0  0
  2  3  1  0  0  0  0
  3  4  1  0  0  0  0
  3  5  2  0  0  0  0
  5  6  1  0  0  0  0
  6  7  1  1  0  0  0
  6  8  1  0  0  0  0
  8  9  1  1  0  0  0
  8 10  1  0  0  0  0
  8 12  1  0  0  0  0
 10 11  1  0  0  0  0
 12 13  1  6  0  0  0
 12 14  1  0  0  0  0
 14 15  1  0  0  0  0
 15 16  1  6  0  0  0
 15 17  1  0  0  0  0
 15 28  1  0  0  0  0
 17 18  2  0  0  0  0
 18 19  1  0  0  0  0
 18 20  1  0  0  0  0
 20 21  1  0  0  0  0
 20 22  2  0  0  0  0
 22 23  1  0  0  0  0
 22 24  1  0  0  0  0
 24 25  1  0  0  0  0
 24 26  2  0  0  0  0
 26 27  1  0  0  0  0
 26 17  1  0  0  0  0
 28 29  1  0  0  0  0
 29 30  1  0  0  0  0
 29 31  1  0  0  0  0
 29 32  1  0  0  0  0
 32 33  1  1  0  0  0
 32 34  1  0  0  0  0
 32 12  1  0  0  0  0
 34 35  1  0  0  0  0
 35 36  1  6  0  0  0
 35 37  1  0  0  0  0
 35  6  1  0  0  0  0
 37 38  1  0  0  0  0
 38 39  1  0  0  0  0
 38 40  1  0  0  0  0
 38 41  1  0  0  0  0
M  END
>  <UniqueID>
279

>  <SMILES>
CO[C@@H]1O[C@@H]2CO[C@H](c3ccccc3)O[C@H]2[C@@H](O)[C@H]1/N=C\O

>  <Energy>
56.06447993684393

>  <Genealogy>
CO[C@@H]1O[C@@H]2CO[C@H](c3ccccc3)O[C@H]2[C@@H](O)[C@H]1N=CO (tautomer)
CO[C@@H]1O[C@@H]2CO[C@H](c3ccccc3)O[C@H]2[C@@H](O)[C@H]1/N=C\O (cis-trans isomerization)
CO[C@@H]1O[C@@H]2CO[C@H](c3ccccc3)O[C@H]2[C@@H](O)[C@H]1/N=C\O (3D coordinates assigned)
CO[C@@H]1O[C@@H]2CO[C@H](c3ccccc3)O[C@H]2[C@@H](O)[C@H]1/N=C\O (nonaromatic ring conformer: 56.06447993684393 kcal/mol)

$$$$
ZINC000257346145
 OpenBabel03032110343D

 41 43  0  0  0  0  0  0  0  0999 V2000
   -0.6697   -5.4352    0.7900 C   0  0  0  0  0  0  0  0  0  0  0  0
    0.4096   -4.7668    0.1714 O   0  0  0  0  0  0  0  0  0  0  0  0
    0.4638   -3.4208    0.6078 C   0  0  2  0  0  0  0  0  0  0  0  0
   -0.5783   -2.6850   -0.0191 O   0  0  0  0  0  0  0  0  0  0  0  0
   -0.5903   -1.3494    0.4562 C   0  0  2  0  0  0  0  0  0  0  0  0
   -1.7963   -0.5854   -0.1211 C   0  0  0  0  0  0  0  0  0  0  0  0
   -1.4310    0.6890   -0.6227 O   0  0  0  0  0  0  0  0  0  0  0  0
   -0.5924    1.3593    0.3090 C   0  0  2  0  0  0  0  0  0  0  0  0
   -0.3892    2.7737   -0.1642 C   0  0  0  0  0  0  0  0  0  0  0  0
    0.3216    3.0224   -1.3522 C   0  0  0  0  0  0  0  0  0  0  0  0
    0.5057    4.3330   -1.8031 C   0  0  0  0  0  0  0  0  0  0  0  0
   -0.0150    5.4048   -1.0731 C   0  0  0  0  0  0  0  0  0  0  0  0
   -0.7214    5.1678    0.1089 C   0  0  0  0  0  0  0  0  0  0  0  0
   -0.9159    3.8579    0.5594 C   0  0  0  0  0  0  0  0  0  0  0  0
    0.6857    0.7404    0.4567 O   0  0  0  0  0  0  0  0  0  0  0  0
    0.6911   -0.6106    0.0236 C   0  0  1  0  0  0  0  0  0  0  0  0
    1.9229   -1.3432    0.5799 C   0  0  1  0  0  0  0  0  0  0  0  0
    1.9858   -1.2033    1.9790 O   0  0  0  0  0  0  0  0  0  0  0  0
    1.8409   -2.8385    0.2078 C   0  0  1  0  0  0  0  0  0  0  0  0
    2.9262   -3.5835    0.8553 N   0  0  0  0  0  0  0  0  0  0  0  0
    4.2671   -3.5813    0.3505 C   0  0  0  0  0  0  0  0  0  0  0  0
    4.5629   -2.9570   -0.7056 O   0  0  0  0  0  0  0  0  0  0  0  0
   -0.5304   -5.4867    1.8912 H   0  0  0  0  0  0  0  0  0  0  0  0
   -1.6415   -4.9561    0.5400 H   0  0  0  0  0  0  0  0  0  0  0  0
   -0.7039   -6.4774    0.4098 H   0  0  0  0  0  0  0  0  0  0  0  0
    0.3720   -3.3692    1.7227 H   0  0  0  0  0  0  0  0  0  0  0  0
   -0.6807   -1.3274    1.5689 H   0  0  0  0  0  0  0  0  0  0  0  0
   -2.5909   -0.4745    0.6501 H   0  0  0  0  0  0  0  0  0  0  0  0
   -2.2399   -1.1638   -0.9596 H   0  0  0  0  0  0  0  0  0  0  0  0
   -1.0826    1.3838    1.3117 H   0  0  0  0  0  0  0  0  0  0  0  0
    0.7337    2.2007   -1.9269 H   0  0  0  0  0  0  0  0  0  0  0  0
    1.0525    4.5173   -2.7186 H   0  0  0  0  0  0  0  0  0  0  0  0
    0.1306    6.4189   -1.4234 H   0  0  0  0  0  0  0  0  0  0  0  0
   -1.1218    5.9989    0.6743 H   0  0  0  0  0  0  0  0  0  0  0  0
   -1.4716    3.6932    1.4736 H   0  0  0  0  0  0  0  0  0  0  0  0
    0.7644   -0.6264   -1.0894 H   0  0  0  0  0  0  0  0  0  0  0  0
    2.8410   -0.9129    0.1135 H   0  0  0  0  0  0  0  0  0  0  0  0
    2.4000   -0.3206    2.1633 H   0  0  0  0  0  0  0  0  0  0  0  0
    1.9394   -2.9397   -0.8976 H   0  0  0  0  0  0  0  0  0  0  0  0
    2.7396   -4.0989    1.7499 H   0  0  0  0  0  0  0  0  0  0  0  0
    5.0425   -4.1206    0.8794 H   0  0  0  0  0  0  0  0  0  0  0  0
  1  2  1  0  0  0  0
  1 23  1  0  0  0  0
  1 24  1  0  0  0  0
  1 25  1  0  0  0  0
  2  3  1  0  0  0  0
  3  4  1  0  0  0  0
  3 26  1  1  0  0  0
  4  5  1  0  0  0  0
  5  6  1  0  0  0  0
  5 27  1  1  0  0  0
  6  7  1  0  0  0  0
  6 28  1  0  0  0  0
  6 29  1  0  0  0  0
  7  8  1  0  0  0  0
  8  9  1  0  0  0  0
  8 15  1  0  0  0  0
  8 30  1  1  0  0  0
  9 10  2  0  0  0  0
 10 11  1  0  0  0  0
 10 31  1  0  0  0  0
 11 12  2  0  0  0  0
 11 32  1  0  0  0  0
 12 13  1  0  0  0  0
 12 33  1  0  0  0  0
 13 14  2  0  0  0  0
 13 34  1  0  0  0  0
 14  9  1  0  0  0  0
 14 35  1  0  0  0  0
 15 16  1  0  0  0  0
 16 17  1  0  0  0  0
 16  5  1  0  0  0  0
 16 36  1  6  0  0  0
 17 18  1  0  0  0  0
 17 19  1  0  0  0  0
 17 37  1  6  0  0  0
 18 38  1  0  0  0  0
 19 20  1  0  0  0  0
 19  3  1  0  0  0  0
 19 39  1  6  0  0  0
 20 21  1  0  0  0  0
 20 40  1  0  0  0  0
 21 22  2  0  0  0  0
 21 41  1  0  0  0  0
M  END
>  <UniqueID>
280

>  <SMILES>
CO[C@@H]1O[C@@H]2CO[C@H](c3ccccc3)O[C@H]2[C@@H](O)[C@H]1NC=O

>  <Energy>
56.71885658226035

>  <Genealogy>
CO[C@@H]1O[C@@H]2CO[C@H](c3ccccc3)O[C@H]2[C@@H](O)[C@H]1NC=O (3D coordinates assigned)
CO[C@@H]1O[C@@H]2CO[C@H](c3ccccc3)O[C@H]2[C@@H](O)[C@H]1NC=O (nonaromatic ring conformer: 56.71885658226035 kcal/mol)

$$$$
ZINC000257346492
 OpenBabel03032110343D

 42 44  0  0  0  0  0  0  0  0999 V2000
    2.0518   -0.9862   -2.5285 H   0  0  0  0  0  0  0  0  0  0  0  0
    2.2783   -1.3786   -1.6452 O   0  0  0  0  0  0  0  0  0  0  0  0
    1.0755   -1.4810   -0.9230 C   0  0  2  0  0  0  0  0  0  0  0  0
    0.2503   -1.8016   -1.6022 H   0  0  0  0  0  0  0  0  0  0  0  0
    0.7065   -0.1308   -0.2935 C   0  0  2  0  0  0  0  0  0  0  0  0
   -0.3086   -0.2444    0.1580 H   0  0  0  0  0  0  0  0  0  0  0  0
    0.6781    0.8962   -1.2618 O   0  0  0  0  0  0  0  0  0  0  0  0
    0.3728    2.1666   -0.6788 C   0  0  1  0  0  0  0  0  0  0  0  0
    1.1948    2.8715   -0.9388 H   0  0  0  0  0  0  0  0  0  0  0  0
   -0.9060    2.7194   -1.3186 C   0  0  0  0  0  0  0  0  0  0  0  0
   -0.7461    2.8397   -2.4127 H   0  0  0  0  0  0  0  0  0  0  0  0
   -1.1132    3.7331   -0.9106 H   0  0  0  0  0  0  0  0  0  0  0  0
   -2.0869    1.8147   -1.0710 C   0  0  0  0  0  0  0  0  0  0  0  0
   -2.8688    1.9689    0.0862 C   0  0  0  0  0  0  0  0  0  0  0  0
   -2.6514    2.7599    0.7933 H   0  0  0  0  0  0  0  0  0  0  0  0
   -3.9311    1.0959    0.3401 C   0  0  0  0  0  0  0  0  0  0  0  0
   -4.5307    1.2195    1.2326 H   0  0  0  0  0  0  0  0  0  0  0  0
   -4.2158    0.0601   -0.5538 C   0  0  0  0  0  0  0  0  0  0  0  0
   -5.0366   -0.6165   -0.3542 H   0  0  0  0  0  0  0  0  0  0  0  0
   -3.4380   -0.1052   -1.7029 C   0  0  0  0  0  0  0  0  0  0  0  0
   -3.6551   -0.9117   -2.3912 H   0  0  0  0  0  0  0  0  0  0  0  0
   -2.3759    0.7664   -1.9616 C   0  0  0  0  0  0  0  0  0  0  0  0
   -1.7730    0.6190   -2.8490 H   0  0  0  0  0  0  0  0  0  0  0  0
    0.2139    2.1413    0.7385 O   0  0  0  0  0  0  0  0  0  0  0  0
    1.3737    1.6117    1.3529 C   0  0  0  0  0  0  0  0  0  0  0  0
    2.2285    2.3123    1.2170 H   0  0  0  0  0  0  0  0  0  0  0  0
    1.1870    1.5480    2.4461 H   0  0  0  0  0  0  0  0  0  0  0  0
    1.7238    0.2190    0.7987 C   0  0  1  0  0  0  0  0  0  0  0  0
    2.7477    0.2883    0.3594 H   0  0  0  0  0  0  0  0  0  0  0  0
    1.6852   -0.7607    1.8213 O   0  0  0  0  0  0  0  0  0  0  0  0
    2.1552   -2.0082    1.3215 C   0  0  1  0  0  0  0  0  0  0  0  0
    3.1838   -1.9017    0.8923 H   0  0  0  0  0  0  0  0  0  0  0  0
    2.1570   -2.9555    2.3731 O   0  0  0  0  0  0  0  0  0  0  0  0
    3.2433   -2.7156    3.2413 C   0  0  0  0  0  0  0  0  0  0  0  0
    3.1799   -3.4263    4.0906 H   0  0  0  0  0  0  0  0  0  0  0  0
    3.2121   -1.6862    3.6624 H   0  0  0  0  0  0  0  0  0  0  0  0
    4.2124   -2.8950    2.7256 H   0  0  0  0  0  0  0  0  0  0  0  0
    1.2229   -2.5306    0.2022 C   0  0  2  0  0  0  0  0  0  0  0  0
    0.2193   -2.7204    0.6473 H   0  0  0  0  0  0  0  0  0  0  0  0
    1.7460   -3.7871   -0.3283 N   0  0  0  0  0  0  0  0  0  0  0  0
    1.1041   -4.4488   -1.1450 N   0  3  0  0  0  0  0  0  0  0  0  0
    0.4631   -5.1092   -1.9609 N   0  5  0  0  0  0  0  0  0  0  0  0
  1  2  1  0  0  0  0
  2  3  1  0  0  0  0
  3  4  1  6  0  0  0
  3  5  1  0  0  0  0
  5  6  1  1  0  0  0
  5  7  1  0  0  0  0
  7  8  1  0  0  0  0
  8  9  1  6  0  0  0
  8 10  1  0  0  0  0
  8 24  1  0  0  0  0
 10 11  1  0  0  0  0
 10 12  1  0  0  0  0
 10 13  1  0  0  0  0
 13 14  2  0  0  0  0
 14 15  1  0  0  0  0
 14 16  1  0  0  0  0
 16 17  1  0  0  0  0
 16 18  2  0  0  0  0
 18 19  1  0  0  0  0
 18 20  1  0  0  0  0
 20 21  1  0  0  0  0
 20 22  2  0  0  0  0
 22 23  1  0  0  0  0
 22 13  1  0  0  0  0
 24 25  1  0  0  0  0
 25 26  1  0  0  0  0
 25 27  1  0  0  0  0
 25 28  1  0  0  0  0
 28 29  1  6  0  0  0
 28 30  1  0  0  0  0
 28  5  1  0  0  0  0
 30 31  1  0  0  0  0
 31 32  1  6  0  0  0
 31 33  1  0  0  0  0
 31 38  1  0  0  0  0
 33 34  1  0  0  0  0
 34 35  1  0  0  0  0
 34 36  1  0  0  0  0
 34 37  1  0  0  0  0
 38 39  1  1  0  0  0
 38 40  1  0  0  0  0
 38  3  1  0  0  0  0
 40 41  2  0  0  0  0
 41 42  2  0  0  0  0
M  CHG  2  41   1  42  -1
M  END
>  <UniqueID>
281

>  <SMILES>
CO[C@@H]1O[C@@H]2CO[C@H](Cc3ccccc3)O[C@H]2[C@@H](O)[C@H]1N=[N+]=[N-]

>  <Energy>
54.385977310296745

>  <Genealogy>
CO[C@@H]1O[C@@H]2CO[C@H](Cc3ccccc3)O[C@H]2[C@@H](O)[C@H]1N=[N+]=[N-] (cis-trans isomerization)
CO[C@@H]1O[C@@H]2CO[C@H](Cc3ccccc3)O[C@H]2[C@@H](O)[C@H]1N=[N+]=[N-] (3D coordinates assigned)
CO[C@@H]1O[C@@H]2CO[C@H](Cc3ccccc3)O[C@H]2[C@@H](O)[C@H]1N=[N+]=[N-] (nonaromatic ring conformer: 54.385977310296745 kcal/mol)

$$$$
ZINC000257346492
 OpenBabel03032110343D

 42 44  0  0  0  0  0  0  0  0999 V2000
   -0.7850   -3.4456    1.0125 H   0  0  0  0  0  0  0  0  0  0  0  0
   -0.6755   -2.5059    0.7108 O   0  0  0  0  0  0  0  0  0  0  0  0
    0.5496   -2.0521    1.2289 C   0  0  2  0  0  0  0  0  0  0  0  0
    0.6037   -2.3378    2.3072 H   0  0  0  0  0  0  0  0  0  0  0  0
    0.6336   -0.5060    1.1607 C   0  0  2  0  0  0  0  0  0  0  0  0
    0.4787   -0.1384    2.2037 H   0  0  0  0  0  0  0  0  0  0  0  0
   -0.3789    0.0591    0.3462 O   0  0  0  0  0  0  0  0  0  0  0  0
   -0.1299    1.4402    0.0566 C   0  0  1  0  0  0  0  0  0  0  0  0
    0.2752    1.5236   -0.9795 H   0  0  0  0  0  0  0  0  0  0  0  0
   -1.4548    2.2051    0.0996 C   0  0  0  0  0  0  0  0  0  0  0  0
   -1.8908    2.1317    1.1203 H   0  0  0  0  0  0  0  0  0  0  0  0
   -1.2639    3.2831   -0.0969 H   0  0  0  0  0  0  0  0  0  0  0  0
   -2.4278    1.6720   -0.9204 C   0  0  0  0  0  0  0  0  0  0  0  0
   -3.3461    0.6677   -0.5693 C   0  0  0  0  0  0  0  0  0  0  0  0
   -3.3800    0.2850    0.4433 H   0  0  0  0  0  0  0  0  0  0  0  0
   -4.2221    0.1485   -1.5275 C   0  0  0  0  0  0  0  0  0  0  0  0
   -4.9290   -0.6234   -1.2518 H   0  0  0  0  0  0  0  0  0  0  0  0
   -4.1831    0.6216   -2.8420 C   0  0  0  0  0  0  0  0  0  0  0  0
   -4.8610    0.2176   -3.5828 H   0  0  0  0  0  0  0  0  0  0  0  0
   -3.2651    1.6123   -3.2015 C   0  0  0  0  0  0  0  0  0  0  0  0
   -3.2316    1.9735   -4.2213 H   0  0  0  0  0  0  0  0  0  0  0  0
   -2.3867    2.1339   -2.2466 C   0  0  0  0  0  0  0  0  0  0  0  0
   -1.6735    2.8942   -2.5400 H   0  0  0  0  0  0  0  0  0  0  0  0
    0.7756    2.0517    0.9738 O   0  0  0  0  0  0  0  0  0  0  0  0
    2.0720    1.4743    0.8743 C   0  0  0  0  0  0  0  0  0  0  0  0
    2.6336    1.9534    0.0424 H   0  0  0  0  0  0  0  0  0  0  0  0
    2.6182    1.6996    1.8151 H   0  0  0  0  0  0  0  0  0  0  0  0
    2.0111   -0.0478    0.6720 C   0  0  1  0  0  0  0  0  0  0  0  0
    2.1203   -0.2267   -0.4235 H   0  0  0  0  0  0  0  0  0  0  0  0
    3.0152   -0.7270    1.3921 O   0  0  0  0  0  0  0  0  0  0  0  0
    3.1046   -2.0988    0.9937 C   0  0  1  0  0  0  0  0  0  0  0  0
    3.8156   -2.1686    0.1344 H   0  0  0  0  0  0  0  0  0  0  0  0
    3.5865   -2.8551    2.0902 O   0  0  0  0  0  0  0  0  0  0  0  0
    4.9696   -2.6372    2.2690 C   0  0  0  0  0  0  0  0  0  0  0  0
    5.2985   -3.1840    3.1764 H   0  0  0  0  0  0  0  0  0  0  0  0
    5.1986   -1.5599    2.4255 H   0  0  0  0  0  0  0  0  0  0  0  0
    5.5497   -3.0369    1.4082 H   0  0  0  0  0  0  0  0  0  0  0  0
    1.7508   -2.7382    0.5284 C   0  0  2  0  0  0  0  0  0  0  0  0
    1.7549   -3.8182    0.8022 H   0  0  0  0  0  0  0  0  0  0  0  0
    1.6374   -2.6467   -0.9291 N   0  0  0  0  0  0  0  0  0  0  0  0
    0.7922   -3.2902   -1.5525 N   0  3  0  0  0  0  0  0  0  0  0  0
   -0.0514   -3.9325   -2.1758 N   0  5  0  0  0  0  0  0  0  0  0  0
  1  2  1  0  0  0  0
  2  3  1  0  0  0  0
  3  4  1  1  0  0  0
  3  5  1  0  0  0  0
  5  6  1  1  0  0  0
  5  7  1  0  0  0  0
  7  8  1  0  0  0  0
  8  9  1  6  0  0  0
  8 10  1  0  0  0  0
  8 24  1  0  0  0  0
 10 11  1  0  0  0  0
 10 12  1  0  0  0  0
 10 13  1  0  0  0  0
 13 14  2  0  0  0  0
 14 15  1  0  0  0  0
 14 16  1  0  0  0  0
 16 17  1  0  0  0  0
 16 18  2  0  0  0  0
 18 19  1  0  0  0  0
 18 20  1  0  0  0  0
 20 21  1  0  0  0  0
 20 22  2  0  0  0  0
 22 23  1  0  0  0  0
 22 13  1  0  0  0  0
 24 25  1  0  0  0  0
 25 26  1  0  0  0  0
 25 27  1  0  0  0  0
 25 28  1  0  0  0  0
 28 29  1  6  0  0  0
 28 30  1  0  0  0  0
 28  5  1  0  0  0  0
 30 31  1  0  0  0  0
 31 32  1  6  0  0  0
 31 33  1  0  0  0  0
 31 38  1  0  0  0  0
 33 34  1  0  0  0  0
 34 35  1  0  0  0  0
 34 36  1  0  0  0  0
 34 37  1  0  0  0  0
 38 39  1  1  0  0  0
 38 40  1  0  0  0  0
 38  3  1  0  0  0  0
 40 41  2  0  0  0  0
 41 42  2  0  0  0  0
M  CHG  2  41   1  42  -1
M  END
>  <UniqueID>
282

>  <SMILES>
CO[C@@H]1O[C@@H]2CO[C@H](Cc3ccccc3)O[C@H]2[C@@H](O)[C@H]1N=[N+]=[N-]

>  <Energy>
69.32050242159204

>  <Genealogy>
CO[C@@H]1O[C@@H]2CO[C@H](Cc3ccccc3)O[C@H]2[C@@H](O)[C@H]1N=[N+]=[N-] (cis-trans isomerization)
CO[C@@H]1O[C@@H]2CO[C@H](Cc3ccccc3)O[C@H]2[C@@H](O)[C@H]1N=[N+]=[N-] (3D coordinates assigned)
CO[C@@H]1O[C@@H]2CO[C@H](Cc3ccccc3)O[C@H]2[C@@H](O)[C@H]1N=[N+]=[N-] (nonaromatic ring conformer: 69.32050242159204 kcal/mol)

$$$$
ZINC000257346903
 OpenBabel03032110343D

 49 50  0  0  0  0  0  0  0  0999 V2000
    3.5459   -0.9370   -0.9163 H   0  0  0  0  0  0  0  0  0  0  0  0
    2.5716   -1.0263   -0.6590 O   0  0  0  0  0  0  0  0  0  0  0  0
    1.8526    0.0154   -0.0664 C   0  0  0  0  0  0  0  0  0  0  0  0
    0.6413   -0.1946    0.3560 N   0  0  0  0  0  0  0  0  0  0  0  0
   -0.0683   -1.4703    0.2489 C   0  0  2  0  0  0  0  0  0  0  0  0
    0.6201   -2.3036    0.5207 H   0  0  0  0  0  0  0  0  0  0  0  0
   -0.5900   -1.6861   -1.1877 C   0  0  2  0  0  0  0  0  0  0  0  0
    0.2921   -1.8865   -1.8402 H   0  0  0  0  0  0  0  0  0  0  0  0
   -1.3470   -0.5546   -1.5866 O   0  0  0  0  0  0  0  0  0  0  0  0
   -0.7531    0.0845   -3.0430 S   0  0  0  0  0  0  0  0  0  0  0  0
    0.6652    0.5517   -2.8724 O   0  0  0  0  0  0  0  0  0  0  0  0
   -0.8186   -0.9460   -4.1354 O   0  0  0  0  0  0  0  0  0  0  0  0
   -1.7631    1.4733   -3.5006 C   0  0  0  0  0  0  0  0  0  0  0  0
   -1.3918    1.9064   -4.4523 H   0  0  0  0  0  0  0  0  0  0  0  0
   -1.7177    2.2425   -2.7023 H   0  0  0  0  0  0  0  0  0  0  0  0
   -2.8133    1.1402   -3.6311 H   0  0  0  0  0  0  0  0  0  0  0  0
   -1.4860   -2.9415   -1.2174 C   0  0  2  0  0  0  0  0  0  0  0  0
   -0.8506   -3.8393   -1.0236 H   0  0  0  0  0  0  0  0  0  0  0  0
   -2.1066   -3.0608   -2.4718 O   0  0  0  0  0  0  0  0  0  0  0  0
   -1.4279   -3.4361   -3.0916 H   0  0  0  0  0  0  0  0  0  0  0  0
   -2.5573   -2.8580   -0.1041 C   0  0  1  0  0  0  0  0  0  0  0  0
   -3.2417   -1.9998   -0.3039 H   0  0  0  0  0  0  0  0  0  0  0  0
   -3.4192   -4.1290   -0.0819 C   0  0  0  0  0  0  0  0  0  0  0  0
   -3.9081   -4.2689   -1.0692 H   0  0  0  0  0  0  0  0  0  0  0  0
   -2.7858   -5.0254    0.1128 H   0  0  0  0  0  0  0  0  0  0  0  0
   -4.4260   -4.0191    0.8884 O   0  0  0  0  0  0  0  0  0  0  0  0
   -4.0106   -4.2492    1.7603 H   0  0  0  0  0  0  0  0  0  0  0  0
   -1.9352   -2.7149    1.1622 O   0  0  0  0  0  0  0  0  0  0  0  0
   -1.2419   -1.4808    1.2449 C   0  0  1  0  0  0  0  0  0  0  0  0
   -1.9192   -0.6241    0.9989 H   0  0  0  0  0  0  0  0  0  0  0  0
   -0.7144   -1.3414    2.5514 O   0  0  0  0  0  0  0  0  0  0  0  0
   -1.7047   -0.8909    3.4568 C   0  0  0  0  0  0  0  0  0  0  0  0
   -1.5036   -1.3562    4.4447 H   0  0  0  0  0  0  0  0  0  0  0  0
   -2.7412   -1.1897    3.1709 H   0  0  0  0  0  0  0  0  0  0  0  0
   -1.6192    0.6231    3.6178 C   0  0  0  0  0  0  0  0  0  0  0  0
   -0.5983    0.9127    3.9460 H   0  0  0  0  0  0  0  0  0  0  0  0
   -2.3519    0.9603    4.3809 H   0  0  0  0  0  0  0  0  0  0  0  0
   -1.8468    1.1285    2.6561 H   0  0  0  0  0  0  0  0  0  0  0  0
    2.4520    1.3621    0.0944 C   0  0  0  0  0  0  0  0  0  0  0  0
    3.4593    1.8133   -0.7790 C   0  0  0  0  0  0  0  0  0  0  0  0
    3.8060    1.1971   -1.5974 H   0  0  0  0  0  0  0  0  0  0  0  0
    4.0101    3.0895   -0.6250 C   0  0  0  0  0  0  0  0  0  0  0  0
    4.7822    3.4300   -1.3029 H   0  0  0  0  0  0  0  0  0  0  0  0
    3.5604    3.9297    0.3958 C   0  0  0  0  0  0  0  0  0  0  0  0
    3.9880    4.9172    0.5120 H   0  0  0  0  0  0  0  0  0  0  0  0
    2.5544    3.4978    1.2624 C   0  0  0  0  0  0  0  0  0  0  0  0
    2.2040    4.1509    2.0513 H   0  0  0  0  0  0  0  0  0  0  0  0
    1.9990    2.2236    1.1128 C   0  0  0  0  0  0  0  0  0  0  0  0
    1.2230    1.9084    1.7997 H   0  0  0  0  0  0  0  0  0  0  0  0
  1  2  1  0  0  0  0
  2  3  1  0  0  0  0
  3  4  2  0  0  0  0
  3 39  1  0  0  0  0
  4  5  1  0  0  0  0
  5  6  1  1  0  0  0
  5  7  1  0  0  0  0
  7  8  1  6  0  0  0
  7  9  1  0  0  0  0
  7 17  1  0  0  0  0
  9 10  1  0  0  0  0
 10 11  2  0  0  0  0
 10 12  2  0  0  0  0
 10 13  1  0  0  0  0
 13 14  1  0  0  0  0
 13 15  1  0  0  0  0
 13 16  1  0  0  0  0
 17 18  1  1  0  0  0
 17 19  1  0  0  0  0
 17 21  1  0  0  0  0
 19 20  1  0  0  0  0
 21 22  1  6  0  0  0
 21 23  1  0  0  0  0
 21 28  1  0  0  0  0
 23 24  1  0  0  0  0
 23 25  1  0  0  0  0
 23 26  1  0  0  0  0
 26 27  1  0  0  0  0
 28 29  1  0  0  0  0
 29 30  1  6  0  0  0
 29 31  1  0  0  0  0
 29  5  1  0  0  0  0
 31 32  1  0  0  0  0
 32 33  1  0  0  0  0
 32 34  1  0  0  0  0
 32 35  1  0  0  0  0
 35 36  1  0  0  0  0
 35 37  1  0  0  0  0
 35 38  1  0  0  0  0
 39 40  2  0  0  0  0
 40 41  1  0  0  0  0
 40 42  1  0  0  0  0
 42 43  1  0  0  0  0
 42 44  2  0  0  0  0
 44 45  1  0  0  0  0
 44 46  1  0  0  0  0
 46 47  1  0  0  0  0
 46 48  2  0  0  0  0
 48 49  1  0  0  0  0
 48 39  1  0  0  0  0
M  END
>  <UniqueID>
283

>  <SMILES>
CCO[C@@H]1O[C@H](CO)[C@@H](O)[C@@H](OS(C)(=O)=O)[C@H]1/N=C(\O)c1ccccc1

>  <Energy>
46.89634601746903

>  <Genealogy>
CCO[C@@H]1O[C@H](CO)[C@@H](O)[C@@H](OS(C)(=O)=O)[C@H]1N=C(O)c1ccccc1 (tautomer)
CCO[C@@H]1O[C@H](CO)[C@@H](O)[C@@H](OS(C)(=O)=O)[C@H]1/N=C(\O)c1ccccc1 (cis-trans isomerization)
CCO[C@@H]1O[C@H](CO)[C@@H](O)[C@@H](OS(C)(=O)=O)[C@H]1/N=C(\O)c1ccccc1 (3D coordinates assigned)
CCO[C@@H]1O[C@H](CO)[C@@H](O)[C@@H](OS(C)(=O)=O)[C@H]1/N=C(\O)c1ccccc1 (nonaromatic ring conformer: 46.89634601746903 kcal/mol)

$$$$
ZINC000257346903
 OpenBabel03032110343D

 49 50  0  0  0  0  0  0  0  0999 V2000
    0.9772   -0.5025    2.4114 H   0  0  0  0  0  0  0  0  0  0  0  0
    0.6211   -0.2804    1.4910 O   0  0  0  0  0  0  0  0  0  0  0  0
    1.4554   -0.0358    0.3994 C   0  0  0  0  0  0  0  0  0  0  0  0
    0.9567    0.1100   -0.7960 N   0  0  0  0  0  0  0  0  0  0  0  0
   -0.4506    0.0504   -1.2176 C   0  0  2  0  0  0  0  0  0  0  0  0
   -0.4367    0.0397   -2.3309 H   0  0  0  0  0  0  0  0  0  0  0  0
   -1.2533    1.3020   -0.8015 C   0  0  2  0  0  0  0  0  0  0  0  0
   -0.8043    2.1688   -1.3410 H   0  0  0  0  0  0  0  0  0  0  0  0
   -1.2393    1.4479    0.6076 O   0  0  0  0  0  0  0  0  0  0  0  0
   -0.8267    3.0373    1.0490 S   0  0  0  0  0  0  0  0  0  0  0  0
   -1.6230    4.0371    0.2564 O   0  0  0  0  0  0  0  0  0  0  0  0
   -1.1374    3.2235    2.5069 O   0  0  0  0  0  0  0  0  0  0  0  0
    0.9120    3.3299    0.7998 C   0  0  0  0  0  0  0  0  0  0  0  0
    1.1399    4.3968    1.0007 H   0  0  0  0  0  0  0  0  0  0  0  0
    1.4970    2.6976    1.4971 H   0  0  0  0  0  0  0  0  0  0  0  0
    1.1933    3.0866   -0.2450 H   0  0  0  0  0  0  0  0  0  0  0  0
   -2.7088    1.1363   -1.2894 C   0  0  2  0  0  0  0  0  0  0  0  0
   -2.6964    1.1875   -2.4055 H   0  0  0  0  0  0  0  0  0  0  0  0
   -3.5012    2.1718   -0.7644 O   0  0  0  0  0  0  0  0  0  0  0  0
   -4.1798    2.4008   -1.4518 H   0  0  0  0  0  0  0  0  0  0  0  0
   -3.2685   -0.2445   -0.8532 C   0  0  1  0  0  0  0  0  0  0  0  0
   -3.3122   -0.2897    0.2606 H   0  0  0  0  0  0  0  0  0  0  0  0
   -4.7063   -0.4601   -1.3528 C   0  0  0  0  0  0  0  0  0  0  0  0
   -5.0757   -1.4544   -1.0114 H   0  0  0  0  0  0  0  0  0  0  0  0
   -5.3792    0.3033   -0.9087 H   0  0  0  0  0  0  0  0  0  0  0  0
   -4.7787   -0.3686   -2.7511 O   0  0  0  0  0  0  0  0  0  0  0  0
   -4.4483   -1.2323   -3.1119 H   0  0  0  0  0  0  0  0  0  0  0  0
   -2.4555   -1.2938   -1.3563 O   0  0  0  0  0  0  0  0  0  0  0  0
   -1.1616   -1.2476   -0.7771 C   0  0  1  0  0  0  0  0  0  0  0  0
   -1.2404   -1.2729    0.3348 H   0  0  0  0  0  0  0  0  0  0  0  0
   -0.4072   -2.3484   -1.2493 O   0  0  0  0  0  0  0  0  0  0  0  0
   -0.7667   -3.5416   -0.5777 C   0  0  0  0  0  0  0  0  0  0  0  0
   -1.8194   -3.5482   -0.2078 H   0  0  0  0  0  0  0  0  0  0  0  0
   -0.6812   -4.3801   -1.3007 H   0  0  0  0  0  0  0  0  0  0  0  0
    0.1952   -3.8084    0.5747 C   0  0  0  0  0  0  0  0  0  0  0  0
    0.0894   -3.0274    1.3555 H   0  0  0  0  0  0  0  0  0  0  0  0
    1.2420   -3.8120    0.2035 H   0  0  0  0  0  0  0  0  0  0  0  0
   -0.0296   -4.7966    1.0284 H   0  0  0  0  0  0  0  0  0  0  0  0
    2.9253    0.0533    0.5808 C   0  0  0  0  0  0  0  0  0  0  0  0
    3.4794    0.4497    1.8130 C   0  0  0  0  0  0  0  0  0  0  0  0
    2.8484    0.7192    2.6490 H   0  0  0  0  0  0  0  0  0  0  0  0
    4.8661    0.5372    1.9707 C   0  0  0  0  0  0  0  0  0  0  0  0
    5.2833    0.8468    2.9203 H   0  0  0  0  0  0  0  0  0  0  0  0
    5.7143    0.2342    0.9038 C   0  0  0  0  0  0  0  0  0  0  0  0
    6.7873    0.3032    1.0286 H   0  0  0  0  0  0  0  0  0  0  0  0
    5.1777   -0.1524   -0.3257 C   0  0  0  0  0  0  0  0  0  0  0  0
    5.8358   -0.3851   -1.1529 H   0  0  0  0  0  0  0  0  0  0  0  0
    3.7921   -0.2401   -0.4900 C   0  0  0  0  0  0  0  0  0  0  0  0
    3.3993   -0.5484   -1.4511 H   0  0  0  0  0  0  0  0  0  0  0  0
  1  2  1  0  0  0  0
  2  3  1  0  0  0  0
  3  4  2  0  0  0  0
  3 39  1  0  0  0  0
  4  5  1  0  0  0  0
  5  6  1  6  0  0  0
  5  7  1  0  0  0  0
  7  8  1  6  0  0  0
  7  9  1  0  0  0  0
  7 17  1  0  0  0  0
  9 10  1  0  0  0  0
 10 11  2  0  0  0  0
 10 12  2  0  0  0  0
 10 13  1  0  0  0  0
 13 14  1  0  0  0  0
 13 15  1  0  0  0  0
 13 16  1  0  0  0  0
 17 18  1  6  0  0  0
 17 19  1  0  0  0  0
 17 21  1  0  0  0  0
 19 20  1  0  0  0  0
 21 22  1  1  0  0  0
 21 23  1  0  0  0  0
 21 28  1  0  0  0  0
 23 24  1  0  0  0  0
 23 25  1  0  0  0  0
 23 26  1  0  0  0  0
 26 27  1  0  0  0  0
 28 29  1  0  0  0  0
 29 30  1  1  0  0  0
 29 31  1  0  0  0  0
 29  5  1  0  0  0  0
 31 32  1  0  0  0  0
 32 33  1  0  0  0  0
 32 34  1  0  0  0  0
 32 35  1  0  0  0  0
 35 36  1  0  0  0  0
 35 37  1  0  0  0  0
 35 38  1  0  0  0  0
 39 40  2  0  0  0  0
 40 41  1  0  0  0  0
 40 42  1  0  0  0  0
 42 43  1  0  0  0  0
 42 44  2  0  0  0  0
 44 45  1  0  0  0  0
 44 46  1  0  0  0  0
 46 47  1  0  0  0  0
 46 48  2  0  0  0  0
 48 49  1  0  0  0  0
 48 39  1  0  0  0  0
M  END
>  <UniqueID>
284

>  <SMILES>
CCO[C@@H]1O[C@H](CO)[C@@H](O)[C@@H](OS(C)(=O)=O)[C@H]1/N=C(/O)c1ccccc1

>  <Energy>
51.488135597339806

>  <Genealogy>
CCO[C@@H]1O[C@H](CO)[C@@H](O)[C@@H](OS(C)(=O)=O)[C@H]1N=C(O)c1ccccc1 (tautomer)
CCO[C@@H]1O[C@H](CO)[C@@H](O)[C@@H](OS(C)(=O)=O)[C@H]1/N=C(/O)c1ccccc1 (cis-trans isomerization)
CCO[C@@H]1O[C@H](CO)[C@@H](O)[C@@H](OS(C)(=O)=O)[C@H]1/N=C(/O)c1ccccc1 (3D coordinates assigned)
CCO[C@@H]1O[C@H](CO)[C@@H](O)[C@@H](OS(C)(=O)=O)[C@H]1/N=C(/O)c1ccccc1 (nonaromatic ring conformer: 51.488135597339806 kcal/mol)

$$$$
ZINC000257347638
 OpenBabel03032110343D

 57 60  0  0  0  0  0  0  0  0999 V2000
   -3.2425   -0.2223    1.6336 H   0  0  0  0  0  0  0  0  0  0  0  0
   -2.2507   -0.4247    1.6460 O   0  0  0  0  0  0  0  0  0  0  0  0
   -1.7468   -1.7215    1.5012 C   0  0  0  0  0  0  0  0  0  0  0  0
   -0.4670   -1.9055    1.3628 N   0  0  0  0  0  0  0  0  0  0  0  0
    0.5259   -0.8298    1.3370 C   0  0  2  0  0  0  0  0  0  0  0  0
    0.2636   -0.0639    2.1033 H   0  0  0  0  0  0  0  0  0  0  0  0
    0.5701   -0.1578   -0.0563 C   0  0  2  0  0  0  0  0  0  0  0  0
   -0.3769    0.4169   -0.1780 H   0  0  0  0  0  0  0  0  0  0  0  0
    0.7535   -1.1506   -1.0522 O   0  0  0  0  0  0  0  0  0  0  0  0
   -0.2986   -0.9021   -2.3655 S   0  0  0  0  0  0  0  0  0  0  0  0
    0.1603   -1.7632   -3.5078 O   0  0  0  0  0  0  0  0  0  0  0  0
   -0.2782    0.5351   -2.8119 O   0  0  0  0  0  0  0  0  0  0  0  0
   -1.9638   -1.3672   -1.9434 C   0  0  0  0  0  0  0  0  0  0  0  0
   -1.9739   -2.4174   -1.5905 H   0  0  0  0  0  0  0  0  0  0  0  0
   -2.6105   -1.2783   -2.8392 H   0  0  0  0  0  0  0  0  0  0  0  0
   -2.3568   -0.7028   -1.1487 H   0  0  0  0  0  0  0  0  0  0  0  0
    1.7448    0.8381   -0.0806 C   0  0  2  0  0  0  0  0  0  0  0  0
    1.4978    1.6627    0.6296 H   0  0  0  0  0  0  0  0  0  0  0  0
    1.9113    1.3855   -1.3745 O   0  0  0  0  0  0  0  0  0  0  0  0
    3.1242    2.1304   -1.5033 C   0  0  1  0  0  0  0  0  0  0  0  0
    3.8068    1.5509   -2.1693 H   0  0  0  0  0  0  0  0  0  0  0  0
    2.8389    3.4496   -2.1736 C   0  0  0  0  0  0  0  0  0  0  0  0
    3.8231    4.0537   -2.9797 C   0  0  0  0  0  0  0  0  0  0  0  0
    4.7712    3.5597   -3.1534 H   0  0  0  0  0  0  0  0  0  0  0  0
    3.5870    5.2998   -3.5677 C   0  0  0  0  0  0  0  0  0  0  0  0
    4.3452    5.7560   -4.1916 H   0  0  0  0  0  0  0  0  0  0  0  0
    2.3703    5.9562   -3.3527 C   0  0  0  0  0  0  0  0  0  0  0  0
    2.1875    6.9177   -3.8142 H   0  0  0  0  0  0  0  0  0  0  0  0
    1.3980    5.3778   -2.5314 C   0  0  0  0  0  0  0  0  0  0  0  0
    0.4620    5.8935   -2.3556 H   0  0  0  0  0  0  0  0  0  0  0  0
    1.6338    4.1360   -1.9336 C   0  0  0  0  0  0  0  0  0  0  0  0
    0.8728    3.7113   -1.2903 H   0  0  0  0  0  0  0  0  0  0  0  0
    3.7684    2.3883   -0.2618 O   0  0  0  0  0  0  0  0  0  0  0  0
    4.1809    1.1697    0.3305 C   0  0  0  0  0  0  0  0  0  0  0  0
    5.0544    0.7559   -0.2209 H   0  0  0  0  0  0  0  0  0  0  0  0
    4.5306    1.3944    1.3606 H   0  0  0  0  0  0  0  0  0  0  0  0
    3.0369    0.1396    0.3793 C   0  0  1  0  0  0  0  0  0  0  0  0
    3.2946   -0.6815   -0.3310 H   0  0  0  0  0  0  0  0  0  0  0  0
    2.8839   -0.3653    1.6931 O   0  0  0  0  0  0  0  0  0  0  0  0
    1.9116   -1.4018    1.7086 C   0  0  1  0  0  0  0  0  0  0  0  0
    2.1698   -2.2060    0.9740 H   0  0  0  0  0  0  0  0  0  0  0  0
    1.8317   -1.9475    3.0118 O   0  0  0  0  0  0  0  0  0  0  0  0
    2.9888   -2.7038    3.2943 C   0  0  0  0  0  0  0  0  0  0  0  0
    2.9273   -3.0649    4.3417 H   0  0  0  0  0  0  0  0  0  0  0  0
    3.9148   -2.0917    3.2052 H   0  0  0  0  0  0  0  0  0  0  0  0
    3.0505   -3.5982    2.6340 H   0  0  0  0  0  0  0  0  0  0  0  0
   -2.6541   -2.8953    1.4997 C   0  0  0  0  0  0  0  0  0  0  0  0
   -3.8962   -2.8476    2.1611 C   0  0  0  0  0  0  0  0  0  0  0  0
   -4.2092   -1.9624    2.6986 H   0  0  0  0  0  0  0  0  0  0  0  0
   -4.7411   -3.9623    2.1645 C   0  0  0  0  0  0  0  0  0  0  0  0
   -5.6922   -3.9186    2.6801 H   0  0  0  0  0  0  0  0  0  0  0  0
   -4.3562   -5.1359    1.5139 C   0  0  0  0  0  0  0  0  0  0  0  0
   -5.0102   -5.9984    1.5202 H   0  0  0  0  0  0  0  0  0  0  0  0
   -3.1216   -5.2004    0.8624 C   0  0  0  0  0  0  0  0  0  0  0  0
   -2.8201   -6.1127    0.3629 H   0  0  0  0  0  0  0  0  0  0  0  0
   -2.2727   -4.0892    0.8573 C   0  0  0  0  0  0  0  0  0  0  0  0
   -1.3232   -4.1596    0.3411 H   0  0  0  0  0  0  0  0  0  0  0  0
  1  2  1  0  0  0  0
  2  3  1  0  0  0  0
  3  4  2  0  0  0  0
  3 47  1  0  0  0  0
  4  5  1  0  0  0  0
  5  6  1  1  0  0  0
  5  7  1  0  0  0  0
  7  8  1  6  0  0  0
  7  9  1  0  0  0  0
  7 17  1  0  0  0  0
  9 10  1  0  0  0  0
 10 11  2  0  0  0  0
 10 12  2  0  0  0  0
 10 13  1  0  0  0  0
 13 14  1  0  0  0  0
 13 15  1  0  0  0  0
 13 16  1  0  0  0  0
 17 18  1  1  0  0  0
 17 19  1  0  0  0  0
 19 20  1  0  0  0  0
 20 21  1  6  0  0  0
 20 22  1  0  0  0  0
 20 33  1  0  0  0  0
 22 23  2  0  0  0  0
 23 24  1  0  0  0  0
 23 25  1  0  0  0  0
 25 26  1  0  0  0  0
 25 27  2  0  0  0  0
 27 28  1  0  0  0  0
 27 29  1  0  0  0  0
 29 30  1  0  0  0  0
 29 31  2  0  0  0  0
 31 32  1  0  0  0  0
 31 22  1  0  0  0  0
 33 34  1  0  0  0  0
 34 35  1  0  0  0  0
 34 36  1  0  0  0  0
 34 37  1  0  0  0  0
 37 38  1  6  0  0  0
 37 39  1  0  0  0  0
 37 17  1  0  0  0  0
 39 40  1  0  0  0  0
 40 41  1  6  0  0  0
 40 42  1  0  0  0  0
 40  5  1  0  0  0  0
 42 43  1  0  0  0  0
 43 44  1  0  0  0  0
 43 45  1  0  0  0  0
 43 46  1  0  0  0  0
 47 48  2  0  0  0  0
 48 49  1  0  0  0  0
 48 50  1  0  0  0  0
 50 51  1  0  0  0  0
 50 52  2  0  0  0  0
 52 53  1  0  0  0  0
 52 54  1  0  0  0  0
 54 55  1  0  0  0  0
 54 56  2  0  0  0  0
 56 57  1  0  0  0  0
 56 47  1  0  0  0  0
M  END
>  <UniqueID>
285

>  <SMILES>
CO[C@@H]1O[C@@H]2CO[C@H](c3ccccc3)O[C@H]2[C@@H](OS(C)(=O)=O)[C@H]1/N=C(/O)c1ccccc1

>  <Energy>
75.58421494002728

>  <Genealogy>
CO[C@@H]1O[C@@H]2CO[C@H](c3ccccc3)O[C@H]2[C@@H](OS(C)(=O)=O)[C@H]1N=C(O)c1ccccc1 (tautomer)
CO[C@@H]1O[C@@H]2CO[C@H](c3ccccc3)O[C@H]2[C@@H](OS(C)(=O)=O)[C@H]1/N=C(/O)c1ccccc1 (cis-trans isomerization)
CO[C@@H]1O[C@@H]2CO[C@H](c3ccccc3)O[C@H]2[C@@H](OS(C)(=O)=O)[C@H]1/N=C(/O)c1ccccc1 (3D coordinates assigned)
CO[C@@H]1O[C@@H]2CO[C@H](c3ccccc3)O[C@H]2[C@@H](OS(C)(=O)=O)[C@H]1/N=C(/O)c1ccccc1 (nonaromatic ring conformer: 75.58421494002728 kcal/mol)

$$$$
ZINC000257347638
 OpenBabel03032110343D

 57 60  0  0  0  0  0  0  0  0999 V2000
   -4.2614   -0.4124    0.7149 H   0  0  0  0  0  0  0  0  0  0  0  0
   -3.3524   -0.6536    1.0884 O   0  0  0  0  0  0  0  0  0  0  0  0
   -2.4491   -1.4644    0.3958 C   0  0  0  0  0  0  0  0  0  0  0  0
   -1.2458   -1.6379    0.8581 N   0  0  0  0  0  0  0  0  0  0  0  0
   -0.7047   -1.0132    2.0713 C   0  0  2  0  0  0  0  0  0  0  0  0
   -1.5229   -0.9234    2.8223 H   0  0  0  0  0  0  0  0  0  0  0  0
   -0.1572    0.4001    1.7571 C   0  0  2  0  0  0  0  0  0  0  0  0
    0.0520    0.8499    2.7582 H   0  0  0  0  0  0  0  0  0  0  0  0
   -1.1310    1.1410    1.0464 O   0  0  0  0  0  0  0  0  0  0  0  0
   -1.0618    2.7783    1.4868 S   0  0  0  0  0  0  0  0  0  0  0  0
    0.3478    3.2969    1.4146 O   0  0  0  0  0  0  0  0  0  0  0  0
   -1.5958    2.9561    2.8802 O   0  0  0  0  0  0  0  0  0  0  0  0
   -2.0700    3.7054    0.3548 C   0  0  0  0  0  0  0  0  0  0  0  0
   -1.6546    3.6141   -0.6699 H   0  0  0  0  0  0  0  0  0  0  0  0
   -3.1052    3.3058    0.3683 H   0  0  0  0  0  0  0  0  0  0  0  0
   -2.0816    4.7734    0.6550 H   0  0  0  0  0  0  0  0  0  0  0  0
    1.1788    0.3391    0.9666 C   0  0  2  0  0  0  0  0  0  0  0  0
    1.8872    1.0135    1.5047 H   0  0  0  0  0  0  0  0  0  0  0  0
    1.0454    0.8112   -0.3626 O   0  0  0  0  0  0  0  0  0  0  0  0
    2.2042    0.5248   -1.1533 C   0  0  1  0  0  0  0  0  0  0  0  0
    1.9643   -0.3398   -1.8154 H   0  0  0  0  0  0  0  0  0  0  0  0
    2.5066    1.7252   -2.0085 C   0  0  0  0  0  0  0  0  0  0  0  0
    2.7283    2.9773   -1.4079 C   0  0  0  0  0  0  0  0  0  0  0  0
    2.6734    3.0853   -0.3324 H   0  0  0  0  0  0  0  0  0  0  0  0
    3.0158    4.0962   -2.1954 C   0  0  0  0  0  0  0  0  0  0  0  0
    3.1791    5.0580   -1.7282 H   0  0  0  0  0  0  0  0  0  0  0  0
    3.0916    3.9742   -3.5851 C   0  0  0  0  0  0  0  0  0  0  0  0
    3.3135    4.8413   -4.1937 H   0  0  0  0  0  0  0  0  0  0  0  0
    2.8836    2.7318   -4.1898 C   0  0  0  0  0  0  0  0  0  0  0  0
    2.9408    2.6388   -5.2666 H   0  0  0  0  0  0  0  0  0  0  0  0
    2.5946    1.6097   -3.4064 C   0  0  0  0  0  0  0  0  0  0  0  0
    2.4350    0.6554   -3.8915 H   0  0  0  0  0  0  0  0  0  0  0  0
    3.3621    0.2198   -0.3770 O   0  0  0  0  0  0  0  0  0  0  0  0
    3.1776   -0.9743    0.3738 C   0  0  0  0  0  0  0  0  0  0  0  0
    3.9156   -0.9720    1.2040 H   0  0  0  0  0  0  0  0  0  0  0  0
    3.4007   -1.8571   -0.2646 H   0  0  0  0  0  0  0  0  0  0  0  0
    1.7581   -1.0780    0.9525 C   0  0  1  0  0  0  0  0  0  0  0  0
    1.1819   -1.7337    0.2582 H   0  0  0  0  0  0  0  0  0  0  0  0
    1.7466   -1.6017    2.2609 O   0  0  0  0  0  0  0  0  0  0  0  0
    0.4166   -1.9275    2.6763 C   0  0  1  0  0  0  0  0  0  0  0  0
    0.1958   -2.9749    2.3543 H   0  0  0  0  0  0  0  0  0  0  0  0
    0.3486   -1.8223    4.0873 O   0  0  0  0  0  0  0  0  0  0  0  0
    0.9745   -2.9326    4.6943 C   0  0  0  0  0  0  0  0  0  0  0  0
    2.0338   -3.0348    4.3696 H   0  0  0  0  0  0  0  0  0  0  0  0
    0.9741   -2.7808    5.7933 H   0  0  0  0  0  0  0  0  0  0  0  0
    0.4115   -3.8693    4.4853 H   0  0  0  0  0  0  0  0  0  0  0  0
   -2.8396   -2.1282   -0.8704 C   0  0  0  0  0  0  0  0  0  0  0  0
   -1.8637   -2.4421   -1.8365 C   0  0  0  0  0  0  0  0  0  0  0  0
   -0.8230   -2.1897   -1.6736 H   0  0  0  0  0  0  0  0  0  0  0  0
   -2.2262   -3.0707   -3.0316 C   0  0  0  0  0  0  0  0  0  0  0  0
   -1.4705   -3.3037   -3.7709 H   0  0  0  0  0  0  0  0  0  0  0  0
   -3.5617   -3.3984   -3.2731 C   0  0  0  0  0  0  0  0  0  0  0  0
   -3.8401   -3.8875   -4.1977 H   0  0  0  0  0  0  0  0  0  0  0  0
   -4.5375   -3.0991   -2.3195 C   0  0  0  0  0  0  0  0  0  0  0  0
   -5.5709   -3.3623   -2.5043 H   0  0  0  0  0  0  0  0  0  0  0  0
   -4.1813   -2.4686   -1.1230 C   0  0  0  0  0  0  0  0  0  0  0  0
   -4.9535   -2.2733   -0.3909 H   0  0  0  0  0  0  0  0  0  0  0  0
  1  2  1  0  0  0  0
  2  3  1  0  0  0  0
  3  4  2  0  0  0  0
  3 47  1  0  0  0  0
  4  5  1  0  0  0  0
  5  6  1  1  0  0  0
  5  7  1  0  0  0  0
  7  8  1  1  0  0  0
  7  9  1  0  0  0  0
  7 17  1  0  0  0  0
  9 10  1  0  0  0  0
 10 11  2  0  0  0  0
 10 12  2  0  0  0  0
 10 13  1  0  0  0  0
 13 14  1  0  0  0  0
 13 15  1  0  0  0  0
 13 16  1  0  0  0  0
 17 18  1  1  0  0  0
 17 19  1  0  0  0  0
 19 20  1  0  0  0  0
 20 21  1  6  0  0  0
 20 22  1  0  0  0  0
 20 33  1  0  0  0  0
 22 23  2  0  0  0  0
 23 24  1  0  0  0  0
 23 25  1  0  0  0  0
 25 26  1  0  0  0  0
 25 27  2  0  0  0  0
 27 28  1  0  0  0  0
 27 29  1  0  0  0  0
 29 30  1  0  0  0  0
 29 31  2  0  0  0  0
 31 32  1  0  0  0  0
 31 22  1  0  0  0  0
 33 34  1  0  0  0  0
 34 35  1  0  0  0  0
 34 36  1  0  0  0  0
 34 37  1  0  0  0  0
 37 38  1  6  0  0  0
 37 39  1  0  0  0  0
 37 17  1  0  0  0  0
 39 40  1  0  0  0  0
 40 41  1  6  0  0  0
 40 42  1  0  0  0  0
 40  5  1  0  0  0  0
 42 43  1  0  0  0  0
 43 44  1  0  0  0  0
 43 45  1  0  0  0  0
 43 46  1  0  0  0  0
 47 48  2  0  0  0  0
 48 49  1  0  0  0  0
 48 50  1  0  0  0  0
 50 51  1  0  0  0  0
 50 52  2  0  0  0  0
 52 53  1  0  0  0  0
 52 54  1  0  0  0  0
 54 55  1  0  0  0  0
 54 56  2  0  0  0  0
 56 57  1  0  0  0  0
 56 47  1  0  0  0  0
M  END
>  <UniqueID>
286

>  <SMILES>
CO[C@@H]1O[C@@H]2CO[C@H](c3ccccc3)O[C@H]2[C@@H](OS(C)(=O)=O)[C@H]1/N=C(\O)c1ccccc1

>  <Energy>
88.94088292907199

>  <Genealogy>
CO[C@@H]1O[C@@H]2CO[C@H](c3ccccc3)O[C@H]2[C@@H](OS(C)(=O)=O)[C@H]1N=C(O)c1ccccc1 (tautomer)
CO[C@@H]1O[C@@H]2CO[C@H](c3ccccc3)O[C@H]2[C@@H](OS(C)(=O)=O)[C@H]1/N=C(\O)c1ccccc1 (cis-trans isomerization)
CO[C@@H]1O[C@@H]2CO[C@H](c3ccccc3)O[C@H]2[C@@H](OS(C)(=O)=O)[C@H]1/N=C(\O)c1ccccc1 (3D coordinates assigned)
CO[C@@H]1O[C@@H]2CO[C@H](c3ccccc3)O[C@H]2[C@@H](OS(C)(=O)=O)[C@H]1/N=C(\O)c1ccccc1 (nonaromatic ring conformer: 88.94088292907199 kcal/mol)

$$$$
ZINC000257347639
 OpenBabel03032110343D

 57 60  0  0  0  0  0  0  0  0999 V2000
    4.9264   -2.9948   -0.7246 H   0  0  0  0  0  0  0  0  0  0  0  0
    3.9256   -3.1207   -0.8406 O   0  0  0  0  0  0  0  0  0  0  0  0
    3.1119   -2.0699   -1.2555 C   0  0  0  0  0  0  0  0  0  0  0  0
    1.8349   -2.2899   -1.3895 N   0  0  0  0  0  0  0  0  0  0  0  0
    0.8044   -1.2996   -1.7208 C   0  0  2  0  0  0  0  0  0  0  0  0
    1.1824   -0.5891   -2.4853 H   0  0  0  0  0  0  0  0  0  0  0  0
    0.3929   -0.5062   -0.4593 C   0  0  2  0  0  0  0  0  0  0  0  0
    1.2555    0.1342   -0.1659 H   0  0  0  0  0  0  0  0  0  0  0  0
   -0.0251   -1.4044    0.5551 O   0  0  0  0  0  0  0  0  0  0  0  0
    0.8536   -1.1714    1.9874 S   0  0  0  0  0  0  0  0  0  0  0  0
    2.3134   -1.4395    1.7504 O   0  0  0  0  0  0  0  0  0  0  0  0
    0.3500   -2.1475    3.0102 O   0  0  0  0  0  0  0  0  0  0  0  0
    0.6405    0.4729    2.6407 C   0  0  0  0  0  0  0  0  0  0  0  0
   -0.4380    0.6711    2.8075 H   0  0  0  0  0  0  0  0  0  0  0  0
    1.0535    1.2225    1.9350 H   0  0  0  0  0  0  0  0  0  0  0  0
    1.1774    0.5560    3.6069 H   0  0  0  0  0  0  0  0  0  0  0  0
   -0.7782    0.4093   -0.8396 C   0  0  2  0  0  0  0  0  0  0  0  0
   -0.3978    1.1444   -1.5892 H   0  0  0  0  0  0  0  0  0  0  0  0
   -1.2696    1.0920    0.2941 O   0  0  0  0  0  0  0  0  0  0  0  0
   -2.3389    1.9450   -0.0870 C   0  0  2  0  0  0  0  0  0  0  0  0
   -1.9945    2.6831   -0.8522 H   0  0  0  0  0  0  0  0  0  0  0  0
   -2.7920    2.6989    1.1349 C   0  0  0  0  0  0  0  0  0  0  0  0
   -3.2951    1.9997    2.2463 C   0  0  0  0  0  0  0  0  0  0  0  0
   -3.3712    0.9191    2.2246 H   0  0  0  0  0  0  0  0  0  0  0  0
   -3.6978    2.6920    3.3911 C   0  0  0  0  0  0  0  0  0  0  0  0
   -4.0839    2.1485    4.2438 H   0  0  0  0  0  0  0  0  0  0  0  0
   -3.5998    4.0844    3.4376 C   0  0  0  0  0  0  0  0  0  0  0  0
   -3.9124    4.6195    4.3250 H   0  0  0  0  0  0  0  0  0  0  0  0
   -3.0973    4.7876    2.3396 C   0  0  0  0  0  0  0  0  0  0  0  0
   -3.0199    5.8660    2.3793 H   0  0  0  0  0  0  0  0  0  0  0  0
   -2.6919    4.1002    1.1935 C   0  0  0  0  0  0  0  0  0  0  0  0
   -2.2985    4.6610    0.3544 H   0  0  0  0  0  0  0  0  0  0  0  0
   -3.4371    1.1960   -0.5890 O   0  0  0  0  0  0  0  0  0  0  0  0
   -3.0563    0.5059   -1.7646 C   0  0  0  0  0  0  0  0  0  0  0  0
   -2.7853    1.2243   -2.5726 H   0  0  0  0  0  0  0  0  0  0  0  0
   -3.9237   -0.0879   -2.1254 H   0  0  0  0  0  0  0  0  0  0  0  0
   -1.8968   -0.4389   -1.4626 C   0  0  1  0  0  0  0  0  0  0  0  0
   -2.2709   -1.1958   -0.7309 H   0  0  0  0  0  0  0  0  0  0  0  0
   -1.4408   -1.0666   -2.6479 O   0  0  0  0  0  0  0  0  0  0  0  0
   -0.4215   -2.0102   -2.3400 C   0  0  1  0  0  0  0  0  0  0  0  0
   -0.7930   -2.7662   -1.6008 H   0  0  0  0  0  0  0  0  0  0  0  0
   -0.0067   -2.6348   -3.5403 O   0  0  0  0  0  0  0  0  0  0  0  0
   -0.8795   -3.6978   -3.8612 C   0  0  0  0  0  0  0  0  0  0  0  0
   -0.6529   -4.0408   -4.8904 H   0  0  0  0  0  0  0  0  0  0  0  0
   -0.7158   -4.5549   -3.1741 H   0  0  0  0  0  0  0  0  0  0  0  0
   -1.9494   -3.3830   -3.8382 H   0  0  0  0  0  0  0  0  0  0  0  0
    3.7291   -0.7530   -1.5254 C   0  0  0  0  0  0  0  0  0  0  0  0
    3.7463   -0.2310   -2.8298 C   0  0  0  0  0  0  0  0  0  0  0  0
    3.2797   -0.7686   -3.6422 H   0  0  0  0  0  0  0  0  0  0  0  0
    4.3902    0.9824   -3.0930 C   0  0  0  0  0  0  0  0  0  0  0  0
    4.3987    1.3827   -4.0982 H   0  0  0  0  0  0  0  0  0  0  0  0
    5.0350    1.6713   -2.0613 C   0  0  0  0  0  0  0  0  0  0  0  0
    5.5415    2.6041   -2.2694 H   0  0  0  0  0  0  0  0  0  0  0  0
    5.0419    1.1440   -0.7667 C   0  0  0  0  0  0  0  0  0  0  0  0
    5.5587    1.6685    0.0275 H   0  0  0  0  0  0  0  0  0  0  0  0
    4.3961   -0.0666   -0.4988 C   0  0  0  0  0  0  0  0  0  0  0  0
    4.4242   -0.4715    0.5043 H   0  0  0  0  0  0  0  0  0  0  0  0
  1  2  1  0  0  0  0
  2  3  1  0  0  0  0
  3  4  2  0  0  0  0
  3 47  1  0  0  0  0
  4  5  1  0  0  0  0
  5  6  1  6  0  0  0
  5  7  1  0  0  0  0
  7  8  1  1  0  0  0
  7  9  1  0  0  0  0
  7 17  1  0  0  0  0
  9 10  1  0  0  0  0
 10 11  2  0  0  0  0
 10 12  2  0  0  0  0
 10 13  1  0  0  0  0
 13 14  1  0  0  0  0
 13 15  1  0  0  0  0
 13 16  1  0  0  0  0
 17 18  1  6  0  0  0
 17 19  1  0  0  0  0
 19 20  1  0  0  0  0
 20 21  1  6  0  0  0
 20 22  1  0  0  0  0
 20 33  1  0  0  0  0
 22 23  2  0  0  0  0
 23 24  1  0  0  0  0
 23 25  1  0  0  0  0
 25 26  1  0  0  0  0
 25 27  2  0  0  0  0
 27 28  1  0  0  0  0
 27 29  1  0  0  0  0
 29 30  1  0  0  0  0
 29 31  2  0  0  0  0
 31 32  1  0  0  0  0
 31 22  1  0  0  0  0
 33 34  1  0  0  0  0
 34 35  1  0  0  0  0
 34 36  1  0  0  0  0
 34 37  1  0  0  0  0
 37 38  1  1  0  0  0
 37 39  1  0  0  0  0
 37 17  1  0  0  0  0
 39 40  1  0  0  0  0
 40 41  1  1  0  0  0
 40 42  1  0  0  0  0
 40  5  1  0  0  0  0
 42 43  1  0  0  0  0
 43 44  1  0  0  0  0
 43 45  1  0  0  0  0
 43 46  1  0  0  0  0
 47 48  2  0  0  0  0
 48 49  1  0  0  0  0
 48 50  1  0  0  0  0
 50 51  1  0  0  0  0
 50 52  2  0  0  0  0
 52 53  1  0  0  0  0
 52 54  1  0  0  0  0
 54 55  1  0  0  0  0
 54 56  2  0  0  0  0
 56 57  1  0  0  0  0
 56 47  1  0  0  0  0
M  END
>  <UniqueID>
287

>  <SMILES>
CO[C@@H]1O[C@@H]2CO[C@@H](c3ccccc3)O[C@H]2[C@@H](OS(C)(=O)=O)[C@H]1/N=C(\O)c1ccccc1

>  <Energy>
72.50690788143015

>  <Genealogy>
CO[C@@H]1O[C@@H]2CO[C@@H](c3ccccc3)O[C@H]2[C@@H](OS(C)(=O)=O)[C@H]1N=C(O)c1ccccc1 (tautomer)
CO[C@@H]1O[C@@H]2CO[C@@H](c3ccccc3)O[C@H]2[C@@H](OS(C)(=O)=O)[C@H]1/N=C(\O)c1ccccc1 (cis-trans isomerization)
CO[C@@H]1O[C@@H]2CO[C@@H](c3ccccc3)O[C@H]2[C@@H](OS(C)(=O)=O)[C@H]1/N=C(\O)c1ccccc1 (3D coordinates assigned)
CO[C@@H]1O[C@@H]2CO[C@@H](c3ccccc3)O[C@H]2[C@@H](OS(C)(=O)=O)[C@H]1/N=C(\O)c1ccccc1 (nonaromatic ring conformer: 72.50690788143015 kcal/mol)

$$$$
ZINC000257347639
 OpenBabel03032110343D

 57 60  0  0  0  0  0  0  0  0999 V2000
    2.9852    4.0204   -1.6299 H   0  0  0  0  0  0  0  0  0  0  0  0
    2.8723    3.2345   -0.9998 O   0  0  0  0  0  0  0  0  0  0  0  0
    2.0522    2.1588   -1.3268 C   0  0  0  0  0  0  0  0  0  0  0  0
    1.9410    1.1817   -0.4724 N   0  0  0  0  0  0  0  0  0  0  0  0
    1.1651   -0.0537   -0.6328 C   0  0  2  0  0  0  0  0  0  0  0  0
    0.8021   -0.1655   -1.6783 H   0  0  0  0  0  0  0  0  0  0  0  0
   -0.0548   -0.0340    0.3145 C   0  0  2  0  0  0  0  0  0  0  0  0
   -0.7762    0.7136   -0.0868 H   0  0  0  0  0  0  0  0  0  0  0  0
    0.3757    0.2449    1.6365 O   0  0  0  0  0  0  0  0  0  0  0  0
   -0.5262    1.5175    2.3087 S   0  0  0  0  0  0  0  0  0  0  0  0
   -1.9996    1.2922    2.1071 O   0  0  0  0  0  0  0  0  0  0  0  0
   -0.2473    1.5744    3.7831 O   0  0  0  0  0  0  0  0  0  0  0  0
   -0.0477    3.0696    1.5795 C   0  0  0  0  0  0  0  0  0  0  0  0
    1.0477    3.2065    1.6852 H   0  0  0  0  0  0  0  0  0  0  0  0
   -0.3182    3.0826    0.5048 H   0  0  0  0  0  0  0  0  0  0  0  0
   -0.5749    3.8972    2.0958 H   0  0  0  0  0  0  0  0  0  0  0  0
   -0.7324   -1.4117    0.2717 C   0  0  2  0  0  0  0  0  0  0  0  0
   -1.1495   -1.5446   -0.7564 H   0  0  0  0  0  0  0  0  0  0  0  0
   -1.7710   -1.4896    1.2257 O   0  0  0  0  0  0  0  0  0  0  0  0
   -2.4009   -2.7596    1.1406 C   0  0  2  0  0  0  0  0  0  0  0  0
   -2.8195   -2.9259    0.1174 H   0  0  0  0  0  0  0  0  0  0  0  0
   -3.5421   -2.7729    2.1237 C   0  0  0  0  0  0  0  0  0  0  0  0
   -4.8616   -2.5509    1.6863 C   0  0  0  0  0  0  0  0  0  0  0  0
   -5.0780   -2.4056    0.6337 H   0  0  0  0  0  0  0  0  0  0  0  0
   -5.9106   -2.5046    2.6097 C   0  0  0  0  0  0  0  0  0  0  0  0
   -6.9249   -2.3357    2.2672 H   0  0  0  0  0  0  0  0  0  0  0  0
   -5.6523   -2.6661    3.9751 C   0  0  0  0  0  0  0  0  0  0  0  0
   -6.4655   -2.6258    4.6880 H   0  0  0  0  0  0  0  0  0  0  0  0
   -4.3444   -2.8730    4.4193 C   0  0  0  0  0  0  0  0  0  0  0  0
   -4.1437   -2.9877    5.4763 H   0  0  0  0  0  0  0  0  0  0  0  0
   -3.2908   -2.9159    3.5025 C   0  0  0  0  0  0  0  0  0  0  0  0
   -2.2785   -3.0592    3.8662 H   0  0  0  0  0  0  0  0  0  0  0  0
   -1.4956   -3.8068    1.4684 O   0  0  0  0  0  0  0  0  0  0  0  0
   -0.4257   -3.8368    0.5437 C   0  0  0  0  0  0  0  0  0  0  0  0
    0.2798   -4.6400    0.8441 H   0  0  0  0  0  0  0  0  0  0  0  0
   -0.7958   -4.0834   -0.4782 H   0  0  0  0  0  0  0  0  0  0  0  0
    0.3110   -2.5005    0.5533 C   0  0  1  0  0  0  0  0  0  0  0  0
    0.7481   -2.3715    1.5725 H   0  0  0  0  0  0  0  0  0  0  0  0
    1.3213   -2.4792   -0.4371 O   0  0  0  0  0  0  0  0  0  0  0  0
    2.0696   -1.2728   -0.3370 C   0  0  1  0  0  0  0  0  0  0  0  0
    2.4935   -1.1509    0.6916 H   0  0  0  0  0  0  0  0  0  0  0  0
    3.1117   -1.2901   -1.2941 O   0  0  0  0  0  0  0  0  0  0  0  0
    4.1236   -2.1884   -0.8955 C   0  0  0  0  0  0  0  0  0  0  0  0
    4.5934   -1.8682    0.0600 H   0  0  0  0  0  0  0  0  0  0  0  0
    3.7335   -3.2261   -0.8101 H   0  0  0  0  0  0  0  0  0  0  0  0
    4.9161   -2.1937   -1.6715 H   0  0  0  0  0  0  0  0  0  0  0  0
    1.3708    2.1538   -2.6370 C   0  0  0  0  0  0  0  0  0  0  0  0
   -0.0280    2.2475   -2.7211 C   0  0  0  0  0  0  0  0  0  0  0  0
   -0.6290    2.3238   -1.8268 H   0  0  0  0  0  0  0  0  0  0  0  0
   -0.6565    2.2618   -3.9704 C   0  0  0  0  0  0  0  0  0  0  0  0
   -1.7361    2.3292   -4.0316 H   0  0  0  0  0  0  0  0  0  0  0  0
    0.1065    2.1948   -5.1394 C   0  0  0  0  0  0  0  0  0  0  0  0
   -0.3815    2.2066   -6.1049 H   0  0  0  0  0  0  0  0  0  0  0  0
    1.4986    2.1058   -5.0603 C   0  0  0  0  0  0  0  0  0  0  0  0
    2.0885    2.0587   -5.9667 H   0  0  0  0  0  0  0  0  0  0  0  0
    2.1307    2.0922   -3.8124 C   0  0  0  0  0  0  0  0  0  0  0  0
    3.2091    2.0231   -3.7639 H   0  0  0  0  0  0  0  0  0  0  0  0
  1  2  1  0  0  0  0
  2  3  1  0  0  0  0
  3  4  2  0  0  0  0
  3 47  1  0  0  0  0
  4  5  1  0  0  0  0
  5  6  1  6  0  0  0
  5  7  1  0  0  0  0
  7  8  1  6  0  0  0
  7  9  1  0  0  0  0
  7 17  1  0  0  0  0
  9 10  1  0  0  0  0
 10 11  2  0  0  0  0
 10 12  2  0  0  0  0
 10 13  1  0  0  0  0
 13 14  1  0  0  0  0
 13 15  1  0  0  0  0
 13 16  1  0  0  0  0
 17 18  1  6  0  0  0
 17 19  1  0  0  0  0
 19 20  1  0  0  0  0
 20 21  1  6  0  0  0
 20 22  1  0  0  0  0
 20 33  1  0  0  0  0
 22 23  2  0  0  0  0
 23 24  1  0  0  0  0
 23 25  1  0  0  0  0
 25 26  1  0  0  0  0
 25 27  2  0  0  0  0
 27 28  1  0  0  0  0
 27 29  1  0  0  0  0
 29 30  1  0  0  0  0
 29 31  2  0  0  0  0
 31 32  1  0  0  0  0
 31 22  1  0  0  0  0
 33 34  1  0  0  0  0
 34 35  1  0  0  0  0
 34 36  1  0  0  0  0
 34 37  1  0  0  0  0
 37 38  1  1  0  0  0
 37 39  1  0  0  0  0
 37 17  1  0  0  0  0
 39 40  1  0  0  0  0
 40 41  1  1  0  0  0
 40 42  1  0  0  0  0
 40  5  1  0  0  0  0
 42 43  1  0  0  0  0
 43 44  1  0  0  0  0
 43 45  1  0  0  0  0
 43 46  1  0  0  0  0
 47 48  2  0  0  0  0
 48 49  1  0  0  0  0
 48 50  1  0  0  0  0
 50 51  1  0  0  0  0
 50 52  2  0  0  0  0
 52 53  1  0  0  0  0
 52 54  1  0  0  0  0
 54 55  1  0  0  0  0
 54 56  2  0  0  0  0
 56 57  1  0  0  0  0
 56 47  1  0  0  0  0
M  END
>  <UniqueID>
288

>  <SMILES>
CO[C@@H]1O[C@@H]2CO[C@@H](c3ccccc3)O[C@H]2[C@@H](OS(C)(=O)=O)[C@H]1/N=C(/O)c1ccccc1

>  <Energy>
73.92444780887698

>  <Genealogy>
CO[C@@H]1O[C@@H]2CO[C@@H](c3ccccc3)O[C@H]2[C@@H](OS(C)(=O)=O)[C@H]1N=C(O)c1ccccc1 (tautomer)
CO[C@@H]1O[C@@H]2CO[C@@H](c3ccccc3)O[C@H]2[C@@H](OS(C)(=O)=O)[C@H]1/N=C(/O)c1ccccc1 (cis-trans isomerization)
CO[C@@H]1O[C@@H]2CO[C@@H](c3ccccc3)O[C@H]2[C@@H](OS(C)(=O)=O)[C@H]1/N=C(/O)c1ccccc1 (3D coordinates assigned)
CO[C@@H]1O[C@@H]2CO[C@@H](c3ccccc3)O[C@H]2[C@@H](OS(C)(=O)=O)[C@H]1/N=C(/O)c1ccccc1 (nonaromatic ring conformer: 73.92444780887698 kcal/mol)

$$$$
ZINC000307008534
 OpenBabel03032110343D

 32 32  0  0  0  0  0  0  0  0999 V2000
   -2.1971    1.7557    0.5773 C   0  0  0  0  0  0  0  0  0  0  0  0
   -1.7676    0.4220    1.0171 N   0  3  0  0  0  0  0  0  0  0  0  0
   -0.3896    0.0093    0.6438 C   0  0  1  0  0  0  0  0  0  0  0  0
   -0.2429   -0.4676   -0.8240 C   0  0  1  0  0  0  0  0  0  0  0  0
   -0.4560    0.5935   -1.7400 O   0  0  0  0  0  0  0  0  0  0  0  0
   -0.6823    0.0808   -3.0345 C   0  0  0  0  0  0  0  0  0  0  0  0
    1.0382   -1.0574   -1.0142 O   0  0  0  0  0  0  0  0  0  0  0  0
    2.0926   -0.1311   -0.7801 C   0  0  2  0  0  0  0  0  0  0  0  0
    3.4233   -0.8124   -1.1378 C   0  0  0  0  0  0  0  0  0  0  0  0
    3.6810   -1.9016   -0.2915 O   0  0  0  0  0  0  0  0  0  0  0  0
    2.0851    0.3728    0.6899 C   0  0  1  0  0  0  0  0  0  0  0  0
    3.1065    1.3177    0.8931 O   0  0  0  0  0  0  0  0  0  0  0  0
    0.7241    1.0180    1.0122 C   0  0  1  0  0  0  0  0  0  0  0  0
    0.5879    2.2115    0.2802 O   0  0  0  0  0  0  0  0  0  0  0  0
   -3.2872    1.8704    0.7617 H   0  0  0  0  0  0  0  0  0  0  0  0
   -2.0303    1.9098   -0.5054 H   0  0  0  0  0  0  0  0  0  0  0  0
   -1.6880    2.5482    1.1655 H   0  0  0  0  0  0  0  0  0  0  0  0
   -2.4467   -0.2817    0.6437 H   0  0  0  0  0  0  0  0  0  0  0  0
   -1.8477    0.3941    2.0610 H   0  0  0  0  0  0  0  0  0  0  0  0
   -0.1775   -0.9008    1.2548 H   0  0  0  0  0  0  0  0  0  0  0  0
   -1.0056   -1.2686   -0.9688 H   0  0  0  0  0  0  0  0  0  0  0  0
    0.1708   -0.5431   -3.3820 H   0  0  0  0  0  0  0  0  0  0  0  0
   -1.6305   -0.4994   -3.0730 H   0  0  0  0  0  0  0  0  0  0  0  0
   -0.7822    0.9323   -3.7383 H   0  0  0  0  0  0  0  0  0  0  0  0
    1.9967    0.7411   -1.4669 H   0  0  0  0  0  0  0  0  0  0  0  0
    4.2573   -0.0847   -1.0488 H   0  0  0  0  0  0  0  0  0  0  0  0
    3.3986   -1.1466   -2.2005 H   0  0  0  0  0  0  0  0  0  0  0  0
    3.1245   -2.6558   -0.6183 H   0  0  0  0  0  0  0  0  0  0  0  0
    2.2221   -0.4960    1.3786 H   0  0  0  0  0  0  0  0  0  0  0  0
    3.9045    0.8229    1.2153 H   0  0  0  0  0  0  0  0  0  0  0  0
    0.6654    1.2262    2.1069 H   0  0  0  0  0  0  0  0  0  0  0  0
    1.0205    2.9297    0.8117 H   0  0  0  0  0  0  0  0  0  0  0  0
  1  2  1  0  0  0  0
  1 15  1  0  0  0  0
  1 16  1  0  0  0  0
  1 17  1  0  0  0  0
  2  3  1  0  0  0  0
  2 18  1  0  0  0  0
  2 19  1  0  0  0  0
  3  4  1  0  0  0  0
  3 20  1  1  0  0  0
  4  5  1  0  0  0  0
  4  7  1  0  0  0  0
  4 21  1  6  0  0  0
  5  6  1  0  0  0  0
  6 22  1  0  0  0  0
  6 23  1  0  0  0  0
  6 24  1  0  0  0  0
  7  8  1  0  0  0  0
  8  9  1  0  0  0  0
  8 11  1  0  0  0  0
  8 25  1  6  0  0  0
  9 10  1  0  0  0  0
  9 26  1  0  0  0  0
  9 27  1  0  0  0  0
 10 28  1  0  0  0  0
 11 12  1  0  0  0  0
 11 13  1  0  0  0  0
 11 29  1  1  0  0  0
 12 30  1  0  0  0  0
 13 14  1  0  0  0  0
 13  3  1  0  0  0  0
 13 31  1  1  0  0  0
 14 32  1  0  0  0  0
M  CHG  1   2   1
M  END
>  <UniqueID>
289

>  <SMILES>
C[NH2+][C@H]1[C@@H](OC)O[C@H](CO)[C@@H](O)[C@H]1O

>  <Energy>
40.488966298010276

>  <Genealogy>
C[NH2+][C@H]1[C@@H](OC)O[C@H](CO)[C@@H](O)[C@H]1O (protonated)
C[NH2+][C@H]1[C@@H](OC)O[C@H](CO)[C@@H](O)[C@H]1O (3D coordinates assigned)
C[NH2+][C@H]1[C@@H](OC)O[C@H](CO)[C@@H](O)[C@H]1O (nonaromatic ring conformer: 40.488966298010276 kcal/mol)

$$$$
ZINC000307008534
 OpenBabel03032110343D

 31 31  0  0  0  0  0  0  0  0999 V2000
    3.0796    0.3634    0.3238 C   0  0  0  0  0  0  0  0  0  0  0  0
    1.6400    0.4099    0.5999 N   0  0  0  0  0  0  0  0  0  0  0  0
    0.8591    0.6602   -0.6357 C   0  0  1  0  0  0  0  0  0  0  0  0
    0.4040   -0.6884   -1.2933 C   0  0  1  0  0  0  0  0  0  0  0  0
    1.1938   -1.7728   -0.8311 O   0  0  0  0  0  0  0  0  0  0  0  0
    1.0594   -2.8811   -1.6940 C   0  0  0  0  0  0  0  0  0  0  0  0
   -0.9797   -0.9689   -1.0938 O   0  0  0  0  0  0  0  0  0  0  0  0
   -1.3552   -0.7488    0.2538 C   0  0  2  0  0  0  0  0  0  0  0  0
   -2.7183   -1.4042    0.5113 C   0  0  0  0  0  0  0  0  0  0  0  0
   -2.6243   -2.7969    0.3766 O   0  0  0  0  0  0  0  0  0  0  0  0
   -1.4054    0.7719    0.5459 C   0  0  1  0  0  0  0  0  0  0  0  0
   -1.1248    0.9849    1.9074 O   0  0  0  0  0  0  0  0  0  0  0  0
   -0.3949    1.5269   -0.3513 C   0  0  1  0  0  0  0  0  0  0  0  0
   -0.0471    2.7633    0.2198 O   0  0  0  0  0  0  0  0  0  0  0  0
    3.6203    0.0677    1.2473 H   0  0  0  0  0  0  0  0  0  0  0  0
    3.3107   -0.3838   -0.4645 H   0  0  0  0  0  0  0  0  0  0  0  0
    3.4491    1.3625    0.0033 H   0  0  0  0  0  0  0  0  0  0  0  0
    1.5000    1.1818    1.2919 H   0  0  0  0  0  0  0  0  0  0  0  0
    1.4758    1.2242   -1.3757 H   0  0  0  0  0  0  0  0  0  0  0  0
    0.5491   -0.5476   -2.3907 H   0  0  0  0  0  0  0  0  0  0  0  0
    1.6505   -3.7234   -1.2800 H   0  0  0  0  0  0  0  0  0  0  0  0
    0.0017   -3.2179   -1.7648 H   0  0  0  0  0  0  0  0  0  0  0  0
    1.4645   -2.6526   -2.7043 H   0  0  0  0  0  0  0  0  0  0  0  0
   -0.6271   -1.2388    0.9446 H   0  0  0  0  0  0  0  0  0  0  0  0
   -3.4856   -0.9971   -0.1872 H   0  0  0  0  0  0  0  0  0  0  0  0
   -3.0468   -1.1762    1.5479 H   0  0  0  0  0  0  0  0  0  0  0  0
   -2.6473   -2.9926   -0.5964 H   0  0  0  0  0  0  0  0  0  0  0  0
   -2.4241    1.1628    0.3058 H   0  0  0  0  0  0  0  0  0  0  0  0
   -1.5544    1.8427    2.1632 H   0  0  0  0  0  0  0  0  0  0  0  0
   -0.9002    1.7193   -1.3285 H   0  0  0  0  0  0  0  0  0  0  0  0
    0.4019    3.2917   -0.4907 H   0  0  0  0  0  0  0  0  0  0  0  0
  1  2  1  0  0  0  0
  1 15  1  0  0  0  0
  1 16  1  0  0  0  0
  1 17  1  0  0  0  0
  2  3  1  0  0  0  0
  2 18  1  0  0  0  0
  3  4  1  0  0  0  0
  3 19  1  6  0  0  0
  4  5  1  0  0  0  0
  4  7  1  0  0  0  0
  4 20  1  6  0  0  0
  5  6  1  0  0  0  0
  6 21  1  0  0  0  0
  6 22  1  0  0  0  0
  6 23  1  0  0  0  0
  7  8  1  0  0  0  0
  8  9  1  0  0  0  0
  8 11  1  0  0  0  0
  8 24  1  1  0  0  0
  9 10  1  0  0  0  0
  9 25  1  0  0  0  0
  9 26  1  0  0  0  0
 10 27  1  0  0  0  0
 11 12  1  0  0  0  0
 11 13  1  0  0  0  0
 11 28  1  6  0  0  0
 12 29  1  0  0  0  0
 13 14  1  0  0  0  0
 13  3  1  0  0  0  0
 13 30  1  6  0  0  0
 14 31  1  0  0  0  0
M  END
>  <UniqueID>
290

>  <SMILES>
CN[C@H]1[C@@H](OC)O[C@H](CO)[C@@H](O)[C@H]1O

>  <Energy>
40.98888911195094

>  <Genealogy>
CN[C@H]1[C@@H](OC)O[C@H](CO)[C@@H](O)[C@H]1O (3D coordinates assigned)
CN[C@H]1[C@@H](OC)O[C@H](CO)[C@@H](O)[C@H]1O (nonaromatic ring conformer: 40.98888911195094 kcal/mol)

$$$$
ZINC000307565252
 OpenBabel03032110343D

 40 42  0  0  0  0  0  0  0  0999 V2000
   -0.7189   -1.3498    4.1206 C   0  0  0  0  0  0  0  0  0  0  0  0
   -0.2231   -1.4053    2.8008 O   0  0  0  0  0  0  0  0  0  0  0  0
   -1.2022   -0.9365    1.8930 C   0  0  2  0  0  0  0  0  0  0  0  0
   -2.1790   -1.9480    1.7003 O   0  0  0  0  0  0  0  0  0  0  0  0
   -3.2297   -1.4805    0.8677 C   0  0  2  0  0  0  0  0  0  0  0  0
   -4.3302   -2.5510    0.8294 C   0  0  0  0  0  0  0  0  0  0  0  0
   -4.7905   -2.8263    2.1250 O   0  0  0  0  0  0  0  0  0  0  0  0
   -2.7000   -1.1891   -0.5579 C   0  0  1  0  0  0  0  0  0  0  0  0
   -3.7385   -0.6949   -1.3649 O   0  0  0  0  0  0  0  0  0  0  0  0
   -1.5422   -0.1702   -0.4958 C   0  0  1  0  0  0  0  0  0  0  0  0
   -2.0331    1.1033   -0.1563 O   0  0  0  0  0  0  0  0  0  0  0  0
   -0.5102   -0.6344    0.5477 C   0  0  1  0  0  0  0  0  0  0  0  0
    0.5840    0.3384    0.6870 N   0  0  0  0  0  0  0  0  0  0  0  0
    1.7826    0.3477   -0.0964 C   0  0  0  0  0  0  0  0  0  0  0  0
    2.1422   -0.5936   -0.8523 O   0  0  0  0  0  0  0  0  0  0  0  0
    2.5012    1.6018    0.0895 C   0  0  0  0  0  0  0  0  0  0  0  0
    3.7021    2.0526   -0.4560 C   0  0  0  0  0  0  0  0  0  0  0  0
    4.1488    3.3370   -0.0971 C   0  0  0  0  0  0  0  0  0  0  0  0
    3.3918    4.1365    0.7869 C   0  0  0  0  0  0  0  0  0  0  0  0
    2.1811    3.6590    1.3201 C   0  0  0  0  0  0  0  0  0  0  0  0
    1.7628    2.3814    0.9515 C   0  0  0  0  0  0  0  0  0  0  0  0
    0.5700    1.6279    1.3189 C   0  0  0  0  0  0  0  0  0  0  0  0
   -0.3504    2.0510    2.0666 O   0  0  0  0  0  0  0  0  0  0  0  0
    0.0346   -1.7984    4.7999 H   0  0  0  0  0  0  0  0  0  0  0  0
   -0.8754   -0.2963    4.4415 H   0  0  0  0  0  0  0  0  0  0  0  0
   -1.6600   -1.9334    4.2301 H   0  0  0  0  0  0  0  0  0  0  0  0
   -1.6821   -0.0042    2.2772 H   0  0  0  0  0  0  0  0  0  0  0  0
   -3.6841   -0.5545    1.2929 H   0  0  0  0  0  0  0  0  0  0  0  0
   -3.9229   -3.4889    0.3947 H   0  0  0  0  0  0  0  0  0  0  0  0
   -5.1785   -2.2191    0.1884 H   0  0  0  0  0  0  0  0  0  0  0  0
   -5.3680   -2.0632    2.3897 H   0  0  0  0  0  0  0  0  0  0  0  0
   -2.3125   -2.1424   -0.9903 H   0  0  0  0  0  0  0  0  0  0  0  0
   -3.4256   -0.7615   -2.3048 H   0  0  0  0  0  0  0  0  0  0  0  0
   -1.0371   -0.1313   -1.4902 H   0  0  0  0  0  0  0  0  0  0  0  0
   -2.3439    1.5286   -0.9976 H   0  0  0  0  0  0  0  0  0  0  0  0
   -0.0747   -1.5943    0.1869 H   0  0  0  0  0  0  0  0  0  0  0  0
    4.2738    1.4344   -1.1358 H   0  0  0  0  0  0  0  0  0  0  0  0
    5.0779    3.7156   -0.5028 H   0  0  0  0  0  0  0  0  0  0  0  0
    3.7442    5.1241    1.0545 H   0  0  0  0  0  0  0  0  0  0  0  0
    1.5924    4.2664    1.9952 H   0  0  0  0  0  0  0  0  0  0  0  0
  1  2  1  0  0  0  0
  1 24  1  0  0  0  0
  1 25  1  0  0  0  0
  1 26  1  0  0  0  0
  2  3  1  0  0  0  0
  3  4  1  0  0  0  0
  3 27  1  1  0  0  0
  4  5  1  0  0  0  0
  5  6  1  0  0  0  0
  5  8  1  0  0  0  0
  5 28  1  1  0  0  0
  6  7  1  0  0  0  0
  6 29  1  0  0  0  0
  6 30  1  0  0  0  0
  7 31  1  0  0  0  0
  8  9  1  0  0  0  0
  8 10  1  0  0  0  0
  8 32  1  6  0  0  0
  9 33  1  0  0  0  0
 10 11  1  0  0  0  0
 10 12  1  0  0  0  0
 10 34  1  6  0  0  0
 11 35  1  0  0  0  0
 12 13  1  0  0  0  0
 12  3  1  0  0  0  0
 12 36  1  6  0  0  0
 13 14  1  0  0  0  0
 14 15  2  0  0  0  0
 14 16  1  0  0  0  0
 16 17  2  0  0  0  0
 17 18  1  0  0  0  0
 17 37  1  0  0  0  0
 18 19  2  0  0  0  0
 18 38  1  0  0  0  0
 19 20  1  0  0  0  0
 19 39  1  0  0  0  0
 20 21  2  0  0  0  0
 20 40  1  0  0  0  0
 21 22  1  0  0  0  0
 21 16  1  0  0  0  0
 22 23  2  0  0  0  0
 22 13  1  0  0  0  0
M  END
>  <UniqueID>
291

>  <SMILES>
CO[C@@H]1O[C@H](CO)[C@@H](O)[C@@H](O)[C@H]1N1C(=O)c2ccccc2C1=O

>  <Energy>
75.67617391331002

>  <Genealogy>
CO[C@@H]1O[C@H](CO)[C@@H](O)[C@@H](O)[C@H]1N1C(=O)c2ccccc2C1=O (3D coordinates assigned)
CO[C@@H]1O[C@H](CO)[C@@H](O)[C@@H](O)[C@H]1N1C(=O)c2ccccc2C1=O (nonaromatic ring conformer: 75.67617391331002 kcal/mol)

$$$$
ZINC000307565252
 OpenBabel03032110343D

 41 43  0  0  0  0  0  0  0  0999 V2000
    2.0998    2.6265    1.1179 C   0  0  0  0  0  0  0  0  0  0  0  0
    1.8029    1.5001    1.9154 O   0  0  0  0  0  0  0  0  0  0  0  0
    0.8710    0.6564    1.2541 C   0  0  2  0  0  0  0  0  0  0  0  0
   -0.4493    1.1685    1.3732 O   0  0  0  0  0  0  0  0  0  0  0  0
   -0.9106    1.2961    2.7196 C   0  0  2  0  0  0  0  0  0  0  0  0
   -0.8090    2.7530    3.1916 C   0  0  0  0  0  0  0  0  0  0  0  0
   -1.4441    3.5956    2.2702 O   0  0  0  0  0  0  0  0  0  0  0  0
   -0.2556    0.3212    3.7352 C   0  0  1  0  0  0  0  0  0  0  0  0
   -1.1114    0.1383    4.8347 O   0  0  0  0  0  0  0  0  0  0  0  0
    0.0284   -1.0206    3.0448 C   0  0  1  0  0  0  0  0  0  0  0  0
   -1.1825   -1.6196    2.6567 O   0  0  0  0  0  0  0  0  0  0  0  0
    0.9698   -0.7994    1.8241 C   0  0  1  0  0  0  0  0  0  0  0  0
    0.8193   -1.8740    0.7947 N   0  3  0  0  0  0  0  0  0  0  0  0
    2.0048   -1.9851   -0.0275 C   0  0  0  0  0  0  0  0  0  0  0  0
    3.1392   -2.2922    0.4291 O   0  0  0  0  0  0  0  0  0  0  0  0
    1.7283   -1.7689   -1.4389 C   0  0  0  0  0  0  0  0  0  0  0  0
    2.5731   -1.7739   -2.5482 C   0  0  0  0  0  0  0  0  0  0  0  0
    2.0035   -1.5307   -3.8111 C   0  0  0  0  0  0  0  0  0  0  0  0
    0.6172   -1.2930   -3.9340 C   0  0  0  0  0  0  0  0  0  0  0  0
   -0.2078   -1.2972   -2.7948 C   0  0  0  0  0  0  0  0  0  0  0  0
    0.3880   -1.5402   -1.5578 C   0  0  0  0  0  0  0  0  0  0  0  0
   -0.1824   -1.6089   -0.2210 C   0  0  0  0  0  0  0  0  0  0  0  0
   -1.4138   -1.4965    0.0195 O   0  0  0  0  0  0  0  0  0  0  0  0
    2.6950    2.3301    0.2267 H   0  0  0  0  0  0  0  0  0  0  0  0
    1.1775    3.1651    0.8051 H   0  0  0  0  0  0  0  0  0  0  0  0
    2.7139    3.3308    1.7154 H   0  0  0  0  0  0  0  0  0  0  0  0
    1.1176    0.6109    0.1690 H   0  0  0  0  0  0  0  0  0  0  0  0
   -1.9957    1.0500    2.6932 H   0  0  0  0  0  0  0  0  0  0  0  0
   -1.3030    2.8533    4.1842 H   0  0  0  0  0  0  0  0  0  0  0  0
    0.2559    3.0516    3.3017 H   0  0  0  0  0  0  0  0  0  0  0  0
   -1.3362    4.5179    2.6203 H   0  0  0  0  0  0  0  0  0  0  0  0
    0.7104    0.7487    4.0947 H   0  0  0  0  0  0  0  0  0  0  0  0
   -0.5719   -0.2894    5.5502 H   0  0  0  0  0  0  0  0  0  0  0  0
    0.5545   -1.6918    3.7659 H   0  0  0  0  0  0  0  0  0  0  0  0
   -1.5539   -2.0754    3.4567 H   0  0  0  0  0  0  0  0  0  0  0  0
    1.9975   -0.8853    2.2510 H   0  0  0  0  0  0  0  0  0  0  0  0
    0.6382   -2.8070    1.2340 H   0  0  0  0  0  0  0  0  0  0  0  0
    3.6343   -1.9578   -2.4420 H   0  0  0  0  0  0  0  0  0  0  0  0
    2.6311   -1.5263   -4.6927 H   0  0  0  0  0  0  0  0  0  0  0  0
    0.1870   -1.1069   -4.9094 H   0  0  0  0  0  0  0  0  0  0  0  0
   -1.2716   -1.1164   -2.8771 H   0  0  0  0  0  0  0  0  0  0  0  0
  1  2  1  0  0  0  0
  1 24  1  0  0  0  0
  1 25  1  0  0  0  0
  1 26  1  0  0  0  0
  2  3  1  0  0  0  0
  3  4  1  0  0  0  0
  3 27  1  6  0  0  0
  4  5  1  0  0  0  0
  5  6  1  0  0  0  0
  5  8  1  0  0  0  0
  5 28  1  6  0  0  0
  6  7  1  0  0  0  0
  6 29  1  0  0  0  0
  6 30  1  0  0  0  0
  7 31  1  0  0  0  0
  8  9  1  0  0  0  0
  8 10  1  0  0  0  0
  8 32  1  1  0  0  0
  9 33  1  0  0  0  0
 10 11  1  0  0  0  0
 10 12  1  0  0  0  0
 10 34  1  1  0  0  0
 11 35  1  0  0  0  0
 12 13  1  0  0  0  0
 12  3  1  0  0  0  0
 12 36  1  1  0  0  0
 13 14  1  0  0  0  0
 13 37  1  0  0  0  0
 14 15  2  0  0  0  0
 14 16  1  0  0  0  0
 16 17  2  0  0  0  0
 17 18  1  0  0  0  0
 17 38  1  0  0  0  0
 18 19  2  0  0  0  0
 18 39  1  0  0  0  0
 19 20  1  0  0  0  0
 19 40  1  0  0  0  0
 20 21  2  0  0  0  0
 20 41  1  0  0  0  0
 21 22  1  0  0  0  0
 21 16  1  0  0  0  0
 22 23  2  0  0  0  0
 22 13  1  0  0  0  0
M  CHG  1  13   1
M  END
>  <UniqueID>
292

>  <SMILES>
CO[C@@H]1O[C@H](CO)[C@@H](O)[C@@H](O)[C@H]1[NH+]1C(=O)c2ccccc2C1=O

>  <Energy>
87.56780905347793

>  <Genealogy>
CO[C@@H]1O[C@H](CO)[C@@H](O)[C@@H](O)[C@H]1[NH+]1C(=O)c2ccccc2C1=O (protonated)
CO[C@@H]1O[C@H](CO)[C@@H](O)[C@@H](O)[C@H]1[NH+]1C(=O)c2ccccc2C1=O (3D coordinates assigned)
CO[C@@H]1O[C@H](CO)[C@@H](O)[C@@H](O)[C@H]1[NH+]1C(=O)c2ccccc2C1=O (nonaromatic ring conformer: 87.56780905347793 kcal/mol)

$$$$
ZINC000383920275
 OpenBabel03032110343D

 28 29  0  0  0  0  0  0  0  0999 V2000
   -1.4629   -0.3874    2.0531 C   0  0  0  0  0  0  0  0  0  0  0  0
   -1.4465   -0.5320    0.6494 O   0  0  0  0  0  0  0  0  0  0  0  0
   -0.3497    0.1743    0.1009 C   0  0  1  0  0  0  0  0  0  0  0  0
    0.8524   -0.5255    0.3729 O   0  0  0  0  0  0  0  0  0  0  0  0
    2.0179    0.2248    0.0354 C   0  0  2  0  0  0  0  0  0  0  0  0
    2.5919    0.8908    1.2955 C   0  0  0  0  0  0  0  0  0  0  0  0
    2.9284   -0.0778    2.2522 O   0  0  0  0  0  0  0  0  0  0  0  0
    1.8285    1.2632   -1.1115 C   0  0  1  0  0  0  0  0  0  0  0  0
    3.0549    1.4803   -1.7616 O   0  0  0  0  0  0  0  0  0  0  0  0
    0.7671    0.7899   -2.1196 C   0  0  1  0  0  0  0  0  0  0  0  0
    1.2476   -0.3113   -2.8870 O   0  0  0  0  0  0  0  0  0  0  0  0
    0.3381   -1.3400   -2.8280 C   0  0  0  0  0  0  0  0  0  0  0  0
    0.4773   -2.4311   -3.4391 O   0  0  0  0  0  0  0  0  0  0  0  0
   -0.7606   -1.0460   -1.9984 N   0  0  0  0  0  0  0  0  0  0  0  0
   -0.5334    0.2763   -1.4244 C   0  0  1  0  0  0  0  0  0  0  0  0
   -1.6365    0.6720    2.3446 H   0  0  0  0  0  0  0  0  0  0  0  0
   -2.3025   -0.9875    2.4597 H   0  0  0  0  0  0  0  0  0  0  0  0
   -0.5252   -0.7685    2.5143 H   0  0  0  0  0  0  0  0  0  0  0  0
   -0.3173    1.2121    0.5166 H   0  0  0  0  0  0  0  0  0  0  0  0
    2.7721   -0.5140   -0.3159 H   0  0  0  0  0  0  0  0  0  0  0  0
    3.5138    1.4510    1.0298 H   0  0  0  0  0  0  0  0  0  0  0  0
    1.8631    1.6201    1.7181 H   0  0  0  0  0  0  0  0  0  0  0  0
    2.0898   -0.3134    2.7283 H   0  0  0  0  0  0  0  0  0  0  0  0
    1.4725    2.2260   -0.6731 H   0  0  0  0  0  0  0  0  0  0  0  0
    2.9526    2.3092   -2.2987 H   0  0  0  0  0  0  0  0  0  0  0  0
    0.5150    1.6228   -2.8126 H   0  0  0  0  0  0  0  0  0  0  0  0
   -1.5657   -1.6807   -1.7993 H   0  0  0  0  0  0  0  0  0  0  0  0
   -1.3941    0.9394   -1.6615 H   0  0  0  0  0  0  0  0  0  0  0  0
  1  2  1  0  0  0  0
  1 16  1  0  0  0  0
  1 17  1  0  0  0  0
  1 18  1  0  0  0  0
  2  3  1  0  0  0  0
  3  4  1  0  0  0  0
  3 19  1  1  0  0  0
  4  5  1  0  0  0  0
  5  6  1  0  0  0  0
  5  8  1  0  0  0  0
  5 20  1  6  0  0  0
  6  7  1  0  0  0  0
  6 21  1  0  0  0  0
  6 22  1  0  0  0  0
  7 23  1  0  0  0  0
  8  9  1  0  0  0  0
  8 10  1  0  0  0  0
  8 24  1  1  0  0  0
  9 25  1  0  0  0  0
 10 11  1  0  0  0  0
 10 26  1  6  0  0  0
 11 12  1  0  0  0  0
 12 13  2  0  0  0  0
 12 14  1  0  0  0  0
 14 15  1  0  0  0  0
 14 27  1  0  0  0  0
 15  3  1  0  0  0  0
 15 10  1  0  0  0  0
 15 28  1  6  0  0  0
M  END
>  <UniqueID>
293

>  <SMILES>
CO[C@H]1O[C@H](CO)[C@@H](O)[C@H]2OC(=O)N[C@@H]12

>  <Energy>
49.726064203431655

>  <Genealogy>
CO[C@H]1O[C@H](CO)[C@@H](O)[C@H]2OC(=O)N[C@@H]12 (3D coordinates assigned)
CO[C@H]1O[C@H](CO)[C@@H](O)[C@H]2OC(=O)N[C@@H]12 (nonaromatic ring conformer: 49.726064203431655 kcal/mol)

$$$$
ZINC000383920275
 OpenBabel03032110343D

 28 29  0  0  0  0  0  0  0  0999 V2000
   -0.9156   -2.7837   -1.6751 C   0  0  0  0  0  0  0  0  0  0  0  0
   -0.4822   -1.4410   -1.6368 O   0  0  0  0  0  0  0  0  0  0  0  0
   -0.1349   -1.0586   -0.3163 C   0  0  1  0  0  0  0  0  0  0  0  0
    0.9129   -0.1107   -0.3992 O   0  0  0  0  0  0  0  0  0  0  0  0
    1.4671    0.2299    0.8711 C   0  0  2  0  0  0  0  0  0  0  0  0
    2.7793   -0.5349    1.0836 C   0  0  0  0  0  0  0  0  0  0  0  0
    3.6690   -0.2476    0.0404 O   0  0  0  0  0  0  0  0  0  0  0  0
    0.5096    0.0496    2.0864 C   0  0  1  0  0  0  0  0  0  0  0  0
    0.8912    0.9176    3.1230 O   0  0  0  0  0  0  0  0  0  0  0  0
   -0.9517    0.3103    1.6859 C   0  0  1  0  0  0  0  0  0  0  0  0
   -1.1703    1.6816    1.3971 O   0  0  0  0  0  0  0  0  0  0  0  0
   -1.7452    1.7876    0.1484 C   0  0  0  0  0  0  0  0  0  0  0  0
   -2.1423    2.9973   -0.4066 O   0  0  0  0  0  0  0  0  0  0  0  0
   -1.8864    0.6670   -0.4665 N   0  0  0  0  0  0  0  0  0  0  0  0
   -1.3521   -0.4035    0.3712 C   0  0  1  0  0  0  0  0  0  0  0  0
   -1.2682   -3.0125   -2.7016 H   0  0  0  0  0  0  0  0  0  0  0  0
   -1.7653   -2.9604   -0.9798 H   0  0  0  0  0  0  0  0  0  0  0  0
   -0.0755   -3.4753   -1.4449 H   0  0  0  0  0  0  0  0  0  0  0  0
    0.2125   -1.9356    0.2872 H   0  0  0  0  0  0  0  0  0  0  0  0
    1.7244    1.3112    0.8179 H   0  0  0  0  0  0  0  0  0  0  0  0
    2.5762   -1.6289    1.1110 H   0  0  0  0  0  0  0  0  0  0  0  0
    3.2352   -0.2306    2.0527 H   0  0  0  0  0  0  0  0  0  0  0  0
    4.4910   -0.7713    0.2276 H   0  0  0  0  0  0  0  0  0  0  0  0
    0.5777   -1.0042    2.4482 H   0  0  0  0  0  0  0  0  0  0  0  0
    0.4346    0.6007    3.9459 H   0  0  0  0  0  0  0  0  0  0  0  0
   -1.6319    0.0017    2.5104 H   0  0  0  0  0  0  0  0  0  0  0  0
   -2.0158    3.8616    0.1055 H   0  0  0  0  0  0  0  0  0  0  0  0
   -2.1445   -1.1585    0.5638 H   0  0  0  0  0  0  0  0  0  0  0  0
  1  2  1  0  0  0  0
  1 16  1  0  0  0  0
  1 17  1  0  0  0  0
  1 18  1  0  0  0  0
  2  3  1  0  0  0  0
  3  4  1  0  0  0  0
  3 19  1  1  0  0  0
  4  5  1  0  0  0  0
  5  6  1  0  0  0  0
  5  8  1  0  0  0  0
  5 20  1  6  0  0  0
  6  7  1  0  0  0  0
  6 21  1  0  0  0  0
  6 22  1  0  0  0  0
  7 23  1  0  0  0  0
  8  9  1  0  0  0  0
  8 10  1  0  0  0  0
  8 24  1  1  0  0  0
  9 25  1  0  0  0  0
 10 11  1  0  0  0  0
 10 26  1  1  0  0  0
 11 12  1  0  0  0  0
 12 13  1  0  0  0  0
 12 14  2  0  0  0  0
 13 27  1  0  0  0  0
 14 15  1  0  0  0  0
 15  3  1  0  0  0  0
 15 10  1  0  0  0  0
 15 28  1  1  0  0  0
M  END
>  <UniqueID>
294

>  <SMILES>
CO[C@H]1O[C@H](CO)[C@@H](O)[C@H]2OC(O)=N[C@@H]12

>  <Energy>
49.877803237152534

>  <Genealogy>
CO[C@H]1O[C@H](CO)[C@@H](O)[C@H]2OC(O)=N[C@@H]12 (tautomer)
CO[C@H]1O[C@H](CO)[C@@H](O)[C@H]2OC(O)=N[C@@H]12 (3D coordinates assigned)
CO[C@H]1O[C@H](CO)[C@@H](O)[C@H]2OC(O)=N[C@@H]12 (nonaromatic ring conformer: 49.877803237152534 kcal/mol)

$$$$
ZINC000394934764
 OpenBabel03032110343D

 28 28  0  0  0  0  0  0  0  0999 V2000
    0.2995   -0.3872   -4.1775 H   0  0  0  0  0  0  0  0  0  0  0  0
   -0.5397    0.1361   -4.0894 O   0  0  0  0  0  0  0  0  0  0  0  0
   -1.4004   -0.6188   -3.2796 C   0  0  0  0  0  0  0  0  0  0  0  0
   -1.4184   -1.6762   -3.6288 H   0  0  0  0  0  0  0  0  0  0  0  0
   -2.4284   -0.2096   -3.3823 H   0  0  0  0  0  0  0  0  0  0  0  0
   -0.9595   -0.5414   -1.8106 C   0  0  1  0  0  0  0  0  0  0  0  0
    0.0646   -0.9768   -1.7526 H   0  0  0  0  0  0  0  0  0  0  0  0
   -0.9431    0.8241   -1.4206 O   0  0  0  0  0  0  0  0  0  0  0  0
   -0.4436    0.9899   -0.0994 C   0  0  2  0  0  0  0  0  0  0  0  0
   -0.5017    2.0756    0.1506 H   0  0  0  0  0  0  0  0  0  0  0  0
    0.8952    0.5312    0.0151 O   0  0  0  0  0  0  0  0  0  0  0  0
    1.7689    1.4108   -0.6585 C   0  0  0  0  0  0  0  0  0  0  0  0
    2.7984    1.0031   -0.5936 H   0  0  0  0  0  0  0  0  0  0  0  0
    1.5104    1.4963   -1.7371 H   0  0  0  0  0  0  0  0  0  0  0  0
    1.7745    2.4141   -0.1785 H   0  0  0  0  0  0  0  0  0  0  0  0
   -1.3507    0.2754    0.9243 C   0  0  2  0  0  0  0  0  0  0  0  0
   -2.3534    0.7597    0.8860 H   0  0  0  0  0  0  0  0  0  0  0  0
   -0.8064    0.4408    2.2699 N   0  0  0  0  0  0  0  0  0  0  0  0
   -1.4318    0.0608    3.2606 N   0  3  0  0  0  0  0  0  0  0  0  0
   -2.0562   -0.3189    4.2499 N   0  5  0  0  0  0  0  0  0  0  0  0
   -1.5144   -1.2163    0.5730 C   0  0  2  0  0  0  0  0  0  0  0  0
   -2.3300   -1.6366    1.2090 H   0  0  0  0  0  0  0  0  0  0  0  0
   -0.3090   -1.8994    0.8196 O   0  0  0  0  0  0  0  0  0  0  0  0
   -0.5463   -2.8342    1.0550 H   0  0  0  0  0  0  0  0  0  0  0  0
   -1.9242   -1.3507   -0.9063 C   0  0  2  0  0  0  0  0  0  0  0  0
   -2.9444   -0.9194   -1.0150 H   0  0  0  0  0  0  0  0  0  0  0  0
   -1.9946   -2.7044   -1.2858 O   0  0  0  0  0  0  0  0  0  0  0  0
   -1.0676   -3.0539   -1.3477 H   0  0  0  0  0  0  0  0  0  0  0  0
  1  2  1  0  0  0  0
  2  3  1  0  0  0  0
  3  4  1  0  0  0  0
  3  5  1  0  0  0  0
  3  6  1  0  0  0  0
  6  7  1  1  0  0  0
  6  8  1  0  0  0  0
  8  9  1  0  0  0  0
  9 10  1  1  0  0  0
  9 11  1  0  0  0  0
  9 16  1  0  0  0  0
 11 12  1  0  0  0  0
 12 13  1  0  0  0  0
 12 14  1  0  0  0  0
 12 15  1  0  0  0  0
 16 17  1  6  0  0  0
 16 18  1  0  0  0  0
 16 21  1  0  0  0  0
 18 19  2  0  0  0  0
 19 20  2  0  0  0  0
 21 22  1  1  0  0  0
 21 23  1  0  0  0  0
 21 25  1  0  0  0  0
 23 24  1  0  0  0  0
 25 26  1  6  0  0  0
 25 27  1  0  0  0  0
 25  6  1  0  0  0  0
 27 28  1  0  0  0  0
M  CHG  2  19   1  20  -1
M  END
>  <UniqueID>
295

>  <SMILES>
CO[C@H]1O[C@H](CO)[C@@H](O)[C@@H](O)[C@H]1N=[N+]=[N-]

>  <Energy>
27.80516321763774

>  <Genealogy>
CO[C@H]1O[C@H](CO)[C@@H](O)[C@@H](O)[C@H]1N=[N+]=[N-] (cis-trans isomerization)
CO[C@H]1O[C@H](CO)[C@@H](O)[C@@H](O)[C@H]1N=[N+]=[N-] (3D coordinates assigned)
CO[C@H]1O[C@H](CO)[C@@H](O)[C@@H](O)[C@H]1N=[N+]=[N-] (nonaromatic ring conformer: 27.80516321763774 kcal/mol)

$$$$
ZINC000394934764
 OpenBabel03032110343D

 28 28  0  0  0  0  0  0  0  0999 V2000
   -0.7165    0.9057   -4.4942 H   0  0  0  0  0  0  0  0  0  0  0  0
   -0.2801    0.4247   -3.7438 O   0  0  0  0  0  0  0  0  0  0  0  0
   -1.3048   -0.2421   -3.0599 C   0  0  0  0  0  0  0  0  0  0  0  0
   -1.8026   -0.9589   -3.7512 H   0  0  0  0  0  0  0  0  0  0  0  0
   -2.0731    0.4874   -2.7261 H   0  0  0  0  0  0  0  0  0  0  0  0
   -0.7146   -1.0244   -1.8694 C   0  0  1  0  0  0  0  0  0  0  0  0
   -0.1166   -1.8418   -2.3297 H   0  0  0  0  0  0  0  0  0  0  0  0
    0.1987   -0.2529   -1.0970 O   0  0  0  0  0  0  0  0  0  0  0  0
   -0.4430    0.7669   -0.3416 C   0  0  2  0  0  0  0  0  0  0  0  0
   -1.0317    1.4495   -0.9988 H   0  0  0  0  0  0  0  0  0  0  0  0
    0.5348    1.5111    0.3612 O   0  0  0  0  0  0  0  0  0  0  0  0
    1.2329    2.3581   -0.5263 C   0  0  0  0  0  0  0  0  0  0  0  0
    1.7206    1.7826   -1.3441 H   0  0  0  0  0  0  0  0  0  0  0  0
    0.5592    3.1362   -0.9480 H   0  0  0  0  0  0  0  0  0  0  0  0
    2.0328    2.8789    0.0388 H   0  0  0  0  0  0  0  0  0  0  0  0
   -1.4138    0.1556    0.6824 C   0  0  2  0  0  0  0  0  0  0  0  0
   -1.9383    0.9855    1.2109 H   0  0  0  0  0  0  0  0  0  0  0  0
   -0.6751   -0.6592    1.6469 N   0  0  0  0  0  0  0  0  0  0  0  0
   -0.6896   -0.3927    2.8491 N   0  3  0  0  0  0  0  0  0  0  0  0
   -0.7039   -0.1267    4.0498 N   0  5  0  0  0  0  0  0  0  0  0  0
   -2.4664   -0.6943   -0.0462 C   0  0  2  0  0  0  0  0  0  0  0  0
   -3.1034   -0.0044   -0.6480 H   0  0  0  0  0  0  0  0  0  0  0  0
   -3.2767   -1.3551    0.8923 O   0  0  0  0  0  0  0  0  0  0  0  0
   -4.0720   -1.6881    0.3997 H   0  0  0  0  0  0  0  0  0  0  0  0
   -1.7963   -1.7083   -0.9945 C   0  0  2  0  0  0  0  0  0  0  0  0
   -2.5876   -2.1395   -1.6527 H   0  0  0  0  0  0  0  0  0  0  0  0
   -1.2120   -2.7415   -0.2409 O   0  0  0  0  0  0  0  0  0  0  0  0
   -1.0903   -3.5133   -0.8537 H   0  0  0  0  0  0  0  0  0  0  0  0
  1  2  1  0  0  0  0
  2  3  1  0  0  0  0
  3  4  1  0  0  0  0
  3  5  1  0  0  0  0
  3  6  1  0  0  0  0
  6  7  1  6  0  0  0
  6  8  1  0  0  0  0
  8  9  1  0  0  0  0
  9 10  1  6  0  0  0
  9 11  1  0  0  0  0
  9 16  1  0  0  0  0
 11 12  1  0  0  0  0
 12 13  1  0  0  0  0
 12 14  1  0  0  0  0
 12 15  1  0  0  0  0
 16 17  1  1  0  0  0
 16 18  1  0  0  0  0
 16 21  1  0  0  0  0
 18 19  2  0  0  0  0
 19 20  2  0  0  0  0
 21 22  1  6  0  0  0
 21 23  1  0  0  0  0
 21 25  1  0  0  0  0
 23 24  1  0  0  0  0
 25 26  1  6  0  0  0
 25 27  1  0  0  0  0
 25  6  1  0  0  0  0
 27 28  1  0  0  0  0
M  CHG  2  19   1  20  -1
M  END
>  <UniqueID>
296

>  <SMILES>
CO[C@H]1O[C@H](CO)[C@@H](O)[C@@H](O)[C@H]1N=[N+]=[N-]

>  <Energy>
28.87785114997396

>  <Genealogy>
CO[C@H]1O[C@H](CO)[C@@H](O)[C@@H](O)[C@H]1N=[N+]=[N-] (cis-trans isomerization)
CO[C@H]1O[C@H](CO)[C@@H](O)[C@@H](O)[C@H]1N=[N+]=[N-] (3D coordinates assigned)
CO[C@H]1O[C@H](CO)[C@@H](O)[C@@H](O)[C@H]1N=[N+]=[N-] (nonaromatic ring conformer: 28.87785114997396 kcal/mol)

$$$$
ZINC000396869768
 OpenBabel03032110343D

 34 34  0  0  0  0  0  0  0  0999 V2000
   -3.2796    1.2945    1.1858 C   0  0  0  0  0  0  0  0  0  0  0  0
   -1.9101    1.2412    0.8568 O   0  0  0  0  0  0  0  0  0  0  0  0
   -1.7683    1.1624   -0.5471 C   0  0  0  0  0  0  0  0  0  0  0  0
   -0.2845    1.0548   -0.9189 C   0  0  1  0  0  0  0  0  0  0  0  0
    0.4157    2.1537   -0.3639 O   0  0  0  0  0  0  0  0  0  0  0  0
    1.6947    2.2874   -0.9677 C   0  0  1  0  0  0  0  0  0  0  0  0
    2.4148    3.2468   -0.2396 O   0  0  0  0  0  0  0  0  0  0  0  0
    2.4948    0.9427   -0.9914 C   0  0  2  0  0  0  0  0  0  0  0  0
    2.5706    0.4226   -2.3612 N   0  0  0  0  0  0  0  0  0  0  0  0
    1.8227   -0.0875   -0.0525 C   0  0  2  0  0  0  0  0  0  0  0  0
    2.4987   -1.3357   -0.1047 O   0  0  0  0  0  0  0  0  0  0  0  0
    3.4379   -1.4439    0.9424 C   0  0  0  0  0  0  0  0  0  0  0  0
    0.3342   -0.2853   -0.4315 C   0  0  2  0  0  0  0  0  0  0  0  0
    0.2251   -1.2405   -1.4789 O   0  0  0  0  0  0  0  0  0  0  0  0
   -0.4338   -2.4055   -1.0342 C   0  0  0  0  0  0  0  0  0  0  0  0
   -3.8054    0.3665    0.8687 H   0  0  0  0  0  0  0  0  0  0  0  0
   -3.3752    1.3736    2.2881 H   0  0  0  0  0  0  0  0  0  0  0  0
   -3.7677    2.1902    0.7408 H   0  0  0  0  0  0  0  0  0  0  0  0
   -2.3036    0.2745   -0.9564 H   0  0  0  0  0  0  0  0  0  0  0  0
   -2.1786    2.0800   -1.0282 H   0  0  0  0  0  0  0  0  0  0  0  0
   -0.2404    1.0991   -2.0346 H   0  0  0  0  0  0  0  0  0  0  0  0
    1.5493    2.6753   -2.0053 H   0  0  0  0  0  0  0  0  0  0  0  0
    3.1636    3.5466   -0.8193 H   0  0  0  0  0  0  0  0  0  0  0  0
    3.5325    1.1230   -0.6282 H   0  0  0  0  0  0  0  0  0  0  0  0
    3.0715    1.1261   -2.9516 H   0  0  0  0  0  0  0  0  0  0  0  0
    3.1806   -0.4267   -2.3639 H   0  0  0  0  0  0  0  0  0  0  0  0
    1.8275    0.3519    0.9776 H   0  0  0  0  0  0  0  0  0  0  0  0
    4.1688   -0.6059    0.9238 H   0  0  0  0  0  0  0  0  0  0  0  0
    4.0048   -2.3885    0.8130 H   0  0  0  0  0  0  0  0  0  0  0  0
    2.9242   -1.4900    1.9278 H   0  0  0  0  0  0  0  0  0  0  0  0
   -0.1822   -0.6006    0.5102 H   0  0  0  0  0  0  0  0  0  0  0  0
   -1.4782   -2.1776   -0.7268 H   0  0  0  0  0  0  0  0  0  0  0  0
   -0.4772   -3.1306   -1.8723 H   0  0  0  0  0  0  0  0  0  0  0  0
    0.1228   -2.8846   -0.1982 H   0  0  0  0  0  0  0  0  0  0  0  0
  1  2  1  0  0  0  0
  1 16  1  0  0  0  0
  1 17  1  0  0  0  0
  1 18  1  0  0  0  0
  2  3  1  0  0  0  0
  3  4  1  0  0  0  0
  3 19  1  0  0  0  0
  3 20  1  0  0  0  0
  4  5  1  0  0  0  0
  4 21  1  6  0  0  0
  5  6  1  0  0  0  0
  6  7  1  0  0  0  0
  6  8  1  0  0  0  0
  6 22  1  6  0  0  0
  7 23  1  0  0  0  0
  8  9  1  0  0  0  0
  8 10  1  0  0  0  0
  8 24  1  1  0  0  0
  9 25  1  0  0  0  0
  9 26  1  0  0  0  0
 10 11  1  0  0  0  0
 10 13  1  0  0  0  0
 10 27  1  1  0  0  0
 11 12  1  0  0  0  0
 12 28  1  0  0  0  0
 12 29  1  0  0  0  0
 12 30  1  0  0  0  0
 13 14  1  0  0  0  0
 13  4  1  0  0  0  0
 13 31  1  1  0  0  0
 14 15  1  0  0  0  0
 15 32  1  0  0  0  0
 15 33  1  0  0  0  0
 15 34  1  0  0  0  0
M  END
>  <UniqueID>
297

>  <SMILES>
COC[C@H]1O[C@@H](O)[C@H](N)[C@H](OC)[C@@H]1OC

>  <Energy>
44.614144359131295

>  <Genealogy>
COC[C@H]1O[C@@H](O)[C@H](N)[C@H](OC)[C@@H]1OC (3D coordinates assigned)
COC[C@H]1O[C@@H](O)[C@H](N)[C@H](OC)[C@@H]1OC (nonaromatic ring conformer: 44.614144359131295 kcal/mol)

$$$$
ZINC000396869768
 OpenBabel03032110343D

 34 34  0  0  0  0  0  0  0  0999 V2000
   -3.0841    2.1097    0.5958 C   0  0  0  0  0  0  0  0  0  0  0  0
   -1.6973    2.3220    0.7429 O   0  0  0  0  0  0  0  0  0  0  0  0
   -1.0160    1.0864    0.8658 C   0  0  0  0  0  0  0  0  0  0  0  0
   -0.4948    0.6098   -0.5092 C   0  0  1  0  0  0  0  0  0  0  0  0
    0.0265    1.6695   -1.3072 O   0  0  0  0  0  0  0  0  0  0  0  0
    1.3244    2.1049   -0.9262 C   0  0  1  0  0  0  0  0  0  0  0  0
    1.2892    2.7494    0.3219 O   0  0  0  0  0  0  0  0  0  0  0  0
    2.3596    0.9584   -0.9395 C   0  0  2  0  0  0  0  0  0  0  0  0
    2.5744    0.4888   -2.3129 N   0  0  0  0  0  0  0  0  0  0  0  0
    1.8761   -0.1879   -0.0256 C   0  0  2  0  0  0  0  0  0  0  0  0
    2.7372   -1.3125   -0.1290 O   0  0  0  0  0  0  0  0  0  0  0  0
    3.7335   -1.2771    0.8696 C   0  0  0  0  0  0  0  0  0  0  0  0
    0.4509   -0.6162   -0.4145 C   0  0  2  0  0  0  0  0  0  0  0  0
    0.4888   -1.2763   -1.6725 O   0  0  0  0  0  0  0  0  0  0  0  0
   -0.3355   -2.4213   -1.6659 C   0  0  0  0  0  0  0  0  0  0  0  0
   -3.5755    3.0895    0.4255 H   0  0  0  0  0  0  0  0  0  0  0  0
   -3.3085    1.4643   -0.2816 H   0  0  0  0  0  0  0  0  0  0  0  0
   -3.5177    1.6719    1.5218 H   0  0  0  0  0  0  0  0  0  0  0  0
   -1.6392    0.2845    1.3302 H   0  0  0  0  0  0  0  0  0  0  0  0
   -0.1738    1.2310    1.5703 H   0  0  0  0  0  0  0  0  0  0  0  0
   -1.3996    0.2513   -1.0447 H   0  0  0  0  0  0  0  0  0  0  0  0
    1.6399    2.8567   -1.6858 H   0  0  0  0  0  0  0  0  0  0  0  0
    2.1365    3.2594    0.4099 H   0  0  0  0  0  0  0  0  0  0  0  0
    3.3237    1.3514   -0.5446 H   0  0  0  0  0  0  0  0  0  0  0  0
    3.3561   -0.2058   -2.3095 H   0  0  0  0  0  0  0  0  0  0  0  0
    2.9190    1.2908   -2.8891 H   0  0  0  0  0  0  0  0  0  0  0  0
    1.8242    0.1990    1.0214 H   0  0  0  0  0  0  0  0  0  0  0  0
    3.2847   -1.4112    1.8783 H   0  0  0  0  0  0  0  0  0  0  0  0
    4.4355   -2.1186    0.6987 H   0  0  0  0  0  0  0  0  0  0  0  0
    4.3213   -0.3341    0.8281 H   0  0  0  0  0  0  0  0  0  0  0  0
    0.0900   -1.2848    0.4072 H   0  0  0  0  0  0  0  0  0  0  0  0
   -1.3824   -2.1681   -1.3872 H   0  0  0  0  0  0  0  0  0  0  0  0
   -0.3521   -2.8520   -2.6879 H   0  0  0  0  0  0  0  0  0  0  0  0
    0.0730   -3.1942   -0.9784 H   0  0  0  0  0  0  0  0  0  0  0  0
  1  2  1  0  0  0  0
  1 16  1  0  0  0  0
  1 17  1  0  0  0  0
  1 18  1  0  0  0  0
  2  3  1  0  0  0  0
  3  4  1  0  0  0  0
  3 19  1  0  0  0  0
  3 20  1  0  0  0  0
  4  5  1  0  0  0  0
  4 21  1  6  0  0  0
  5  6  1  0  0  0  0
  6  7  1  0  0  0  0
  6  8  1  0  0  0  0
  6 22  1  6  0  0  0
  7 23  1  0  0  0  0
  8  9  1  0  0  0  0
  8 10  1  0  0  0  0
  8 24  1  1  0  0  0
  9 25  1  0  0  0  0
  9 26  1  0  0  0  0
 10 11  1  0  0  0  0
 10 13  1  0  0  0  0
 10 27  1  1  0  0  0
 11 12  1  0  0  0  0
 12 28  1  0  0  0  0
 12 29  1  0  0  0  0
 12 30  1  0  0  0  0
 13 14  1  0  0  0  0
 13  4  1  0  0  0  0
 13 31  1  1  0  0  0
 14 15  1  0  0  0  0
 15 32  1  0  0  0  0
 15 33  1  0  0  0  0
 15 34  1  0  0  0  0
M  END
>  <UniqueID>
298

>  <SMILES>
COC[C@H]1O[C@@H](O)[C@H](N)[C@H](OC)[C@@H]1OC

>  <Energy>
44.952116378952

>  <Genealogy>
COC[C@H]1O[C@@H](O)[C@H](N)[C@H](OC)[C@@H]1OC (3D coordinates assigned)
COC[C@H]1O[C@@H](O)[C@H](N)[C@H](OC)[C@@H]1OC (nonaromatic ring conformer: 44.952116378952 kcal/mol)

$$$$
ZINC000575124622
 OpenBabel03032110343D

 44 46  0  0  0  0  0  0  0  0999 V2000
    1.4630   -5.4756    1.5287 H   0  0  0  0  0  0  0  0  0  0  0  0
    2.2064   -4.7899    1.5912 O   0  0  0  0  0  0  0  0  0  0  0  0
    2.1515   -3.6012    0.8690 C   0  0  0  0  0  0  0  0  0  0  0  0
    1.1281   -3.3790    0.0928 N   0  0  0  0  0  0  0  0  0  0  0  0
    0.8887   -2.1840   -0.7236 C   0  0  2  0  0  0  0  0  0  0  0  0
    1.8519   -1.7793   -1.1068 H   0  0  0  0  0  0  0  0  0  0  0  0
    0.1757   -1.0966    0.1098 C   0  0  2  0  0  0  0  0  0  0  0  0
    0.8842   -0.7050    0.8745 H   0  0  0  0  0  0  0  0  0  0  0  0
   -0.9531   -1.6461    0.7453 O   0  0  0  0  0  0  0  0  0  0  0  0
   -1.1661   -1.0591    1.5171 H   0  0  0  0  0  0  0  0  0  0  0  0
   -0.2378    0.0600   -0.8139 C   0  0  2  0  0  0  0  0  0  0  0  0
    0.6963    0.5442   -1.1846 H   0  0  0  0  0  0  0  0  0  0  0  0
   -0.9935    1.0203   -0.0974 O   0  0  0  0  0  0  0  0  0  0  0  0
   -1.6616    1.9446   -0.9561 C   0  0  1  0  0  0  0  0  0  0  0  0
   -2.7473    1.6886   -0.9581 H   0  0  0  0  0  0  0  0  0  0  0  0
   -1.4904    3.3301   -0.3932 C   0  0  0  0  0  0  0  0  0  0  0  0
   -2.6082    4.1183   -0.0667 C   0  0  0  0  0  0  0  0  0  0  0  0
   -3.6120    3.7382   -0.2088 H   0  0  0  0  0  0  0  0  0  0  0  0
   -2.4354    5.4074    0.4473 C   0  0  0  0  0  0  0  0  0  0  0  0
   -3.2992    6.0093    0.6984 H   0  0  0  0  0  0  0  0  0  0  0  0
   -1.1495    5.9206    0.6361 C   0  0  0  0  0  0  0  0  0  0  0  0
   -1.0182    6.9187    1.0337 H   0  0  0  0  0  0  0  0  0  0  0  0
   -0.0332    5.1462    0.3101 C   0  0  0  0  0  0  0  0  0  0  0  0
    0.9624    5.5453    0.4548 H   0  0  0  0  0  0  0  0  0  0  0  0
   -0.2007    3.8568   -0.2041 C   0  0  0  0  0  0  0  0  0  0  0  0
    0.6732    3.2682   -0.4553 H   0  0  0  0  0  0  0  0  0  0  0  0
   -1.1655    1.9374   -2.2887 O   0  0  0  0  0  0  0  0  0  0  0  0
   -1.4389    0.6910   -2.9035 C   0  0  0  0  0  0  0  0  0  0  0  0
   -2.5183    0.6272   -3.1674 H   0  0  0  0  0  0  0  0  0  0  0  0
   -0.8730    0.6533   -3.8589 H   0  0  0  0  0  0  0  0  0  0  0  0
   -1.0322   -0.4944   -2.0093 C   0  0  1  0  0  0  0  0  0  0  0  0
   -1.9708   -0.9782   -1.6476 H   0  0  0  0  0  0  0  0  0  0  0  0
   -0.2425   -1.4168   -2.7393 O   0  0  0  0  0  0  0  0  0  0  0  0
    0.0287   -2.5670   -1.9489 C   0  0  1  0  0  0  0  0  0  0  0  0
   -0.9214   -3.0286   -1.5774 H   0  0  0  0  0  0  0  0  0  0  0  0
    0.7573   -3.4990   -2.7259 O   0  0  0  0  0  0  0  0  0  0  0  0
   -0.1009   -4.1446   -3.6414 C   0  0  0  0  0  0  0  0  0  0  0  0
    0.5072   -4.8145   -4.2831 H   0  0  0  0  0  0  0  0  0  0  0  0
   -0.8473   -4.7754   -3.1104 H   0  0  0  0  0  0  0  0  0  0  0  0
   -0.6125   -3.4153   -4.3079 H   0  0  0  0  0  0  0  0  0  0  0  0
    3.2915   -2.6340    1.0007 C   0  0  0  0  0  0  0  0  0  0  0  0
    4.0329   -3.0218    1.7303 H   0  0  0  0  0  0  0  0  0  0  0  0
    2.9306   -1.6522    1.3663 H   0  0  0  0  0  0  0  0  0  0  0  0
    3.8008   -2.5100    0.0225 H   0  0  0  0  0  0  0  0  0  0  0  0
  1  2  1  0  0  0  0
  2  3  1  0  0  0  0
  3  4  2  0  0  0  0
  3 41  1  0  0  0  0
  4  5  1  0  0  0  0
  5  6  1  6  0  0  0
  5  7  1  0  0  0  0
  7  8  1  1  0  0  0
  7  9  1  0  0  0  0
  7 11  1  0  0  0  0
  9 10  1  0  0  0  0
 11 12  1  6  0  0  0
 11 13  1  0  0  0  0
 13 14  1  0  0  0  0
 14 15  1  6  0  0  0
 14 16  1  0  0  0  0
 14 27  1  0  0  0  0
 16 17  2  0  0  0  0
 17 18  1  0  0  0  0
 17 19  1  0  0  0  0
 19 20  1  0  0  0  0
 19 21  2  0  0  0  0
 21 22  1  0  0  0  0
 21 23  1  0  0  0  0
 23 24  1  0  0  0  0
 23 25  2  0  0  0  0
 25 26  1  0  0  0  0
 25 16  1  0  0  0  0
 27 28  1  0  0  0  0
 28 29  1  0  0  0  0
 28 30  1  0  0  0  0
 28 31  1  0  0  0  0
 31 32  1  1  0  0  0
 31 33  1  0  0  0  0
 31 11  1  0  0  0  0
 33 34  1  0  0  0  0
 34 35  1  1  0  0  0
 34 36  1  0  0  0  0
 34  5  1  0  0  0  0
 36 37  1  0  0  0  0
 37 38  1  0  0  0  0
 37 39  1  0  0  0  0
 37 40  1  0  0  0  0
 41 42  1  0  0  0  0
 41 43  1  0  0  0  0
 41 44  1  0  0  0  0
M  END
>  <UniqueID>
299

>  <SMILES>
CO[C@@H]1O[C@@H]2CO[C@H](c3ccccc3)O[C@H]2[C@@H](O)[C@H]1/N=C(\C)O

>  <Energy>
60.350453315109846

>  <Genealogy>
CO[C@@H]1O[C@@H]2CO[C@H](c3ccccc3)O[C@H]2[C@@H](O)[C@H]1N=C(C)O (tautomer)
CO[C@@H]1O[C@@H]2CO[C@H](c3ccccc3)O[C@H]2[C@@H](O)[C@H]1/N=C(\C)O (cis-trans isomerization)
CO[C@@H]1O[C@@H]2CO[C@H](c3ccccc3)O[C@H]2[C@@H](O)[C@H]1/N=C(\C)O (3D coordinates assigned)
CO[C@@H]1O[C@@H]2CO[C@H](c3ccccc3)O[C@H]2[C@@H](O)[C@H]1/N=C(\C)O (nonaromatic ring conformer: 60.350453315109846 kcal/mol)

$$$$
ZINC000575124622
 OpenBabel03032110343D

 44 46  0  0  0  0  0  0  0  0999 V2000
    4.7156    2.3868   -3.7049 H   0  0  0  0  0  0  0  0  0  0  0  0
    5.1203    2.4594   -2.7792 O   0  0  0  0  0  0  0  0  0  0  0  0
    4.3575    2.2170   -1.6394 C   0  0  0  0  0  0  0  0  0  0  0  0
    3.1152    1.8409   -1.7742 N   0  0  0  0  0  0  0  0  0  0  0  0
    2.1496    1.5707   -0.7030 C   0  0  2  0  0  0  0  0  0  0  0  0
    2.6740    1.3348    0.2504 H   0  0  0  0  0  0  0  0  0  0  0  0
    1.2950    0.3387   -1.0746 C   0  0  2  0  0  0  0  0  0  0  0  0
    1.9380   -0.5736   -1.0513 H   0  0  0  0  0  0  0  0  0  0  0  0
    0.7264    0.4919   -2.3524 O   0  0  0  0  0  0  0  0  0  0  0  0
    1.4098    0.2025   -3.0125 H   0  0  0  0  0  0  0  0  0  0  0  0
    0.1782    0.1685   -0.0341 C   0  0  2  0  0  0  0  0  0  0  0  0
    0.6605   -0.0886    0.9397 H   0  0  0  0  0  0  0  0  0  0  0  0
   -0.6846   -0.8924   -0.4049 O   0  0  0  0  0  0  0  0  0  0  0  0
   -1.9183   -0.8759    0.3169 C   0  0  1  0  0  0  0  0  0  0  0  0
   -2.7113   -0.4906   -0.3670 H   0  0  0  0  0  0  0  0  0  0  0  0
   -2.3267   -2.2772    0.7115 C   0  0  0  0  0  0  0  0  0  0  0  0
   -3.6064   -2.4809    1.2638 C   0  0  0  0  0  0  0  0  0  0  0  0
   -4.2978   -1.6542    1.3603 H   0  0  0  0  0  0  0  0  0  0  0  0
   -3.9896   -3.7446    1.7169 C   0  0  0  0  0  0  0  0  0  0  0  0
   -4.9711   -3.8874    2.1567 H   0  0  0  0  0  0  0  0  0  0  0  0
   -3.1036   -4.8207    1.6169 C   0  0  0  0  0  0  0  0  0  0  0  0
   -3.3992   -5.7966    1.9777 H   0  0  0  0  0  0  0  0  0  0  0  0
   -1.8338   -4.6366    1.0564 C   0  0  0  0  0  0  0  0  0  0  0  0
   -1.1465   -5.4697    0.9866 H   0  0  0  0  0  0  0  0  0  0  0  0
   -1.4426   -3.3727    0.6063 C   0  0  0  0  0  0  0  0  0  0  0  0
   -0.4453   -3.2546    0.1953 H   0  0  0  0  0  0  0  0  0  0  0  0
   -1.8614   -0.0838    1.4963 O   0  0  0  0  0  0  0  0  0  0  0  0
   -1.7081    1.2831    1.1562 C   0  0  0  0  0  0  0  0  0  0  0  0
   -2.6744    1.6923    0.7803 H   0  0  0  0  0  0  0  0  0  0  0  0
   -1.4629    1.8401    2.0878 H   0  0  0  0  0  0  0  0  0  0  0  0
   -0.5934    1.4940    0.1160 C   0  0  1  0  0  0  0  0  0  0  0  0
   -1.0848    1.7587   -0.8512 H   0  0  0  0  0  0  0  0  0  0  0  0
    0.2796    2.5281    0.5325 O   0  0  0  0  0  0  0  0  0  0  0  0
    1.2371    2.8025   -0.4823 C   0  0  1  0  0  0  0  0  0  0  0  0
    0.7314    3.0366   -1.4542 H   0  0  0  0  0  0  0  0  0  0  0  0
    2.0379    3.8940   -0.0721 O   0  0  0  0  0  0  0  0  0  0  0  0
    1.3254    5.1034   -0.2227 C   0  0  0  0  0  0  0  0  0  0  0  0
    0.3565    5.0847    0.3231 H   0  0  0  0  0  0  0  0  0  0  0  0
    1.1599    5.3297   -1.3006 H   0  0  0  0  0  0  0  0  0  0  0  0
    1.9336    5.9276    0.2046 H   0  0  0  0  0  0  0  0  0  0  0  0
    5.0117    2.3823   -0.2977 C   0  0  0  0  0  0  0  0  0  0  0  0
    5.0830    1.3992    0.2120 H   0  0  0  0  0  0  0  0  0  0  0  0
    6.0388    2.7844   -0.4258 H   0  0  0  0  0  0  0  0  0  0  0  0
    4.4399    3.0930    0.3323 H   0  0  0  0  0  0  0  0  0  0  0  0
  1  2  1  0  0  0  0
  2  3  1  0  0  0  0
  3  4  2  0  0  0  0
  3 41  1  0  0  0  0
  4  5  1  0  0  0  0
  5  6  1  1  0  0  0
  5  7  1  0  0  0  0
  7  8  1  1  0  0  0
  7  9  1  0  0  0  0
  7 11  1  0  0  0  0
  9 10  1  0  0  0  0
 11 12  1  1  0  0  0
 11 13  1  0  0  0  0
 13 14  1  0  0  0  0
 14 15  1  6  0  0  0
 14 16  1  0  0  0  0
 14 27  1  0  0  0  0
 16 17  2  0  0  0  0
 17 18  1  0  0  0  0
 17 19  1  0  0  0  0
 19 20  1  0  0  0  0
 19 21  2  0  0  0  0
 21 22  1  0  0  0  0
 21 23  1  0  0  0  0
 23 24  1  0  0  0  0
 23 25  2  0  0  0  0
 25 26  1  0  0  0  0
 25 16  1  0  0  0  0
 27 28  1  0  0  0  0
 28 29  1  0  0  0  0
 28 30  1  0  0  0  0
 28 31  1  0  0  0  0
 31 32  1  6  0  0  0
 31 33  1  0  0  0  0
 31 11  1  0  0  0  0
 33 34  1  0  0  0  0
 34 35  1  6  0  0  0
 34 36  1  0  0  0  0
 34  5  1  0  0  0  0
 36 37  1  0  0  0  0
 37 38  1  0  0  0  0
 37 39  1  0  0  0  0
 37 40  1  0  0  0  0
 41 42  1  0  0  0  0
 41 43  1  0  0  0  0
 41 44  1  0  0  0  0
M  END
>  <UniqueID>
300

>  <SMILES>
CO[C@@H]1O[C@@H]2CO[C@H](c3ccccc3)O[C@H]2[C@@H](O)[C@H]1/N=C(/C)O

>  <Energy>
63.05752254387501

>  <Genealogy>
CO[C@@H]1O[C@@H]2CO[C@H](c3ccccc3)O[C@H]2[C@@H](O)[C@H]1N=C(C)O (tautomer)
CO[C@@H]1O[C@@H]2CO[C@H](c3ccccc3)O[C@H]2[C@@H](O)[C@H]1/N=C(/C)O (cis-trans isomerization)
CO[C@@H]1O[C@@H]2CO[C@H](c3ccccc3)O[C@H]2[C@@H](O)[C@H]1/N=C(/C)O (3D coordinates assigned)
CO[C@@H]1O[C@@H]2CO[C@H](c3ccccc3)O[C@H]2[C@@H](O)[C@H]1/N=C(/C)O (nonaromatic ring conformer: 63.05752254387501 kcal/mol)

$$$$
ZINC000575124647
 OpenBabel03032110343D

 39 39  0  0  0  0  0  0  0  0999 V2000
    3.3673    1.6348    2.0111 C   0  0  0  0  0  0  0  0  0  0  0  0
    3.3572    0.1202    1.8122 C   0  0  0  0  0  0  0  0  0  0  0  0
    1.9488   -0.4081    1.5390 C   0  0  0  0  0  0  0  0  0  0  0  0
    1.4736    0.1214    0.3175 O   0  0  0  0  0  0  0  0  0  0  0  0
    0.1941   -0.4033    0.0188 C   0  0  2  0  0  0  0  0  0  0  0  0
    0.3407   -1.7306   -0.4626 O   0  0  0  0  0  0  0  0  0  0  0  0
   -0.9260   -2.3297   -0.6806 C   0  0  2  0  0  0  0  0  0  0  0  0
   -0.7092   -3.8044   -1.0488 C   0  0  0  0  0  0  0  0  0  0  0  0
   -0.0032   -4.4642   -0.0326 O   0  0  0  0  0  0  0  0  0  0  0  0
   -1.6771   -1.5856   -1.8155 C   0  0  1  0  0  0  0  0  0  0  0  0
   -2.9330   -2.1620   -2.0831 O   0  0  0  0  0  0  0  0  0  0  0  0
   -1.8226   -0.0900   -1.4747 C   0  0  1  0  0  0  0  0  0  0  0  0
   -2.7448    0.0743   -0.4246 O   0  0  0  0  0  0  0  0  0  0  0  0
   -0.4464    0.4823   -1.0724 C   0  0  1  0  0  0  0  0  0  0  0  0
   -0.5777    1.8680   -0.6063 N   0  0  0  0  0  0  0  0  0  0  0  0
   -0.7934    2.9631   -1.5066 C   0  0  0  0  0  0  0  0  0  0  0  0
   -0.9391    4.3493   -0.9696 C   0  0  0  0  0  0  0  0  0  0  0  0
   -0.8652    2.7650   -2.7497 O   0  0  0  0  0  0  0  0  0  0  0  0
    3.0120    2.1503    1.0937 H   0  0  0  0  0  0  0  0  0  0  0  0
    4.4023    1.9734    2.2278 H   0  0  0  0  0  0  0  0  0  0  0  0
    2.7157    1.9166    2.8656 H   0  0  0  0  0  0  0  0  0  0  0  0
    3.7553   -0.3658    2.7291 H   0  0  0  0  0  0  0  0  0  0  0  0
    4.0242   -0.1449    0.9633 H   0  0  0  0  0  0  0  0  0  0  0  0
    2.0029   -1.5195    1.4917 H   0  0  0  0  0  0  0  0  0  0  0  0
    1.2858   -0.1139    2.3848 H   0  0  0  0  0  0  0  0  0  0  0  0
   -0.4628   -0.3760    0.9248 H   0  0  0  0  0  0  0  0  0  0  0  0
   -1.5334   -2.3065    0.2548 H   0  0  0  0  0  0  0  0  0  0  0  0
   -0.1184   -3.8714   -1.9875 H   0  0  0  0  0  0  0  0  0  0  0  0
   -1.6852   -4.3120   -1.2237 H   0  0  0  0  0  0  0  0  0  0  0  0
   -0.6459   -4.6130    0.7095 H   0  0  0  0  0  0  0  0  0  0  0  0
   -1.0677   -1.6631   -2.7437 H   0  0  0  0  0  0  0  0  0  0  0  0
   -3.4324   -2.2180   -1.2271 H   0  0  0  0  0  0  0  0  0  0  0  0
   -2.1899    0.4342   -2.3883 H   0  0  0  0  0  0  0  0  0  0  0  0
   -3.1202    0.9896   -0.5076 H   0  0  0  0  0  0  0  0  0  0  0  0
    0.2255    0.4634   -1.9607 H   0  0  0  0  0  0  0  0  0  0  0  0
   -0.4845    2.0794    0.4137 H   0  0  0  0  0  0  0  0  0  0  0  0
   -1.8454    4.4052   -0.3309 H   0  0  0  0  0  0  0  0  0  0  0  0
   -1.0349    5.0830   -1.7984 H   0  0  0  0  0  0  0  0  0  0  0  0
   -0.0469    4.6081   -0.3619 H   0  0  0  0  0  0  0  0  0  0  0  0
  1  2  1  0  0  0  0
  1 19  1  0  0  0  0
  1 20  1  0  0  0  0
  1 21  1  0  0  0  0
  2  3  1  0  0  0  0
  2 22  1  0  0  0  0
  2 23  1  0  0  0  0
  3  4  1  0  0  0  0
  3 24  1  0  0  0  0
  3 25  1  0  0  0  0
  4  5  1  0  0  0  0
  5  6  1  0  0  0  0
  5 26  1  1  0  0  0
  6  7  1  0  0  0  0
  7  8  1  0  0  0  0
  7 10  1  0  0  0  0
  7 27  1  1  0  0  0
  8  9  1  0  0  0  0
  8 28  1  0  0  0  0
  8 29  1  0  0  0  0
  9 30  1  0  0  0  0
 10 11  1  0  0  0  0
 10 12  1  0  0  0  0
 10 31  1  6  0  0  0
 11 32  1  0  0  0  0
 12 13  1  0  0  0  0
 12 14  1  0  0  0  0
 12 33  1  6  0  0  0
 13 34  1  0  0  0  0
 14 15  1  0  0  0  0
 14  5  1  0  0  0  0
 14 35  1  6  0  0  0
 15 16  1  0  0  0  0
 15 36  1  0  0  0  0
 16 17  1  0  0  0  0
 16 18  2  0  0  0  0
 17 37  1  0  0  0  0
 17 38  1  0  0  0  0
 17 39  1  0  0  0  0
M  END
>  <UniqueID>
301

>  <SMILES>
CCCO[C@@H]1O[C@H](CO)[C@@H](O)[C@@H](O)[C@H]1NC(C)=O

>  <Energy>
29.690005671956637

>  <Genealogy>
CCCO[C@@H]1O[C@H](CO)[C@@H](O)[C@@H](O)[C@H]1NC(C)=O (3D coordinates assigned)
CCCO[C@@H]1O[C@H](CO)[C@@H](O)[C@@H](O)[C@H]1NC(C)=O (nonaromatic ring conformer: 29.690005671956637 kcal/mol)

$$$$
ZINC000575124647
 OpenBabel03032110343D

 39 39  0  0  0  0  0  0  0  0999 V2000
    0.6360    2.6812   -2.7272 H   0  0  0  0  0  0  0  0  0  0  0  0
    0.4738    2.2273   -1.8363 O   0  0  0  0  0  0  0  0  0  0  0  0
    1.5318    1.7270   -1.0781 C   0  0  0  0  0  0  0  0  0  0  0  0
    1.3161    1.1591    0.0710 N   0  0  0  0  0  0  0  0  0  0  0  0
   -0.0071    0.9403    0.6623 C   0  0  2  0  0  0  0  0  0  0  0  0
   -0.6763    1.7969    0.4171 H   0  0  0  0  0  0  0  0  0  0  0  0
    0.1218    0.8827    2.2008 C   0  0  2  0  0  0  0  0  0  0  0  0
    0.3008    1.9205    2.5590 H   0  0  0  0  0  0  0  0  0  0  0  0
    1.2311    0.1153    2.6098 O   0  0  0  0  0  0  0  0  0  0  0  0
    1.0958   -0.8181    2.3083 H   0  0  0  0  0  0  0  0  0  0  0  0
   -1.1886    0.3864    2.8524 C   0  0  2  0  0  0  0  0  0  0  0  0
   -1.9459    1.2002    2.7612 H   0  0  0  0  0  0  0  0  0  0  0  0
   -0.9744    0.0901    4.2088 O   0  0  0  0  0  0  0  0  0  0  0  0
   -0.8866    0.9593    4.6805 H   0  0  0  0  0  0  0  0  0  0  0  0
   -1.7268   -0.8635    2.1165 C   0  0  1  0  0  0  0  0  0  0  0  0
   -1.0247   -1.7174    2.2591 H   0  0  0  0  0  0  0  0  0  0  0  0
   -3.0758   -1.3217    2.6917 C   0  0  0  0  0  0  0  0  0  0  0  0
   -3.3799   -2.2594    2.1794 H   0  0  0  0  0  0  0  0  0  0  0  0
   -2.9796   -1.5621    3.7761 H   0  0  0  0  0  0  0  0  0  0  0  0
   -4.0720   -0.3579    2.4704 O   0  0  0  0  0  0  0  0  0  0  0  0
   -4.1084    0.2123    3.2820 H   0  0  0  0  0  0  0  0  0  0  0  0
   -1.8957   -0.5869    0.7374 O   0  0  0  0  0  0  0  0  0  0  0  0
   -0.6423   -0.3577    0.1129 C   0  0  1  0  0  0  0  0  0  0  0  0
    0.0638   -1.2045    0.2961 H   0  0  0  0  0  0  0  0  0  0  0  0
   -0.8477   -0.2055   -1.2778 O   0  0  0  0  0  0  0  0  0  0  0  0
   -1.1856   -1.4379   -1.8910 C   0  0  0  0  0  0  0  0  0  0  0  0
   -2.1829   -1.3208   -2.3656 H   0  0  0  0  0  0  0  0  0  0  0  0
   -1.2692   -2.3049   -1.1916 H   0  0  0  0  0  0  0  0  0  0  0  0
   -0.1715   -1.7666   -2.9880 C   0  0  0  0  0  0  0  0  0  0  0  0
   -0.1024   -0.9145   -3.6986 H   0  0  0  0  0  0  0  0  0  0  0  0
   -0.5230   -2.6584   -3.5507 H   0  0  0  0  0  0  0  0  0  0  0  0
    1.2126   -2.0595   -2.4134 C   0  0  0  0  0  0  0  0  0  0  0  0
    1.9053   -2.3336   -3.2366 H   0  0  0  0  0  0  0  0  0  0  0  0
    1.1619   -2.9052   -1.6950 H   0  0  0  0  0  0  0  0  0  0  0  0
    1.6174   -1.1637   -1.8976 H   0  0  0  0  0  0  0  0  0  0  0  0
    2.9340    1.8752   -1.5731 C   0  0  0  0  0  0  0  0  0  0  0  0
    3.6134    1.1715   -1.0461 H   0  0  0  0  0  0  0  0  0  0  0  0
    3.2791    2.9152   -1.3978 H   0  0  0  0  0  0  0  0  0  0  0  0
    2.9723    1.6558   -2.6606 H   0  0  0  0  0  0  0  0  0  0  0  0
  1  2  1  0  0  0  0
  2  3  1  0  0  0  0
  3  4  2  0  0  0  0
  3 36  1  0  0  0  0
  4  5  1  0  0  0  0
  5  6  1  6  0  0  0
  5  7  1  0  0  0  0
  7  8  1  1  0  0  0
  7  9  1  0  0  0  0
  7 11  1  0  0  0  0
  9 10  1  0  0  0  0
 11 12  1  6  0  0  0
 11 13  1  0  0  0  0
 11 15  1  0  0  0  0
 13 14  1  0  0  0  0
 15 16  1  1  0  0  0
 15 17  1  0  0  0  0
 15 22  1  0  0  0  0
 17 18  1  0  0  0  0
 17 19  1  0  0  0  0
 17 20  1  0  0  0  0
 20 21  1  0  0  0  0
 22 23  1  0  0  0  0
 23 24  1  1  0  0  0
 23 25  1  0  0  0  0
 23  5  1  0  0  0  0
 25 26  1  0  0  0  0
 26 27  1  0  0  0  0
 26 28  1  0  0  0  0
 26 29  1  0  0  0  0
 29 30  1  0  0  0  0
 29 31  1  0  0  0  0
 29 32  1  0  0  0  0
 32 33  1  0  0  0  0
 32 34  1  0  0  0  0
 32 35  1  0  0  0  0
 36 37  1  0  0  0  0
 36 38  1  0  0  0  0
 36 39  1  0  0  0  0
M  END
>  <UniqueID>
302

>  <SMILES>
CCCO[C@@H]1O[C@H](CO)[C@@H](O)[C@@H](O)[C@H]1/N=C(/C)O

>  <Energy>
33.087308244186005

>  <Genealogy>
CCCO[C@@H]1O[C@H](CO)[C@@H](O)[C@@H](O)[C@H]1N=C(C)O (tautomer)
CCCO[C@@H]1O[C@H](CO)[C@@H](O)[C@@H](O)[C@H]1/N=C(/C)O (cis-trans isomerization)
CCCO[C@@H]1O[C@H](CO)[C@@H](O)[C@@H](O)[C@H]1/N=C(/C)O (3D coordinates assigned)
CCCO[C@@H]1O[C@H](CO)[C@@H](O)[C@@H](O)[C@H]1/N=C(/C)O (nonaromatic ring conformer: 33.087308244186005 kcal/mol)

$$$$
ZINC000616582453
 OpenBabel03032110343D

 48 48  0  0  0  0  0  0  0  0999 V2000
   -3.5965    2.6140   -0.7162 H   0  0  0  0  0  0  0  0  0  0  0  0
   -2.7834    2.0124   -0.6641 O   0  0  0  0  0  0  0  0  0  0  0  0
   -2.7415    0.9281    0.2120 C   0  0  0  0  0  0  0  0  0  0  0  0
   -1.6825    0.1803    0.2893 N   0  0  0  0  0  0  0  0  0  0  0  0
   -0.4743    0.3649   -0.5183 C   0  0  2  0  0  0  0  0  0  0  0  0
   -0.2102    1.4471   -0.5510 H   0  0  0  0  0  0  0  0  0  0  0  0
   -0.6922   -0.1476   -1.9544 C   0  0  2  0  0  0  0  0  0  0  0  0
   -1.4111    0.5350   -2.4657 H   0  0  0  0  0  0  0  0  0  0  0  0
   -1.2156   -1.4535   -1.9179 O   0  0  0  0  0  0  0  0  0  0  0  0
   -1.7069   -1.5935   -2.7691 H   0  0  0  0  0  0  0  0  0  0  0  0
    0.6449   -0.1266   -2.7241 C   0  0  2  0  0  0  0  0  0  0  0  0
    0.9512    0.9360   -2.8751 H   0  0  0  0  0  0  0  0  0  0  0  0
    0.4913   -0.7542   -3.9714 O   0  0  0  0  0  0  0  0  0  0  0  0
   -0.0182   -0.1256   -4.5467 H   0  0  0  0  0  0  0  0  0  0  0  0
    1.7456   -0.8379   -1.8971 C   0  0  1  0  0  0  0  0  0  0  0  0
    1.4930   -1.9181   -1.7788 H   0  0  0  0  0  0  0  0  0  0  0  0
    3.1129   -0.7600   -2.5971 C   0  0  0  0  0  0  0  0  0  0  0  0
    3.3539    0.2971   -2.8396 H   0  0  0  0  0  0  0  0  0  0  0  0
    3.9074   -1.1307   -1.9095 H   0  0  0  0  0  0  0  0  0  0  0  0
    3.1233   -1.5116   -3.7813 O   0  0  0  0  0  0  0  0  0  0  0  0
    3.1730   -2.4660   -3.5123 H   0  0  0  0  0  0  0  0  0  0  0  0
    1.8742   -0.2231   -0.6252 O   0  0  0  0  0  0  0  0  0  0  0  0
    0.6926   -0.3911    0.1398 C   0  0  1  0  0  0  0  0  0  0  0  0
    0.4111   -1.4732    0.2029 H   0  0  0  0  0  0  0  0  0  0  0  0
    0.8998    0.1700    1.4218 O   0  0  0  0  0  0  0  0  0  0  0  0
    1.4744   -0.7768    2.2985 C   0  0  0  0  0  0  0  0  0  0  0  0
    2.4884   -1.0666    1.9417 H   0  0  0  0  0  0  0  0  0  0  0  0
    0.8496   -1.6955    2.3723 H   0  0  0  0  0  0  0  0  0  0  0  0
    1.6039   -0.1709    3.7007 C   0  0  0  0  0  0  0  0  0  0  0  0
    1.9172   -0.9646    4.4135 H   0  0  0  0  0  0  0  0  0  0  0  0
    2.4085    0.5961    3.6822 H   0  0  0  0  0  0  0  0  0  0  0  0
    0.3120    0.4967    4.2085 C   0  0  0  0  0  0  0  0  0  0  0  0
    0.5163    0.9117    5.2198 H   0  0  0  0  0  0  0  0  0  0  0  0
    0.0465    1.3502    3.5470 H   0  0  0  0  0  0  0  0  0  0  0  0
   -0.8733   -0.4764    4.2961 C   0  0  0  0  0  0  0  0  0  0  0  0
   -1.1389   -0.8332    3.2776 H   0  0  0  0  0  0  0  0  0  0  0  0
   -0.5883   -1.3522    4.9196 H   0  0  0  0  0  0  0  0  0  0  0  0
   -2.1001    0.2089    4.9085 C   0  0  0  0  0  0  0  0  0  0  0  0
   -1.8635    0.5508    5.9396 H   0  0  0  0  0  0  0  0  0  0  0  0
   -2.3773    1.0959    4.2979 H   0  0  0  0  0  0  0  0  0  0  0  0
   -3.2922   -0.7418    4.9644 C   0  0  0  0  0  0  0  0  0  0  0  0
   -3.0508   -1.6265    5.5915 H   0  0  0  0  0  0  0  0  0  0  0  0
   -3.5648   -1.0801    3.9422 H   0  0  0  0  0  0  0  0  0  0  0  0
   -4.1646   -0.2182    5.4089 H   0  0  0  0  0  0  0  0  0  0  0  0
   -3.9039    0.6458    1.1081 C   0  0  0  0  0  0  0  0  0  0  0  0
   -3.9310   -0.4303    1.3825 H   0  0  0  0  0  0  0  0  0  0  0  0
   -3.8140    1.2545    2.0316 H   0  0  0  0  0  0  0  0  0  0  0  0
   -4.8525    0.9028    0.5921 H   0  0  0  0  0  0  0  0  0  0  0  0
  1  2  1  0  0  0  0
  2  3  1  0  0  0  0
  3  4  2  0  0  0  0
  3 45  1  0  0  0  0
  4  5  1  0  0  0  0
  5  6  1  6  0  0  0
  5  7  1  0  0  0  0
  7  8  1  6  0  0  0
  7  9  1  0  0  0  0
  7 11  1  0  0  0  0
  9 10  1  0  0  0  0
 11 12  1  6  0  0  0
 11 13  1  0  0  0  0
 11 15  1  0  0  0  0
 13 14  1  0  0  0  0
 15 16  1  1  0  0  0
 15 17  1  0  0  0  0
 15 22  1  0  0  0  0
 17 18  1  0  0  0  0
 17 19  1  0  0  0  0
 17 20  1  0  0  0  0
 20 21  1  0  0  0  0
 22 23  1  0  0  0  0
 23 24  1  1  0  0  0
 23 25  1  0  0  0  0
 23  5  1  0  0  0  0
 25 26  1  0  0  0  0
 26 27  1  0  0  0  0
 26 28  1  0  0  0  0
 26 29  1  0  0  0  0
 29 30  1  0  0  0  0
 29 31  1  0  0  0  0
 29 32  1  0  0  0  0
 32 33  1  0  0  0  0
 32 34  1  0  0  0  0
 32 35  1  0  0  0  0
 35 36  1  0  0  0  0
 35 37  1  0  0  0  0
 35 38  1  0  0  0  0
 38 39  1  0  0  0  0
 38 40  1  0  0  0  0
 38 41  1  0  0  0  0
 41 42  1  0  0  0  0
 41 43  1  0  0  0  0
 41 44  1  0  0  0  0
 45 46  1  0  0  0  0
 45 47  1  0  0  0  0
 45 48  1  0  0  0  0
M  END
>  <UniqueID>
303

>  <SMILES>
CCCCCCO[C@@H]1O[C@H](CO)[C@@H](O)[C@@H](O)[C@H]1/N=C(\C)O

>  <Energy>
32.06241750876545

>  <Genealogy>
CCCCCCO[C@@H]1O[C@H](CO)[C@@H](O)[C@@H](O)[C@H]1N=C(C)O (tautomer)
CCCCCCO[C@@H]1O[C@H](CO)[C@@H](O)[C@@H](O)[C@H]1/N=C(\C)O (cis-trans isomerization)
CCCCCCO[C@@H]1O[C@H](CO)[C@@H](O)[C@@H](O)[C@H]1/N=C(\C)O (3D coordinates assigned)
CCCCCCO[C@@H]1O[C@H](CO)[C@@H](O)[C@@H](O)[C@H]1/N=C(\C)O (nonaromatic ring conformer: 32.06241750876545 kcal/mol)

$$$$
ZINC000616582453
 OpenBabel03032110343D

 48 48  0  0  0  0  0  0  0  0999 V2000
    3.6076   -1.7932   -2.6205 H   0  0  0  0  0  0  0  0  0  0  0  0
    2.9545   -1.0208   -2.5656 O   0  0  0  0  0  0  0  0  0  0  0  0
    1.6170   -1.2163   -2.2308 C   0  0  0  0  0  0  0  0  0  0  0  0
    0.8326   -0.1770   -2.1940 N   0  0  0  0  0  0  0  0  0  0  0  0
   -0.5936   -0.1531   -1.8476 C   0  0  2  0  0  0  0  0  0  0  0  0
   -1.0557   -1.1530   -2.0023 H   0  0  0  0  0  0  0  0  0  0  0  0
   -1.3305    0.8417   -2.7647 C   0  0  2  0  0  0  0  0  0  0  0  0
   -1.3464    0.4312   -3.8026 H   0  0  0  0  0  0  0  0  0  0  0  0
   -0.6879    2.0942   -2.7539 O   0  0  0  0  0  0  0  0  0  0  0  0
    0.0332    2.0581   -3.4353 H   0  0  0  0  0  0  0  0  0  0  0  0
   -2.7877    1.0082   -2.2943 C   0  0  2  0  0  0  0  0  0  0  0  0
   -3.3317    0.0491   -2.4681 H   0  0  0  0  0  0  0  0  0  0  0  0
   -3.4062    2.0409   -3.0186 O   0  0  0  0  0  0  0  0  0  0  0  0
   -3.5949    1.6814   -3.9247 H   0  0  0  0  0  0  0  0  0  0  0  0
   -2.8223    1.3224   -0.7775 C   0  0  1  0  0  0  0  0  0  0  0  0
   -2.3388    2.3086   -0.5821 H   0  0  0  0  0  0  0  0  0  0  0  0
   -4.2660    1.4070   -0.2541 C   0  0  0  0  0  0  0  0  0  0  0  0
   -4.8218    0.4845   -0.5269 H   0  0  0  0  0  0  0  0  0  0  0  0
   -4.2580    1.4713    0.8582 H   0  0  0  0  0  0  0  0  0  0  0  0
   -4.9377    2.5167   -0.7876 O   0  0  0  0  0  0  0  0  0  0  0  0
   -4.5852    3.3164   -0.3165 H   0  0  0  0  0  0  0  0  0  0  0  0
   -2.1579    0.3002   -0.0531 O   0  0  0  0  0  0  0  0  0  0  0  0
   -0.7769    0.2662   -0.3750 C   0  0  1  0  0  0  0  0  0  0  0  0
   -0.3087    1.2738   -0.2381 H   0  0  0  0  0  0  0  0  0  0  0  0
   -0.1434   -0.6923    0.4505 O   0  0  0  0  0  0  0  0  0  0  0  0
    0.1234   -0.1659    1.7369 C   0  0  0  0  0  0  0  0  0  0  0  0
   -0.0144   -0.9912    2.4657 H   0  0  0  0  0  0  0  0  0  0  0  0
   -0.5810    0.6463    2.0380 H   0  0  0  0  0  0  0  0  0  0  0  0
    1.5763    0.3210    1.8086 C   0  0  0  0  0  0  0  0  0  0  0  0
    2.2673   -0.5353    1.6595 H   0  0  0  0  0  0  0  0  0  0  0  0
    1.7594    1.0278    0.9710 H   0  0  0  0  0  0  0  0  0  0  0  0
    1.9020    1.0564    3.1208 C   0  0  0  0  0  0  0  0  0  0  0  0
    1.2398    1.9454    3.2071 H   0  0  0  0  0  0  0  0  0  0  0  0
    2.9456    1.4357    3.0642 H   0  0  0  0  0  0  0  0  0  0  0  0
    1.7498    0.2065    4.3951 C   0  0  0  0  0  0  0  0  0  0  0  0
    1.9718    0.8635    5.2647 H   0  0  0  0  0  0  0  0  0  0  0  0
    0.6992   -0.1360    4.5072 H   0  0  0  0  0  0  0  0  0  0  0  0
    2.7025   -0.9972    4.4279 C   0  0  0  0  0  0  0  0  0  0  0  0
    3.7449   -0.6594    4.2404 H   0  0  0  0  0  0  0  0  0  0  0  0
    2.4183   -1.7280    3.6415 H   0  0  0  0  0  0  0  0  0  0  0  0
    2.6485   -1.7043    5.7792 C   0  0  0  0  0  0  0  0  0  0  0  0
    2.9644   -1.0137    6.5899 H   0  0  0  0  0  0  0  0  0  0  0  0
    1.6179   -2.0648    5.9846 H   0  0  0  0  0  0  0  0  0  0  0  0
    3.3350   -2.5771    5.7699 H   0  0  0  0  0  0  0  0  0  0  0  0
    1.1224   -2.6108   -1.9553 C   0  0  0  0  0  0  0  0  0  0  0  0
    1.9662   -3.3315   -1.9612 H   0  0  0  0  0  0  0  0  0  0  0  0
    0.4009   -2.9155   -2.7418 H   0  0  0  0  0  0  0  0  0  0  0  0
    0.6363   -2.6654   -0.9610 H   0  0  0  0  0  0  0  0  0  0  0  0
  1  2  1  0  0  0  0
  2  3  1  0  0  0  0
  3  4  2  0  0  0  0
  3 45  1  0  0  0  0
  4  5  1  0  0  0  0
  5  6  1  6  0  0  0
  5  7  1  0  0  0  0
  7  8  1  6  0  0  0
  7  9  1  0  0  0  0
  7 11  1  0  0  0  0
  9 10  1  0  0  0  0
 11 12  1  6  0  0  0
 11 13  1  0  0  0  0
 11 15  1  0  0  0  0
 13 14  1  0  0  0  0
 15 16  1  1  0  0  0
 15 17  1  0  0  0  0
 15 22  1  0  0  0  0
 17 18  1  0  0  0  0
 17 19  1  0  0  0  0
 17 20  1  0  0  0  0
 20 21  1  0  0  0  0
 22 23  1  0  0  0  0
 23 24  1  1  0  0  0
 23 25  1  0  0  0  0
 23  5  1  0  0  0  0
 25 26  1  0  0  0  0
 26 27  1  0  0  0  0
 26 28  1  0  0  0  0
 26 29  1  0  0  0  0
 29 30  1  0  0  0  0
 29 31  1  0  0  0  0
 29 32  1  0  0  0  0
 32 33  1  0  0  0  0
 32 34  1  0  0  0  0
 32 35  1  0  0  0  0
 35 36  1  0  0  0  0
 35 37  1  0  0  0  0
 35 38  1  0  0  0  0
 38 39  1  0  0  0  0
 38 40  1  0  0  0  0
 38 41  1  0  0  0  0
 41 42  1  0  0  0  0
 41 43  1  0  0  0  0
 41 44  1  0  0  0  0
 45 46  1  0  0  0  0
 45 47  1  0  0  0  0
 45 48  1  0  0  0  0
M  END
>  <UniqueID>
304

>  <SMILES>
CCCCCCO[C@@H]1O[C@H](CO)[C@@H](O)[C@@H](O)[C@H]1/N=C(/C)O

>  <Energy>
38.581491128033065

>  <Genealogy>
CCCCCCO[C@@H]1O[C@H](CO)[C@@H](O)[C@@H](O)[C@H]1N=C(C)O (tautomer)
CCCCCCO[C@@H]1O[C@H](CO)[C@@H](O)[C@@H](O)[C@H]1/N=C(/C)O (cis-trans isomerization)
CCCCCCO[C@@H]1O[C@H](CO)[C@@H](O)[C@@H](O)[C@H]1/N=C(/C)O (3D coordinates assigned)
CCCCCCO[C@@H]1O[C@H](CO)[C@@H](O)[C@@H](O)[C@H]1/N=C(/C)O (nonaromatic ring conformer: 38.581491128033065 kcal/mol)

$$$$
ZINC000616582683
 OpenBabel03032110343D

 37 37  0  0  0  0  0  0  0  0999 V2000
   -5.1892    1.0680   -2.8117 H   0  0  0  0  0  0  0  0  0  0  0  0
   -4.2676    0.9932   -2.3981 O   0  0  0  0  0  0  0  0  0  0  0  0
   -3.9639    1.6261   -1.1931 C   0  0  0  0  0  0  0  0  0  0  0  0
   -2.7842    1.5079   -0.6612 N   0  0  0  0  0  0  0  0  0  0  0  0
   -1.6884    0.7283   -1.2419 C   0  0  1  0  0  0  0  0  0  0  0  0
   -1.6223    0.9461   -2.3329 H   0  0  0  0  0  0  0  0  0  0  0  0
   -0.3523    1.1590   -0.6026 C   0  0  1  0  0  0  0  0  0  0  0  0
   -0.1949    2.2193   -0.9124 H   0  0  0  0  0  0  0  0  0  0  0  0
   -0.4252    1.0664    0.8120 O   0  0  0  0  0  0  0  0  0  0  0  0
    0.6314    1.7922    1.4054 C   0  0  0  0  0  0  0  0  0  0  0  0
    1.6225    1.4719    1.0100 H   0  0  0  0  0  0  0  0  0  0  0  0
    0.4996    2.8818    1.2211 H   0  0  0  0  0  0  0  0  0  0  0  0
    0.6159    1.5615    2.8862 C   0  0  0  0  0  0  0  0  0  0  0  0
    0.4363    2.3997    3.5530 H   0  0  0  0  0  0  0  0  0  0  0  0
    0.8320    0.3489    3.4033 C   0  0  0  0  0  0  0  0  0  0  0  0
    1.0212   -0.5062    2.7614 H   0  0  0  0  0  0  0  0  0  0  0  0
    0.8208    0.2074    4.4790 H   0  0  0  0  0  0  0  0  0  0  0  0
    0.7272    0.3926   -1.1209 O   0  0  0  0  0  0  0  0  0  0  0  0
    0.5819   -0.9889   -0.8262 C   0  0  2  0  0  0  0  0  0  0  0  0
    0.5096   -1.1476    0.2742 H   0  0  0  0  0  0  0  0  0  0  0  0
    1.8540   -1.7146   -1.2830 C   0  0  0  0  0  0  0  0  0  0  0  0
    1.7943   -2.7944   -1.0208 H   0  0  0  0  0  0  0  0  0  0  0  0
    2.7271   -1.2803   -0.7459 H   0  0  0  0  0  0  0  0  0  0  0  0
    2.0343   -1.5646   -2.6648 O   0  0  0  0  0  0  0  0  0  0  0  0
    2.8658   -2.0578   -2.8888 H   0  0  0  0  0  0  0  0  0  0  0  0
   -0.6828   -1.5637   -1.5103 C   0  0  1  0  0  0  0  0  0  0  0  0
   -0.5935   -1.4329   -2.6162 H   0  0  0  0  0  0  0  0  0  0  0  0
   -0.8432   -2.9237   -1.1910 O   0  0  0  0  0  0  0  0  0  0  0  0
   -0.4042   -3.4480   -1.9106 H   0  0  0  0  0  0  0  0  0  0  0  0
   -1.9258   -0.7828   -1.0504 C   0  0  1  0  0  0  0  0  0  0  0  0
   -2.7902   -1.0876   -1.6860 H   0  0  0  0  0  0  0  0  0  0  0  0
   -2.2088   -1.0556    0.3010 O   0  0  0  0  0  0  0  0  0  0  0  0
   -2.7347   -1.8973    0.3244 H   0  0  0  0  0  0  0  0  0  0  0  0
   -5.0113    2.4278   -0.4902 C   0  0  0  0  0  0  0  0  0  0  0  0
   -4.5492    3.1176    0.2482 H   0  0  0  0  0  0  0  0  0  0  0  0
   -5.5822    3.0292   -1.2281 H   0  0  0  0  0  0  0  0  0  0  0  0
   -5.7065    1.7427    0.0378 H   0  0  0  0  0  0  0  0  0  0  0  0
  1  2  1  0  0  0  0
  2  3  1  0  0  0  0
  3  4  2  0  0  0  0
  3 34  1  0  0  0  0
  4  5  1  0  0  0  0
  5  6  1  6  0  0  0
  5  7  1  0  0  0  0
  7  8  1  6  0  0  0
  7  9  1  0  0  0  0
  7 18  1  0  0  0  0
  9 10  1  0  0  0  0
 10 11  1  0  0  0  0
 10 12  1  0  0  0  0
 10 13  1  0  0  0  0
 13 14  1  0  0  0  0
 13 15  2  0  0  0  0
 15 16  1  0  0  0  0
 15 17  1  0  0  0  0
 18 19  1  0  0  0  0
 19 20  1  1  0  0  0
 19 21  1  0  0  0  0
 19 26  1  0  0  0  0
 21 22  1  0  0  0  0
 21 23  1  0  0  0  0
 21 24  1  0  0  0  0
 24 25  1  0  0  0  0
 26 27  1  6  0  0  0
 26 28  1  0  0  0  0
 26 30  1  0  0  0  0
 28 29  1  0  0  0  0
 30 31  1  6  0  0  0
 30 32  1  0  0  0  0
 30  5  1  0  0  0  0
 32 33  1  0  0  0  0
 34 35  1  0  0  0  0
 34 36  1  0  0  0  0
 34 37  1  0  0  0  0
M  END
>  <UniqueID>
305

>  <SMILES>
C=CCO[C@H]1O[C@H](CO)[C@@H](O)[C@@H](O)[C@H]1/N=C(/C)O

>  <Energy>
30.28072996797241

>  <Genealogy>
C=CCO[C@H]1O[C@H](CO)[C@@H](O)[C@@H](O)[C@H]1N=C(C)O (tautomer)
C=CCO[C@H]1O[C@H](CO)[C@@H](O)[C@@H](O)[C@H]1/N=C(/C)O (cis-trans isomerization)
C=CCO[C@H]1O[C@H](CO)[C@@H](O)[C@@H](O)[C@H]1/N=C(/C)O (3D coordinates assigned)
C=CCO[C@H]1O[C@H](CO)[C@@H](O)[C@@H](O)[C@H]1/N=C(/C)O (nonaromatic ring conformer: 30.28072996797241 kcal/mol)

$$$$
ZINC000616582683
 OpenBabel03032110343D

 37 37  0  0  0  0  0  0  0  0999 V2000
   -2.5729    2.8484    0.2697 C   0  0  0  0  0  0  0  0  0  0  0  0
   -1.9812    2.2689   -0.7783 C   0  0  0  0  0  0  0  0  0  0  0  0
   -0.4870    2.2770   -0.9500 C   0  0  0  0  0  0  0  0  0  0  0  0
    0.0316    0.9601   -0.9279 O   0  0  0  0  0  0  0  0  0  0  0  0
    0.2082    0.4875    0.4023 C   0  0  1  0  0  0  0  0  0  0  0  0
   -1.0182    0.0355    0.9610 O   0  0  0  0  0  0  0  0  0  0  0  0
   -1.5648   -1.0571    0.2359 C   0  0  2  0  0  0  0  0  0  0  0  0
   -2.9354   -1.3975    0.8408 C   0  0  0  0  0  0  0  0  0  0  0  0
   -3.7703   -0.2710    0.8310 O   0  0  0  0  0  0  0  0  0  0  0  0
   -0.6179   -2.2799    0.2971 C   0  0  1  0  0  0  0  0  0  0  0  0
   -1.1462   -3.3523   -0.4437 O   0  0  0  0  0  0  0  0  0  0  0  0
    0.7582   -1.8990   -0.2730 C   0  0  1  0  0  0  0  0  0  0  0  0
    0.6667   -1.6764   -1.6601 O   0  0  0  0  0  0  0  0  0  0  0  0
    1.2740   -0.6317    0.4375 C   0  0  1  0  0  0  0  0  0  0  0  0
    2.5369   -0.1688   -0.1533 N   0  0  0  0  0  0  0  0  0  0  0  0
    3.4070    0.7538    0.5177 C   0  0  0  0  0  0  0  0  0  0  0  0
    4.6602    1.2157   -0.1513 C   0  0  0  0  0  0  0  0  0  0  0  0
    3.1405    1.1537    1.6833 O   0  0  0  0  0  0  0  0  0  0  0  0
   -1.9915    3.3553    1.0338 H   0  0  0  0  0  0  0  0  0  0  0  0
   -3.6527    2.8118    0.3708 H   0  0  0  0  0  0  0  0  0  0  0  0
   -2.5909    1.7555   -1.5158 H   0  0  0  0  0  0  0  0  0  0  0  0
   -0.2743    2.7053   -1.9514 H   0  0  0  0  0  0  0  0  0  0  0  0
    0.0204    2.9544   -0.2247 H   0  0  0  0  0  0  0  0  0  0  0  0
    0.5940    1.2921    1.0683 H   0  0  0  0  0  0  0  0  0  0  0  0
   -1.7390   -0.7745   -0.8279 H   0  0  0  0  0  0  0  0  0  0  0  0
   -3.4183   -2.2282    0.2777 H   0  0  0  0  0  0  0  0  0  0  0  0
   -2.8060   -1.7293    1.8933 H   0  0  0  0  0  0  0  0  0  0  0  0
   -4.0707   -0.1478   -0.1074 H   0  0  0  0  0  0  0  0  0  0  0  0
   -0.4756   -2.5774    1.3649 H   0  0  0  0  0  0  0  0  0  0  0  0
   -1.6447   -3.9309    0.1906 H   0  0  0  0  0  0  0  0  0  0  0  0
    1.4772   -2.7279   -0.0681 H   0  0  0  0  0  0  0  0  0  0  0  0
    0.7400   -2.5623   -2.1024 H   0  0  0  0  0  0  0  0  0  0  0  0
    1.4605   -0.9027    1.5018 H   0  0  0  0  0  0  0  0  0  0  0  0
    2.8526   -0.5530   -1.0727 H   0  0  0  0  0  0  0  0  0  0  0  0
    5.1190    2.0548    0.4148 H   0  0  0  0  0  0  0  0  0  0  0  0
    4.4280    1.5634   -1.1802 H   0  0  0  0  0  0  0  0  0  0  0  0
    5.3827    0.3742   -0.2038 H   0  0  0  0  0  0  0  0  0  0  0  0
  1  2  2  0  0  0  0
  1 19  1  0  0  0  0
  1 20  1  0  0  0  0
  2  3  1  0  0  0  0
  2 21  1  0  0  0  0
  3  4  1  0  0  0  0
  3 22  1  0  0  0  0
  3 23  1  0  0  0  0
  4  5  1  0  0  0  0
  5  6  1  0  0  0  0
  5 24  1  1  0  0  0
  6  7  1  0  0  0  0
  7  8  1  0  0  0  0
  7 10  1  0  0  0  0
  7 25  1  6  0  0  0
  8  9  1  0  0  0  0
  8 26  1  0  0  0  0
  8 27  1  0  0  0  0
  9 28  1  0  0  0  0
 10 11  1  0  0  0  0
 10 12  1  0  0  0  0
 10 29  1  1  0  0  0
 11 30  1  0  0  0  0
 12 13  1  0  0  0  0
 12 14  1  0  0  0  0
 12 31  1  1  0  0  0
 13 32  1  0  0  0  0
 14 15  1  0  0  0  0
 14  5  1  0  0  0  0
 14 33  1  1  0  0  0
 15 16  1  0  0  0  0
 15 34  1  0  0  0  0
 16 17  1  0  0  0  0
 16 18  2  0  0  0  0
 17 35  1  0  0  0  0
 17 36  1  0  0  0  0
 17 37  1  0  0  0  0
M  END
>  <UniqueID>
306

>  <SMILES>
C=CCO[C@H]1O[C@H](CO)[C@@H](O)[C@@H](O)[C@H]1NC(C)=O

>  <Energy>
33.281617839799345

>  <Genealogy>
C=CCO[C@H]1O[C@H](CO)[C@@H](O)[C@@H](O)[C@H]1NC(C)=O (3D coordinates assigned)
C=CCO[C@H]1O[C@H](CO)[C@@H](O)[C@@H](O)[C@H]1NC(C)=O (nonaromatic ring conformer: 33.281617839799345 kcal/mol)

$$$$
ZINC000616582813
 OpenBabel03032110343D

 36 36  0  0  0  0  0  0  0  0999 V2000
    3.8955   -1.5041    3.0670 H   0  0  0  0  0  0  0  0  0  0  0  0
    3.0582   -1.1504    2.6200 O   0  0  0  0  0  0  0  0  0  0  0  0
    2.0151   -2.0042    2.2619 C   0  0  0  0  0  0  0  0  0  0  0  0
    0.9363   -1.5384    1.7061 N   0  0  0  0  0  0  0  0  0  0  0  0
    0.7127   -0.1310    1.3635 C   0  0  2  0  0  0  0  0  0  0  0  0
    1.1740    0.5248    2.1374 H   0  0  0  0  0  0  0  0  0  0  0  0
   -0.7993    0.1530    1.3455 C   0  0  2  0  0  0  0  0  0  0  0  0
   -1.1783    0.0766    2.3926 H   0  0  0  0  0  0  0  0  0  0  0  0
   -1.4509   -0.7928    0.5314 O   0  0  0  0  0  0  0  0  0  0  0  0
   -2.3882   -0.8567    0.8524 H   0  0  0  0  0  0  0  0  0  0  0  0
   -1.0604    1.5782    0.8240 C   0  0  2  0  0  0  0  0  0  0  0  0
   -0.6557    2.2949    1.5803 H   0  0  0  0  0  0  0  0  0  0  0  0
   -2.4443    1.7650    0.6592 O   0  0  0  0  0  0  0  0  0  0  0  0
   -2.6554    2.6875    0.9595 H   0  0  0  0  0  0  0  0  0  0  0  0
   -0.3140    1.7913   -0.5173 C   0  0  1  0  0  0  0  0  0  0  0  0
   -0.7226    1.1025   -1.2941 H   0  0  0  0  0  0  0  0  0  0  0  0
   -0.4872    3.2274   -1.0396 C   0  0  0  0  0  0  0  0  0  0  0  0
    0.2185    3.4072   -1.8830 H   0  0  0  0  0  0  0  0  0  0  0  0
   -0.2351    3.9550   -0.2387 H   0  0  0  0  0  0  0  0  0  0  0  0
   -1.8027    3.4584   -1.4675 O   0  0  0  0  0  0  0  0  0  0  0  0
   -1.9040    2.9962   -2.3403 H   0  0  0  0  0  0  0  0  0  0  0  0
    1.0733    1.5592   -0.3386 O   0  0  0  0  0  0  0  0  0  0  0  0
    1.3246    0.2000   -0.0162 C   0  0  1  0  0  0  0  0  0  0  0  0
    0.8661   -0.4838   -0.7748 H   0  0  0  0  0  0  0  0  0  0  0  0
    2.7233   -0.0007    0.0493 O   0  0  0  0  0  0  0  0  0  0  0  0
    3.2686   -0.0859   -1.2508 C   0  0  0  0  0  0  0  0  0  0  0  0
    2.8876   -0.9911   -1.7756 H   0  0  0  0  0  0  0  0  0  0  0  0
    3.0260    0.8213   -1.8498 H   0  0  0  0  0  0  0  0  0  0  0  0
    4.7815   -0.1988   -1.1480 C   0  0  0  0  0  0  0  0  0  0  0  0
    5.1955    0.6981   -0.6402 H   0  0  0  0  0  0  0  0  0  0  0  0
    5.0560   -1.1053   -0.5675 H   0  0  0  0  0  0  0  0  0  0  0  0
    5.2229   -0.2739   -2.1642 H   0  0  0  0  0  0  0  0  0  0  0  0
    2.1178   -3.4657    2.5568 C   0  0  0  0  0  0  0  0  0  0  0  0
    1.4100   -4.0442    1.9253 H   0  0  0  0  0  0  0  0  0  0  0  0
    1.8806   -3.6434    3.6261 H   0  0  0  0  0  0  0  0  0  0  0  0
    3.1489   -3.8198    2.3480 H   0  0  0  0  0  0  0  0  0  0  0  0
  1  2  1  0  0  0  0
  2  3  1  0  0  0  0
  3  4  2  0  0  0  0
  3 33  1  0  0  0  0
  4  5  1  0  0  0  0
  5  6  1  1  0  0  0
  5  7  1  0  0  0  0
  7  8  1  1  0  0  0
  7  9  1  0  0  0  0
  7 11  1  0  0  0  0
  9 10  1  0  0  0  0
 11 12  1  1  0  0  0
 11 13  1  0  0  0  0
 11 15  1  0  0  0  0
 13 14  1  0  0  0  0
 15 16  1  6  0  0  0
 15 17  1  0  0  0  0
 15 22  1  0  0  0  0
 17 18  1  0  0  0  0
 17 19  1  0  0  0  0
 17 20  1  0  0  0  0
 20 21  1  0  0  0  0
 22 23  1  0  0  0  0
 23 24  1  6  0  0  0
 23 25  1  0  0  0  0
 23  5  1  0  0  0  0
 25 26  1  0  0  0  0
 26 27  1  0  0  0  0
 26 28  1  0  0  0  0
 26 29  1  0  0  0  0
 29 30  1  0  0  0  0
 29 31  1  0  0  0  0
 29 32  1  0  0  0  0
 33 34  1  0  0  0  0
 33 35  1  0  0  0  0
 33 36  1  0  0  0  0
M  END
>  <UniqueID>
307

>  <SMILES>
CCO[C@@H]1O[C@H](CO)[C@@H](O)[C@@H](O)[C@H]1/N=C(\C)O

>  <Energy>
29.983253584428322

>  <Genealogy>
CCO[C@@H]1O[C@H](CO)[C@@H](O)[C@@H](O)[C@H]1N=C(C)O (tautomer)
CCO[C@@H]1O[C@H](CO)[C@@H](O)[C@@H](O)[C@H]1/N=C(\C)O (cis-trans isomerization)
CCO[C@@H]1O[C@H](CO)[C@@H](O)[C@@H](O)[C@H]1/N=C(\C)O (3D coordinates assigned)
CCO[C@@H]1O[C@H](CO)[C@@H](O)[C@@H](O)[C@H]1/N=C(\C)O (nonaromatic ring conformer: 29.983253584428322 kcal/mol)

$$$$
ZINC000616582813
 OpenBabel03032110343D

 36 36  0  0  0  0  0  0  0  0999 V2000
    4.5288   -0.0757    1.9355 H   0  0  0  0  0  0  0  0  0  0  0  0
    3.5933   -0.0020    1.5542 O   0  0  0  0  0  0  0  0  0  0  0  0
    3.3686   -0.0473    0.1784 C   0  0  0  0  0  0  0  0  0  0  0  0
    2.1669    0.0709   -0.3022 N   0  0  0  0  0  0  0  0  0  0  0  0
    0.9519    0.2176    0.5069 C   0  0  2  0  0  0  0  0  0  0  0  0
    1.1774    0.8345    1.4066 H   0  0  0  0  0  0  0  0  0  0  0  0
    0.4086   -1.1494    0.9560 C   0  0  2  0  0  0  0  0  0  0  0  0
   -0.4337   -0.9668    1.6636 H   0  0  0  0  0  0  0  0  0  0  0  0
    1.4077   -1.8756    1.6248 O   0  0  0  0  0  0  0  0  0  0  0  0
    0.9532   -2.6201    2.0992 H   0  0  0  0  0  0  0  0  0  0  0  0
   -0.1158   -1.9425   -0.2507 C   0  0  2  0  0  0  0  0  0  0  0  0
   -0.6504   -2.8423    0.1368 H   0  0  0  0  0  0  0  0  0  0  0  0
    0.9639   -2.3608   -1.0486 O   0  0  0  0  0  0  0  0  0  0  0  0
    0.6389   -3.1187   -1.6016 H   0  0  0  0  0  0  0  0  0  0  0  0
   -1.0931   -1.0870   -1.0941 C   0  0  1  0  0  0  0  0  0  0  0  0
   -1.2133   -1.6228   -2.0617 H   0  0  0  0  0  0  0  0  0  0  0  0
   -2.5141   -1.0391   -0.5009 C   0  0  0  0  0  0  0  0  0  0  0  0
   -2.5087   -0.6615    0.5427 H   0  0  0  0  0  0  0  0  0  0  0  0
   -2.9284   -2.0721   -0.4759 H   0  0  0  0  0  0  0  0  0  0  0  0
   -3.3368   -0.2359   -1.3009 O   0  0  0  0  0  0  0  0  0  0  0  0
   -4.2304   -0.2394   -0.8691 H   0  0  0  0  0  0  0  0  0  0  0  0
   -0.5811    0.2021   -1.4269 O   0  0  0  0  0  0  0  0  0  0  0  0
   -0.1135    0.9629   -0.3160 C   0  0  1  0  0  0  0  0  0  0  0  0
    0.4100    1.8596   -0.7274 H   0  0  0  0  0  0  0  0  0  0  0  0
   -1.1806    1.3670    0.5248 O   0  0  0  0  0  0  0  0  0  0  0  0
   -1.8657    2.4659   -0.0400 C   0  0  0  0  0  0  0  0  0  0  0  0
   -2.1787    2.2556   -1.0881 H   0  0  0  0  0  0  0  0  0  0  0  0
   -1.2201    3.3726   -0.0227 H   0  0  0  0  0  0  0  0  0  0  0  0
   -3.1125    2.7516    0.7822 C   0  0  0  0  0  0  0  0  0  0  0  0
   -3.6586    3.6160    0.3489 H   0  0  0  0  0  0  0  0  0  0  0  0
   -3.7813    1.8651    0.7799 H   0  0  0  0  0  0  0  0  0  0  0  0
   -2.8303    2.9915    1.8293 H   0  0  0  0  0  0  0  0  0  0  0  0
    4.5235   -0.1913   -0.7591 C   0  0  0  0  0  0  0  0  0  0  0  0
    5.2662   -0.8995   -0.3361 H   0  0  0  0  0  0  0  0  0  0  0  0
    5.0049    0.7978   -0.9057 H   0  0  0  0  0  0  0  0  0  0  0  0
    4.1833   -0.5809   -1.7424 H   0  0  0  0  0  0  0  0  0  0  0  0
  1  2  1  0  0  0  0
  2  3  1  0  0  0  0
  3  4  2  0  0  0  0
  3 33  1  0  0  0  0
  4  5  1  0  0  0  0
  5  6  1  1  0  0  0
  5  7  1  0  0  0  0
  7  8  1  1  0  0  0
  7  9  1  0  0  0  0
  7 11  1  0  0  0  0
  9 10  1  0  0  0  0
 11 12  1  1  0  0  0
 11 13  1  0  0  0  0
 11 15  1  0  0  0  0
 13 14  1  0  0  0  0
 15 16  1  6  0  0  0
 15 17  1  0  0  0  0
 15 22  1  0  0  0  0
 17 18  1  0  0  0  0
 17 19  1  0  0  0  0
 17 20  1  0  0  0  0
 20 21  1  0  0  0  0
 22 23  1  0  0  0  0
 23 24  1  6  0  0  0
 23 25  1  0  0  0  0
 23  5  1  0  0  0  0
 25 26  1  0  0  0  0
 26 27  1  0  0  0  0
 26 28  1  0  0  0  0
 26 29  1  0  0  0  0
 29 30  1  0  0  0  0
 29 31  1  0  0  0  0
 29 32  1  0  0  0  0
 33 34  1  0  0  0  0
 33 35  1  0  0  0  0
 33 36  1  0  0  0  0
M  END
>  <UniqueID>
308

>  <SMILES>
CCO[C@@H]1O[C@H](CO)[C@@H](O)[C@@H](O)[C@H]1/N=C(/C)O

>  <Energy>
35.269290042646205

>  <Genealogy>
CCO[C@@H]1O[C@H](CO)[C@@H](O)[C@@H](O)[C@H]1N=C(C)O (tautomer)
CCO[C@@H]1O[C@H](CO)[C@@H](O)[C@@H](O)[C@H]1/N=C(/C)O (cis-trans isomerization)
CCO[C@@H]1O[C@H](CO)[C@@H](O)[C@@H](O)[C@H]1/N=C(/C)O (3D coordinates assigned)
CCO[C@@H]1O[C@H](CO)[C@@H](O)[C@@H](O)[C@H]1/N=C(/C)O (nonaromatic ring conformer: 35.269290042646205 kcal/mol)

$$$$
ZINC000616582904
 OpenBabel03032110343D

 35 35  0  0  0  0  0  0  0  0999 V2000
    4.7030   -2.0070    3.6473 H   0  0  0  0  0  0  0  0  0  0  0  0
    4.0767   -2.3068    2.8487 C   0  0  0  0  0  0  0  0  0  0  0  0
    3.3631   -2.6476    1.9390 C   0  0  0  0  0  0  0  0  0  0  0  0
    2.4930   -3.0589    0.8311 C   0  0  0  0  0  0  0  0  0  0  0  0
    2.9872   -3.8987    0.3009 H   0  0  0  0  0  0  0  0  0  0  0  0
    1.5280   -3.4491    1.2298 H   0  0  0  0  0  0  0  0  0  0  0  0
    2.3332   -1.9906   -0.0823 O   0  0  0  0  0  0  0  0  0  0  0  0
    1.2174   -1.1898    0.2639 C   0  0  2  0  0  0  0  0  0  0  0  0
    1.1961   -1.0056    1.3682 H   0  0  0  0  0  0  0  0  0  0  0  0
    0.0333   -1.8441   -0.1644 O   0  0  0  0  0  0  0  0  0  0  0  0
   -1.1169   -1.1204    0.2409 C   0  0  2  0  0  0  0  0  0  0  0  0
   -1.1079   -0.9655    1.3457 H   0  0  0  0  0  0  0  0  0  0  0  0
   -2.3592   -1.9692   -0.0686 C   0  0  0  0  0  0  0  0  0  0  0  0
   -2.2917   -2.9183    0.5046 H   0  0  0  0  0  0  0  0  0  0  0  0
   -3.2862   -1.4531    0.2728 H   0  0  0  0  0  0  0  0  0  0  0  0
   -2.4257   -2.2852   -1.4346 O   0  0  0  0  0  0  0  0  0  0  0  0
   -2.9782   -1.5833   -1.8671 H   0  0  0  0  0  0  0  0  0  0  0  0
   -1.1630    0.2556   -0.4694 C   0  0  1  0  0  0  0  0  0  0  0  0
   -1.2005    0.0987   -1.5745 H   0  0  0  0  0  0  0  0  0  0  0  0
   -2.2793    0.9959   -0.0418 O   0  0  0  0  0  0  0  0  0  0  0  0
   -3.0160    0.8119   -0.6811 H   0  0  0  0  0  0  0  0  0  0  0  0
    0.1225    1.0454   -0.1609 C   0  0  1  0  0  0  0  0  0  0  0  0
    0.1593    1.9390   -0.8275 H   0  0  0  0  0  0  0  0  0  0  0  0
    0.1371    1.4527    1.1863 O   0  0  0  0  0  0  0  0  0  0  0  0
   -0.3813    2.2976    1.2407 H   0  0  0  0  0  0  0  0  0  0  0  0
    1.3568    0.1675   -0.4511 C   0  0  1  0  0  0  0  0  0  0  0  0
    1.4209   -0.0250   -1.5470 H   0  0  0  0  0  0  0  0  0  0  0  0
    2.5817    0.8322   -0.0000 N   0  0  0  0  0  0  0  0  0  0  0  0
    3.1450    1.8284   -0.6152 C   0  0  0  0  0  0  0  0  0  0  0  0
    2.6115    2.3227   -1.8051 O   0  0  0  0  0  0  0  0  0  0  0  0
    3.0539    3.0877   -2.3001 H   0  0  0  0  0  0  0  0  0  0  0  0
    4.3995    2.4213   -0.0597 C   0  0  0  0  0  0  0  0  0  0  0  0
    4.5013    2.1829    1.0208 H   0  0  0  0  0  0  0  0  0  0  0  0
    5.2740    2.0119   -0.6066 H   0  0  0  0  0  0  0  0  0  0  0  0
    4.3788    3.5247   -0.1784 H   0  0  0  0  0  0  0  0  0  0  0  0
  1  2  1  0  0  0  0
  2  3  3  0  0  0  0
  3  4  1  0  0  0  0
  4  5  1  0  0  0  0
  4  6  1  0  0  0  0
  4  7  1  0  0  0  0
  7  8  1  0  0  0  0
  8  9  1  1  0  0  0
  8 10  1  0  0  0  0
 10 11  1  0  0  0  0
 11 12  1  1  0  0  0
 11 13  1  0  0  0  0
 11 18  1  0  0  0  0
 13 14  1  0  0  0  0
 13 15  1  0  0  0  0
 13 16  1  0  0  0  0
 16 17  1  0  0  0  0
 18 19  1  6  0  0  0
 18 20  1  0  0  0  0
 18 22  1  0  0  0  0
 20 21  1  0  0  0  0
 22 23  1  6  0  0  0
 22 24  1  0  0  0  0
 22 26  1  0  0  0  0
 24 25  1  0  0  0  0
 26 27  1  6  0  0  0
 26 28  1  0  0  0  0
 26  8  1  0  0  0  0
 28 29  2  0  0  0  0
 29 30  1  0  0  0  0
 29 32  1  0  0  0  0
 30 31  1  0  0  0  0
 32 33  1  0  0  0  0
 32 34  1  0  0  0  0
 32 35  1  0  0  0  0
M  END
>  <UniqueID>
309

>  <SMILES>
C#CCO[C@@H]1O[C@H](CO)[C@@H](O)[C@@H](O)[C@H]1/N=C(/C)O

>  <Energy>
29.791743457029828

>  <Genealogy>
C#CCO[C@@H]1O[C@H](CO)[C@@H](O)[C@@H](O)[C@H]1N=C(C)O (tautomer)
C#CCO[C@@H]1O[C@H](CO)[C@@H](O)[C@@H](O)[C@H]1/N=C(/C)O (cis-trans isomerization)
C#CCO[C@@H]1O[C@H](CO)[C@@H](O)[C@@H](O)[C@H]1/N=C(/C)O (3D coordinates assigned)
C#CCO[C@@H]1O[C@H](CO)[C@@H](O)[C@@H](O)[C@H]1/N=C(/C)O (nonaromatic ring conformer: 29.791743457029828 kcal/mol)

$$$$
ZINC000616582904
 OpenBabel03032110343D

 35 35  0  0  0  0  0  0  0  0999 V2000
    0.7904    6.2181    1.5812 H   0  0  0  0  0  0  0  0  0  0  0  0
    0.4218    5.3345    1.1303 C   0  0  0  0  0  0  0  0  0  0  0  0
    0.0020    4.3278    0.6168 C   0  0  0  0  0  0  0  0  0  0  0  0
   -0.5074    3.1060   -0.0064 C   0  0  0  0  0  0  0  0  0  0  0  0
   -1.5730    2.9873    0.2916 H   0  0  0  0  0  0  0  0  0  0  0  0
   -0.4353    3.2279   -1.1098 H   0  0  0  0  0  0  0  0  0  0  0  0
    0.2741    2.0133    0.4274 O   0  0  0  0  0  0  0  0  0  0  0  0
   -0.2518    0.8015   -0.0814 C   0  0  2  0  0  0  0  0  0  0  0  0
   -0.4833    0.9111   -1.1700 H   0  0  0  0  0  0  0  0  0  0  0  0
   -1.4135    0.4583    0.6574 O   0  0  0  0  0  0  0  0  0  0  0  0
   -2.0479   -0.6805    0.1019 C   0  0  2  0  0  0  0  0  0  0  0  0
   -2.2828   -0.5038   -0.9733 H   0  0  0  0  0  0  0  0  0  0  0  0
   -3.3873   -0.8744    0.8324 C   0  0  0  0  0  0  0  0  0  0  0  0
   -3.2037   -1.1489    1.8932 H   0  0  0  0  0  0  0  0  0  0  0  0
   -3.9556    0.0840    0.8329 H   0  0  0  0  0  0  0  0  0  0  0  0
   -4.1563   -1.8806    0.2297 O   0  0  0  0  0  0  0  0  0  0  0  0
   -4.5210   -1.4959   -0.6097 H   0  0  0  0  0  0  0  0  0  0  0  0
   -1.1311   -1.9240    0.2628 C   0  0  1  0  0  0  0  0  0  0  0  0
   -0.9897   -2.1000    1.3526 H   0  0  0  0  0  0  0  0  0  0  0  0
   -1.7094   -3.0858   -0.2809 O   0  0  0  0  0  0  0  0  0  0  0  0
   -1.9647   -2.8884   -1.2195 H   0  0  0  0  0  0  0  0  0  0  0  0
    0.2698   -1.6737   -0.3436 C   0  0  1  0  0  0  0  0  0  0  0  0
    0.9435   -2.4574    0.0613 H   0  0  0  0  0  0  0  0  0  0  0  0
    0.2746   -1.8190   -1.7453 O   0  0  0  0  0  0  0  0  0  0  0  0
   -0.3528   -1.1567   -2.1308 H   0  0  0  0  0  0  0  0  0  0  0  0
    0.8197   -0.2936    0.0900 C   0  0  1  0  0  0  0  0  0  0  0  0
    1.0749   -0.3327    1.1724 H   0  0  0  0  0  0  0  0  0  0  0  0
    2.0050    0.0613   -0.6989 N   0  0  0  0  0  0  0  0  0  0  0  0
    3.2379   -0.2807   -0.4558 C   0  0  0  0  0  0  0  0  0  0  0  0
    4.2264    0.1421   -1.3410 O   0  0  0  0  0  0  0  0  0  0  0  0
    5.2024   -0.0884   -1.1985 H   0  0  0  0  0  0  0  0  0  0  0  0
    3.6255   -1.0924    0.7507 C   0  0  0  0  0  0  0  0  0  0  0  0
    3.3661   -0.5421    1.6788 H   0  0  0  0  0  0  0  0  0  0  0  0
    4.7193   -1.2797    0.7583 H   0  0  0  0  0  0  0  0  0  0  0  0
    3.1130   -2.0745    0.7390 H   0  0  0  0  0  0  0  0  0  0  0  0
  1  2  1  0  0  0  0
  2  3  3  0  0  0  0
  3  4  1  0  0  0  0
  4  5  1  0  0  0  0
  4  6  1  0  0  0  0
  4  7  1  0  0  0  0
  7  8  1  0  0  0  0
  8  9  1  6  0  0  0
  8 10  1  0  0  0  0
 10 11  1  0  0  0  0
 11 12  1  6  0  0  0
 11 13  1  0  0  0  0
 11 18  1  0  0  0  0
 13 14  1  0  0  0  0
 13 15  1  0  0  0  0
 13 16  1  0  0  0  0
 16 17  1  0  0  0  0
 18 19  1  1  0  0  0
 18 20  1  0  0  0  0
 18 22  1  0  0  0  0
 20 21  1  0  0  0  0
 22 23  1  1  0  0  0
 22 24  1  0  0  0  0
 22 26  1  0  0  0  0
 24 25  1  0  0  0  0
 26 27  1  1  0  0  0
 26 28  1  0  0  0  0
 26  8  1  0  0  0  0
 28 29  2  0  0  0  0
 29 30  1  0  0  0  0
 29 32  1  0  0  0  0
 30 31  1  0  0  0  0
 32 33  1  0  0  0  0
 32 34  1  0  0  0  0
 32 35  1  0  0  0  0
M  END
>  <UniqueID>
310

>  <SMILES>
C#CCO[C@@H]1O[C@H](CO)[C@@H](O)[C@@H](O)[C@H]1/N=C(\C)O

>  <Energy>
33.83886326314516

>  <Genealogy>
C#CCO[C@@H]1O[C@H](CO)[C@@H](O)[C@@H](O)[C@H]1N=C(C)O (tautomer)
C#CCO[C@@H]1O[C@H](CO)[C@@H](O)[C@@H](O)[C@H]1/N=C(\C)O (cis-trans isomerization)
C#CCO[C@@H]1O[C@H](CO)[C@@H](O)[C@@H](O)[C@H]1/N=C(\C)O (3D coordinates assigned)
C#CCO[C@@H]1O[C@H](CO)[C@@H](O)[C@@H](O)[C@H]1/N=C(\C)O (nonaromatic ring conformer: 33.83886326314516 kcal/mol)

$$$$
ZINC000616583702
 OpenBabel03032110343D

 45 45  0  0  0  0  0  0  0  0999 V2000
   -2.1156   -2.2270    3.3209 C   0  0  0  0  0  0  0  0  0  0  0  0
   -0.6704   -2.1516    3.8120 C   0  0  0  0  0  0  0  0  0  0  0  0
    0.2834   -1.5638    2.7610 C   0  0  0  0  0  0  0  0  0  0  0  0
    0.0545   -0.0611    2.5305 C   0  0  0  0  0  0  0  0  0  0  0  0
    1.1211    0.5429    1.6045 C   0  0  0  0  0  0  0  0  0  0  0  0
    1.2171   -0.1466    0.3693 O   0  0  0  0  0  0  0  0  0  0  0  0
    0.1894    0.2295   -0.5332 C   0  0  2  0  0  0  0  0  0  0  0  0
   -0.9186   -0.6343   -0.3419 O   0  0  0  0  0  0  0  0  0  0  0  0
   -2.0085   -0.2489   -1.1630 C   0  0  2  0  0  0  0  0  0  0  0  0
   -3.2229   -1.1047   -0.7863 C   0  0  0  0  0  0  0  0  0  0  0  0
   -3.5537   -0.8852    0.5570 O   0  0  0  0  0  0  0  0  0  0  0  0
   -1.6440   -0.4384   -2.6536 C   0  0  1  0  0  0  0  0  0  0  0  0
   -2.7127   -0.0257   -3.4668 O   0  0  0  0  0  0  0  0  0  0  0  0
   -0.3804    0.3733   -2.9939 C   0  0  1  0  0  0  0  0  0  0  0  0
   -0.6873    1.7467   -2.9881 O   0  0  0  0  0  0  0  0  0  0  0  0
    0.7322    0.0649   -1.9693 C   0  0  1  0  0  0  0  0  0  0  0  0
    1.8932    0.9356   -2.1892 N   0  0  0  0  0  0  0  0  0  0  0  0
    2.8059    0.7369   -3.2774 C   0  0  0  0  0  0  0  0  0  0  0  0
    3.9420    1.6858   -3.4794 C   0  0  0  0  0  0  0  0  0  0  0  0
    2.6445   -0.2213   -4.0808 O   0  0  0  0  0  0  0  0  0  0  0  0
   -2.1703   -2.7687    2.3526 H   0  0  0  0  0  0  0  0  0  0  0  0
   -2.5425   -1.2098    3.2023 H   0  0  0  0  0  0  0  0  0  0  0  0
   -2.7306   -2.7736    4.0665 H   0  0  0  0  0  0  0  0  0  0  0  0
   -0.6252   -1.5531    4.7479 H   0  0  0  0  0  0  0  0  0  0  0  0
   -0.3316   -3.1821    4.0556 H   0  0  0  0  0  0  0  0  0  0  0  0
    0.1706   -2.1194    1.8045 H   0  0  0  0  0  0  0  0  0  0  0  0
    1.3251   -1.7176    3.1185 H   0  0  0  0  0  0  0  0  0  0  0  0
    0.0985    0.4717    3.5053 H   0  0  0  0  0  0  0  0  0  0  0  0
   -0.9517    0.1168    2.0988 H   0  0  0  0  0  0  0  0  0  0  0  0
    2.1057    0.4611    2.1124 H   0  0  0  0  0  0  0  0  0  0  0  0
    0.9474    1.6349    1.4725 H   0  0  0  0  0  0  0  0  0  0  0  0
   -0.1143    1.2977   -0.3979 H   0  0  0  0  0  0  0  0  0  0  0  0
   -2.2850    0.8156   -0.9754 H   0  0  0  0  0  0  0  0  0  0  0  0
   -4.0922   -0.8317   -1.4256 H   0  0  0  0  0  0  0  0  0  0  0  0
   -2.9852   -2.1815   -0.9425 H   0  0  0  0  0  0  0  0  0  0  0  0
   -4.3230   -1.4808    0.7529 H   0  0  0  0  0  0  0  0  0  0  0  0
   -1.4331   -1.5203   -2.8298 H   0  0  0  0  0  0  0  0  0  0  0  0
   -2.5478   -0.4053   -4.3692 H   0  0  0  0  0  0  0  0  0  0  0  0
   -0.0404    0.0650   -4.0105 H   0  0  0  0  0  0  0  0  0  0  0  0
   -0.0338    2.1932   -3.5874 H   0  0  0  0  0  0  0  0  0  0  0  0
    1.0489   -0.9960   -2.0915 H   0  0  0  0  0  0  0  0  0  0  0  0
    2.0817    1.7201   -1.5236 H   0  0  0  0  0  0  0  0  0  0  0  0
    3.5497    2.6586   -3.8438 H   0  0  0  0  0  0  0  0  0  0  0  0
    4.6603    1.2815   -4.2248 H   0  0  0  0  0  0  0  0  0  0  0  0
    4.4749    1.8429   -2.5176 H   0  0  0  0  0  0  0  0  0  0  0  0
  1  2  1  0  0  0  0
  1 21  1  0  0  0  0
  1 22  1  0  0  0  0
  1 23  1  0  0  0  0
  2  3  1  0  0  0  0
  2 24  1  0  0  0  0
  2 25  1  0  0  0  0
  3  4  1  0  0  0  0
  3 26  1  0  0  0  0
  3 27  1  0  0  0  0
  4  5  1  0  0  0  0
  4 28  1  0  0  0  0
  4 29  1  0  0  0  0
  5  6  1  0  0  0  0
  5 30  1  0  0  0  0
  5 31  1  0  0  0  0
  6  7  1  0  0  0  0
  7  8  1  0  0  0  0
  7 32  1  1  0  0  0
  8  9  1  0  0  0  0
  9 10  1  0  0  0  0
  9 12  1  0  0  0  0
  9 33  1  1  0  0  0
 10 11  1  0  0  0  0
 10 34  1  0  0  0  0
 10 35  1  0  0  0  0
 11 36  1  0  0  0  0
 12 13  1  0  0  0  0
 12 14  1  0  0  0  0
 12 37  1  6  0  0  0
 13 38  1  0  0  0  0
 14 15  1  0  0  0  0
 14 16  1  0  0  0  0
 14 39  1  6  0  0  0
 15 40  1  0  0  0  0
 16 17  1  0  0  0  0
 16  7  1  0  0  0  0
 16 41  1  6  0  0  0
 17 18  1  0  0  0  0
 17 42  1  0  0  0  0
 18 19  1  0  0  0  0
 18 20  2  0  0  0  0
 19 43  1  0  0  0  0
 19 44  1  0  0  0  0
 19 45  1  0  0  0  0
M  END
>  <UniqueID>
311

>  <SMILES>
CCCCCO[C@@H]1O[C@H](CO)[C@@H](O)[C@@H](O)[C@H]1NC(C)=O

>  <Energy>
32.1675134500207

>  <Genealogy>
CCCCCO[C@@H]1O[C@H](CO)[C@@H](O)[C@@H](O)[C@H]1NC(C)=O (3D coordinates assigned)
CCCCCO[C@@H]1O[C@H](CO)[C@@H](O)[C@@H](O)[C@H]1NC(C)=O (nonaromatic ring conformer: 32.1675134500207 kcal/mol)

$$$$
ZINC000616583702
 OpenBabel03032110343D

 45 45  0  0  0  0  0  0  0  0999 V2000
   -0.8022    3.3527   -2.3523 H   0  0  0  0  0  0  0  0  0  0  0  0
   -0.8840    2.4853   -1.8356 O   0  0  0  0  0  0  0  0  0  0  0  0
   -0.4892    2.4015   -0.5009 C   0  0  0  0  0  0  0  0  0  0  0  0
   -0.5777    1.2790    0.1469 N   0  0  0  0  0  0  0  0  0  0  0  0
   -1.0941    0.0330   -0.4229 C   0  0  2  0  0  0  0  0  0  0  0  0
   -0.6815   -0.1002   -1.4498 H   0  0  0  0  0  0  0  0  0  0  0  0
   -2.6368    0.0673   -0.5135 C   0  0  2  0  0  0  0  0  0  0  0  0
   -2.9133    0.7530   -1.3438 H   0  0  0  0  0  0  0  0  0  0  0  0
   -3.2190    0.5912    0.6582 O   0  0  0  0  0  0  0  0  0  0  0  0
   -3.0141   -0.0192    1.4105 H   0  0  0  0  0  0  0  0  0  0  0  0
   -3.2011   -1.3260   -0.8634 C   0  0  2  0  0  0  0  0  0  0  0  0
   -2.9538   -1.5228   -1.9355 H   0  0  0  0  0  0  0  0  0  0  0  0
   -4.5947   -1.3225   -0.6750 O   0  0  0  0  0  0  0  0  0  0  0  0
   -4.9897   -1.8892   -1.3880 H   0  0  0  0  0  0  0  0  0  0  0  0
   -2.5378   -2.4259    0.0030 C   0  0  1  0  0  0  0  0  0  0  0  0
   -2.8409   -2.3075    1.0692 H   0  0  0  0  0  0  0  0  0  0  0  0
   -3.0035   -3.8195   -0.4352 C   0  0  0  0  0  0  0  0  0  0  0  0
   -4.1061   -3.9058   -0.3116 H   0  0  0  0  0  0  0  0  0  0  0  0
   -2.7468   -3.9816   -1.5066 H   0  0  0  0  0  0  0  0  0  0  0  0
   -2.3760   -4.7949    0.3506 O   0  0  0  0  0  0  0  0  0  0  0  0
   -2.7042   -5.6704    0.0175 H   0  0  0  0  0  0  0  0  0  0  0  0
   -1.1260   -2.3680   -0.1262 O   0  0  0  0  0  0  0  0  0  0  0  0
   -0.6146   -1.1663    0.4221 C   0  0  1  0  0  0  0  0  0  0  0  0
   -0.9751   -1.0626    1.4771 H   0  0  0  0  0  0  0  0  0  0  0  0
    0.8003   -1.2271    0.3428 O   0  0  0  0  0  0  0  0  0  0  0  0
    1.4123   -0.8248    1.5537 C   0  0  0  0  0  0  0  0  0  0  0  0
    1.3930   -1.6740    2.2714 H   0  0  0  0  0  0  0  0  0  0  0  0
    0.9032    0.0489    2.0242 H   0  0  0  0  0  0  0  0  0  0  0  0
    2.8667   -0.4386    1.2845 C   0  0  0  0  0  0  0  0  0  0  0  0
    3.3816   -1.2814    0.7732 H   0  0  0  0  0  0  0  0  0  0  0  0
    3.3743   -0.2597    2.2576 H   0  0  0  0  0  0  0  0  0  0  0  0
    2.9558    0.8294    0.4238 C   0  0  0  0  0  0  0  0  0  0  0  0
    2.4422    0.6565   -0.5478 H   0  0  0  0  0  0  0  0  0  0  0  0
    2.4434    1.6654    0.9490 H   0  0  0  0  0  0  0  0  0  0  0  0
    4.4139    1.2185    0.1607 C   0  0  0  0  0  0  0  0  0  0  0  0
    4.9319    0.3922   -0.3731 H   0  0  0  0  0  0  0  0  0  0  0  0
    4.9351    1.3962    1.1266 H   0  0  0  0  0  0  0  0  0  0  0  0
    4.4991    2.4850   -0.6865 C   0  0  0  0  0  0  0  0  0  0  0  0
    4.0088    3.3333   -0.1628 H   0  0  0  0  0  0  0  0  0  0  0  0
    4.0050    2.3262   -1.6688 H   0  0  0  0  0  0  0  0  0  0  0  0
    5.5644    2.7438   -0.8623 H   0  0  0  0  0  0  0  0  0  0  0  0
    0.0792    3.6029    0.1824 C   0  0  0  0  0  0  0  0  0  0  0  0
    1.1136    3.7768   -0.1804 H   0  0  0  0  0  0  0  0  0  0  0  0
   -0.5427    4.4931   -0.0468 H   0  0  0  0  0  0  0  0  0  0  0  0
    0.1011    3.4568    1.2836 H   0  0  0  0  0  0  0  0  0  0  0  0
  1  2  1  0  0  0  0
  2  3  1  0  0  0  0
  3  4  2  0  0  0  0
  3 42  1  0  0  0  0
  4  5  1  0  0  0  0
  5  6  1  6  0  0  0
  5  7  1  0  0  0  0
  7  8  1  6  0  0  0
  7  9  1  0  0  0  0
  7 11  1  0  0  0  0
  9 10  1  0  0  0  0
 11 12  1  6  0  0  0
 11 13  1  0  0  0  0
 11 15  1  0  0  0  0
 13 14  1  0  0  0  0
 15 16  1  1  0  0  0
 15 17  1  0  0  0  0
 15 22  1  0  0  0  0
 17 18  1  0  0  0  0
 17 19  1  0  0  0  0
 17 20  1  0  0  0  0
 20 21  1  0  0  0  0
 22 23  1  0  0  0  0
 23 24  1  1  0  0  0
 23 25  1  0  0  0  0
 23  5  1  0  0  0  0
 25 26  1  0  0  0  0
 26 27  1  0  0  0  0
 26 28  1  0  0  0  0
 26 29  1  0  0  0  0
 29 30  1  0  0  0  0
 29 31  1  0  0  0  0
 29 32  1  0  0  0  0
 32 33  1  0  0  0  0
 32 34  1  0  0  0  0
 32 35  1  0  0  0  0
 35 36  1  0  0  0  0
 35 37  1  0  0  0  0
 35 38  1  0  0  0  0
 38 39  1  0  0  0  0
 38 40  1  0  0  0  0
 38 41  1  0  0  0  0
 42 43  1  0  0  0  0
 42 44  1  0  0  0  0
 42 45  1  0  0  0  0
M  END
>  <UniqueID>
312

>  <SMILES>
CCCCCO[C@@H]1O[C@H](CO)[C@@H](O)[C@@H](O)[C@H]1/N=C(/C)O

>  <Energy>
32.9036768565134

>  <Genealogy>
CCCCCO[C@@H]1O[C@H](CO)[C@@H](O)[C@@H](O)[C@H]1N=C(C)O (tautomer)
CCCCCO[C@@H]1O[C@H](CO)[C@@H](O)[C@@H](O)[C@H]1/N=C(/C)O (cis-trans isomerization)
CCCCCO[C@@H]1O[C@H](CO)[C@@H](O)[C@@H](O)[C@H]1/N=C(/C)O (3D coordinates assigned)
CCCCCO[C@@H]1O[C@H](CO)[C@@H](O)[C@@H](O)[C@H]1/N=C(/C)O (nonaromatic ring conformer: 32.9036768565134 kcal/mol)

$$$$
ZINC000616583781
 OpenBabel03032110343D

 42 42  0  0  0  0  0  0  0  0999 V2000
   -3.2173    3.6083    3.0912 C   0  0  0  0  0  0  0  0  0  0  0  0
   -2.7235    4.0941    1.7288 C   0  0  0  0  0  0  0  0  0  0  0  0
   -2.6516    2.9676    0.6863 C   0  0  0  0  0  0  0  0  0  0  0  0
   -1.5274    1.9683    0.9687 C   0  0  0  0  0  0  0  0  0  0  0  0
   -1.4570    1.0459   -0.0995 O   0  0  0  0  0  0  0  0  0  0  0  0
   -0.3519    0.1785    0.0727 C   0  0  2  0  0  0  0  0  0  0  0  0
    0.8349    0.8681   -0.2865 O   0  0  0  0  0  0  0  0  0  0  0  0
    1.9798    0.0707   -0.0330 C   0  0  2  0  0  0  0  0  0  0  0  0
    3.2230    0.9428   -0.2764 C   0  0  0  0  0  0  0  0  0  0  0  0
    4.3939    0.2867    0.1305 O   0  0  0  0  0  0  0  0  0  0  0  0
    1.9734   -1.1754   -0.9535 C   0  0  1  0  0  0  0  0  0  0  0  0
    3.0846   -1.9893   -0.6769 O   0  0  0  0  0  0  0  0  0  0  0  0
    0.6750   -1.9782   -0.7482 C   0  0  1  0  0  0  0  0  0  0  0  0
    0.7043   -2.6060    0.5109 O   0  0  0  0  0  0  0  0  0  0  0  0
   -0.5452   -1.0397   -0.8543 C   0  0  1  0  0  0  0  0  0  0  0  0
   -1.7810   -1.7578   -0.5199 N   0  0  0  0  0  0  0  0  0  0  0  0
   -2.3849   -2.7026   -1.4140 C   0  0  0  0  0  0  0  0  0  0  0  0
   -3.6291   -3.4221   -1.0074 C   0  0  0  0  0  0  0  0  0  0  0  0
   -1.8911   -2.9087   -2.5557 O   0  0  0  0  0  0  0  0  0  0  0  0
   -2.4734    2.9320    3.5608 H   0  0  0  0  0  0  0  0  0  0  0  0
   -4.1875    3.0775    2.9868 H   0  0  0  0  0  0  0  0  0  0  0  0
   -3.3628    4.4804    3.7629 H   0  0  0  0  0  0  0  0  0  0  0  0
   -3.4295    4.8690    1.3591 H   0  0  0  0  0  0  0  0  0  0  0  0
   -1.7277    4.5749    1.8430 H   0  0  0  0  0  0  0  0  0  0  0  0
   -2.4713    3.4278   -0.3099 H   0  0  0  0  0  0  0  0  0  0  0  0
   -3.6252    2.4324    0.6373 H   0  0  0  0  0  0  0  0  0  0  0  0
   -1.7515    1.4311    1.9168 H   0  0  0  0  0  0  0  0  0  0  0  0
   -0.5696    2.5280    1.0742 H   0  0  0  0  0  0  0  0  0  0  0  0
   -0.2998   -0.1864    1.1299 H   0  0  0  0  0  0  0  0  0  0  0  0
    1.9996   -0.2464    1.0365 H   0  0  0  0  0  0  0  0  0  0  0  0
    3.1195    1.9049    0.2760 H   0  0  0  0  0  0  0  0  0  0  0  0
    3.3058    1.1902   -1.3564 H   0  0  0  0  0  0  0  0  0  0  0  0
    4.4086    0.3197    1.1227 H   0  0  0  0  0  0  0  0  0  0  0  0
    2.0155   -0.8296   -2.0140 H   0  0  0  0  0  0  0  0  0  0  0  0
    3.1837   -2.6091   -1.4462 H   0  0  0  0  0  0  0  0  0  0  0  0
    0.6185   -2.7475   -1.5540 H   0  0  0  0  0  0  0  0  0  0  0  0
    0.1142   -3.4022    0.4528 H   0  0  0  0  0  0  0  0  0  0  0  0
   -0.6193   -0.6617   -1.8995 H   0  0  0  0  0  0  0  0  0  0  0  0
   -2.2584   -1.5655    0.3905 H   0  0  0  0  0  0  0  0  0  0  0  0
   -3.8510   -4.2488   -1.7153 H   0  0  0  0  0  0  0  0  0  0  0  0
   -3.4997   -3.8478    0.0096 H   0  0  0  0  0  0  0  0  0  0  0  0
   -4.4814   -2.7113   -1.0006 H   0  0  0  0  0  0  0  0  0  0  0  0
  1  2  1  0  0  0  0
  1 20  1  0  0  0  0
  1 21  1  0  0  0  0
  1 22  1  0  0  0  0
  2  3  1  0  0  0  0
  2 23  1  0  0  0  0
  2 24  1  0  0  0  0
  3  4  1  0  0  0  0
  3 25  1  0  0  0  0
  3 26  1  0  0  0  0
  4  5  1  0  0  0  0
  4 27  1  0  0  0  0
  4 28  1  0  0  0  0
  5  6  1  0  0  0  0
  6  7  1  0  0  0  0
  6 29  1  1  0  0  0
  7  8  1  0  0  0  0
  8  9  1  0  0  0  0
  8 11  1  0  0  0  0
  8 30  1  1  0  0  0
  9 10  1  0  0  0  0
  9 31  1  0  0  0  0
  9 32  1  0  0  0  0
 10 33  1  0  0  0  0
 11 12  1  0  0  0  0
 11 13  1  0  0  0  0
 11 34  1  6  0  0  0
 12 35  1  0  0  0  0
 13 14  1  0  0  0  0
 13 15  1  0  0  0  0
 13 36  1  6  0  0  0
 14 37  1  0  0  0  0
 15 16  1  0  0  0  0
 15  6  1  0  0  0  0
 15 38  1  6  0  0  0
 16 17  1  0  0  0  0
 16 39  1  0  0  0  0
 17 18  1  0  0  0  0
 17 19  2  0  0  0  0
 18 40  1  0  0  0  0
 18 41  1  0  0  0  0
 18 42  1  0  0  0  0
M  END
>  <UniqueID>
313

>  <SMILES>
CCCCO[C@@H]1O[C@H](CO)[C@@H](O)[C@@H](O)[C@H]1NC(C)=O

>  <Energy>
31.042860381603525

>  <Genealogy>
CCCCO[C@@H]1O[C@H](CO)[C@@H](O)[C@@H](O)[C@H]1NC(C)=O (3D coordinates assigned)
CCCCO[C@@H]1O[C@H](CO)[C@@H](O)[C@@H](O)[C@H]1NC(C)=O (nonaromatic ring conformer: 31.042860381603525 kcal/mol)

$$$$
ZINC000616583781
 OpenBabel03032110343D

 42 42  0  0  0  0  0  0  0  0999 V2000
   -3.6287    4.3539    0.8536 C   0  0  0  0  0  0  0  0  0  0  0  0
   -2.4562    3.3784    0.8136 C   0  0  0  0  0  0  0  0  0  0  0  0
   -2.7457    2.1308    1.6586 C   0  0  0  0  0  0  0  0  0  0  0  0
   -1.5690    1.1547    1.6447 C   0  0  0  0  0  0  0  0  0  0  0  0
   -1.3835    0.6552    0.3355 O   0  0  0  0  0  0  0  0  0  0  0  0
   -0.2133   -0.1371    0.2731 C   0  0  2  0  0  0  0  0  0  0  0  0
    0.9213    0.7115    0.2364 O   0  0  0  0  0  0  0  0  0  0  0  0
    2.1122   -0.0350    0.4511 C   0  0  2  0  0  0  0  0  0  0  0  0
    3.3139    0.9040    0.2623 C   0  0  0  0  0  0  0  0  0  0  0  0
    3.3843    1.3755   -1.0573 O   0  0  0  0  0  0  0  0  0  0  0  0
    2.2160   -1.2893   -0.4762 C   0  0  1  0  0  0  0  0  0  0  0  0
    2.0222   -2.4496    0.2944 O   0  0  0  0  0  0  0  0  0  0  0  0
    1.1599   -1.2096   -1.5959 C   0  0  1  0  0  0  0  0  0  0  0  0
    1.2229   -2.3539   -2.4088 O   0  0  0  0  0  0  0  0  0  0  0  0
   -0.2657   -0.9954   -1.0156 C   0  0  1  0  0  0  0  0  0  0  0  0
   -0.9361   -2.2728   -0.7355 N   0  0  0  0  0  0  0  0  0  0  0  0
   -2.3623   -2.3841   -0.6307 C   0  0  0  0  0  0  0  0  0  0  0  0
   -2.9818   -3.6943   -0.2688 C   0  0  0  0  0  0  0  0  0  0  0  0
   -3.1016   -1.3915   -0.8707 O   0  0  0  0  0  0  0  0  0  0  0  0
   -4.5446    3.8729    0.4490 H   0  0  0  0  0  0  0  0  0  0  0  0
   -3.3923    5.2448    0.2343 H   0  0  0  0  0  0  0  0  0  0  0  0
   -3.8187    4.6866    1.8964 H   0  0  0  0  0  0  0  0  0  0  0  0
   -2.2713    3.0852   -0.2427 H   0  0  0  0  0  0  0  0  0  0  0  0
   -1.5486    3.8912    1.2003 H   0  0  0  0  0  0  0  0  0  0  0  0
   -3.6517    1.6148    1.2711 H   0  0  0  0  0  0  0  0  0  0  0  0
   -2.9427    2.4352    2.7100 H   0  0  0  0  0  0  0  0  0  0  0  0
   -0.6596    1.6818    2.0156 H   0  0  0  0  0  0  0  0  0  0  0  0
   -1.8091    0.3186    2.3398 H   0  0  0  0  0  0  0  0  0  0  0  0
   -0.1625   -0.8273    1.1550 H   0  0  0  0  0  0  0  0  0  0  0  0
    2.1421   -0.3596    1.5173 H   0  0  0  0  0  0  0  0  0  0  0  0
    3.2423    1.7575    0.9751 H   0  0  0  0  0  0  0  0  0  0  0  0
    4.2526    0.3580    0.4976 H   0  0  0  0  0  0  0  0  0  0  0  0
    2.7134    2.1027   -1.1376 H   0  0  0  0  0  0  0  0  0  0  0  0
    3.2260   -1.3343   -0.9501 H   0  0  0  0  0  0  0  0  0  0  0  0
    2.4123   -3.2076   -0.2147 H   0  0  0  0  0  0  0  0  0  0  0  0
    1.4179   -0.3196   -2.2182 H   0  0  0  0  0  0  0  0  0  0  0  0
    0.6881   -2.1553   -3.2215 H   0  0  0  0  0  0  0  0  0  0  0  0
   -0.8436   -0.4540   -1.7990 H   0  0  0  0  0  0  0  0  0  0  0  0
   -0.3651   -3.1308   -0.5631 H   0  0  0  0  0  0  0  0  0  0  0  0
   -2.8608   -4.4057   -1.1119 H   0  0  0  0  0  0  0  0  0  0  0  0
   -2.4832   -4.1073    0.6328 H   0  0  0  0  0  0  0  0  0  0  0  0
   -4.0640   -3.5681   -0.0525 H   0  0  0  0  0  0  0  0  0  0  0  0
  1  2  1  0  0  0  0
  1 20  1  0  0  0  0
  1 21  1  0  0  0  0
  1 22  1  0  0  0  0
  2  3  1  0  0  0  0
  2 23  1  0  0  0  0
  2 24  1  0  0  0  0
  3  4  1  0  0  0  0
  3 25  1  0  0  0  0
  3 26  1  0  0  0  0
  4  5  1  0  0  0  0
  4 27  1  0  0  0  0
  4 28  1  0  0  0  0
  5  6  1  0  0  0  0
  6  7  1  0  0  0  0
  6 29  1  1  0  0  0
  7  8  1  0  0  0  0
  8  9  1  0  0  0  0
  8 11  1  0  0  0  0
  8 30  1  1  0  0  0
  9 10  1  0  0  0  0
  9 31  1  0  0  0  0
  9 32  1  0  0  0  0
 10 33  1  0  0  0  0
 11 12  1  0  0  0  0
 11 13  1  0  0  0  0
 11 34  1  6  0  0  0
 12 35  1  0  0  0  0
 13 14  1  0  0  0  0
 13 15  1  0  0  0  0
 13 36  1  6  0  0  0
 14 37  1  0  0  0  0
 15 16  1  0  0  0  0
 15  6  1  0  0  0  0
 15 38  1  6  0  0  0
 16 17  1  0  0  0  0
 16 39  1  0  0  0  0
 17 18  1  0  0  0  0
 17 19  2  0  0  0  0
 18 40  1  0  0  0  0
 18 41  1  0  0  0  0
 18 42  1  0  0  0  0
M  END
>  <UniqueID>
314

>  <SMILES>
CCCCO[C@@H]1O[C@H](CO)[C@@H](O)[C@@H](O)[C@H]1NC(C)=O

>  <Energy>
38.54177204315097

>  <Genealogy>
CCCCO[C@@H]1O[C@H](CO)[C@@H](O)[C@@H](O)[C@H]1NC(C)=O (3D coordinates assigned)
CCCCO[C@@H]1O[C@H](CO)[C@@H](O)[C@@H](O)[C@H]1NC(C)=O (nonaromatic ring conformer: 38.54177204315097 kcal/mol)

$$$$
ZINC000616589990
 OpenBabel03032110343D

 30 30  0  0  0  0  0  0  0  0999 V2000
    1.3866    1.0347    4.1155 C   0  0  0  0  0  0  0  0  0  0  0  0
    0.1712    1.0271    3.1951 C   0  0  0  0  0  0  0  0  0  0  0  0
    0.2147   -0.0989    2.3382 O   0  0  0  0  0  0  0  0  0  0  0  0
    0.7689    0.2382    1.0799 C   0  0  2  0  0  0  0  0  0  0  0  0
   -0.2243    0.8940    0.3070 O   0  0  0  0  0  0  0  0  0  0  0  0
    0.3066    1.3312   -0.9321 C   0  0  2  0  0  0  0  0  0  0  0  0
   -0.7459    2.1363   -1.6354 C   0  0  0  0  0  0  0  0  0  0  0  0
   -0.4484    3.2324   -2.1794 O   0  0  0  0  0  0  0  0  0  0  0  0
   -2.0482    1.6589   -1.7220 O   0  5  0  0  0  0  0  0  0  0  0  0
    0.7208    0.1197   -1.7998 C   0  0  1  0  0  0  0  0  0  0  0  0
    1.2866    0.5510   -3.0126 O   0  0  0  0  0  0  0  0  0  0  0  0
    1.7444   -0.7413   -1.0424 C   0  0  1  0  0  0  0  0  0  0  0  0
    2.9700   -0.0532   -0.9644 O   0  0  0  0  0  0  0  0  0  0  0  0
    1.2107   -1.0642    0.3727 C   0  0  1  0  0  0  0  0  0  0  0  0
    2.2133   -1.7873    1.1682 N   0  3  0  0  0  0  0  0  0  0  0  0
    1.4350    0.0842    4.6878 H   0  0  0  0  0  0  0  0  0  0  0  0
    2.3189    1.1497    3.5242 H   0  0  0  0  0  0  0  0  0  0  0  0
    1.3099    1.8814    4.8297 H   0  0  0  0  0  0  0  0  0  0  0  0
   -0.7396    0.9442    3.8248 H   0  0  0  0  0  0  0  0  0  0  0  0
    0.0947    2.0000    2.6538 H   0  0  0  0  0  0  0  0  0  0  0  0
    1.6684    0.8910    1.2092 H   0  0  0  0  0  0  0  0  0  0  0  0
    1.1878    1.9947   -0.7630 H   0  0  0  0  0  0  0  0  0  0  0  0
   -0.1778   -0.5137   -1.9992 H   0  0  0  0  0  0  0  0  0  0  0  0
    0.5378    0.6972   -3.6478 H   0  0  0  0  0  0  0  0  0  0  0  0
    1.8748   -1.6948   -1.6084 H   0  0  0  0  0  0  0  0  0  0  0  0
    3.6896   -0.7371   -0.9587 H   0  0  0  0  0  0  0  0  0  0  0  0
    0.3145   -1.7173    0.2595 H   0  0  0  0  0  0  0  0  0  0  0  0
    1.7808   -2.1303    2.0563 H   0  0  0  0  0  0  0  0  0  0  0  0
    3.0217   -1.1669    1.4041 H   0  0  0  0  0  0  0  0  0  0  0  0
    2.5590   -2.6184    0.6355 H   0  0  0  0  0  0  0  0  0  0  0  0
  1  2  1  0  0  0  0
  1 16  1  0  0  0  0
  1 17  1  0  0  0  0
  1 18  1  0  0  0  0
  2  3  1  0  0  0  0
  2 19  1  0  0  0  0
  2 20  1  0  0  0  0
  3  4  1  0  0  0  0
  4  5  1  0  0  0  0
  4 21  1  1  0  0  0
  5  6  1  0  0  0  0
  6  7  1  0  0  0  0
  6 10  1  0  0  0  0
  6 22  1  1  0  0  0
  7  8  2  0  0  0  0
  7  9  1  0  0  0  0
 10 11  1  0  0  0  0
 10 12  1  0  0  0  0
 10 23  1  6  0  0  0
 11 24  1  0  0  0  0
 12 13  1  0  0  0  0
 12 14  1  0  0  0  0
 12 25  1  6  0  0  0
 13 26  1  0  0  0  0
 14 15  1  0  0  0  0
 14  4  1  0  0  0  0
 14 27  1  6  0  0  0
 15 28  1  0  0  0  0
 15 29  1  0  0  0  0
 15 30  1  0  0  0  0
M  CHG  2   9  -1  15   1
M  END
>  <UniqueID>
317

>  <SMILES>
CCO[C@@H]1O[C@H](C(=O)[O-])[C@@H](O)[C@@H](O)[C@H]1[NH3+]

>  <Energy>
28.441563453359052

>  <Genealogy>
CCO[C@@H]1O[C@H](C(=O)[O-])[C@@H](O)[C@@H](O)[C@H]1[NH3+] (protonated)
CCO[C@@H]1O[C@H](C(=O)[O-])[C@@H](O)[C@@H](O)[C@H]1[NH3+] (3D coordinates assigned)
CCO[C@@H]1O[C@H](C(=O)[O-])[C@@H](O)[C@@H](O)[C@H]1[NH3+] (nonaromatic ring conformer: 28.441563453359052 kcal/mol)

$$$$
ZINC000616589990
 OpenBabel03032110343D

 29 29  0  0  0  0  0  0  0  0999 V2000
    2.6100    1.6815    0.4955 C   0  0  0  0  0  0  0  0  0  0  0  0
    1.4974    1.3044   -0.4700 C   0  0  0  0  0  0  0  0  0  0  0  0
    1.0801   -0.0185   -0.2011 O   0  0  0  0  0  0  0  0  0  0  0  0
   -0.0685   -0.3405   -0.9691 C   0  0  2  0  0  0  0  0  0  0  0  0
   -1.2459    0.2493   -0.4245 O   0  0  0  0  0  0  0  0  0  0  0  0
   -1.5936   -0.2441    0.8655 C   0  0  2  0  0  0  0  0  0  0  0  0
   -0.7119    0.3357    1.9461 C   0  0  0  0  0  0  0  0  0  0  0  0
    0.0496   -0.3948    2.6344 O   0  0  0  0  0  0  0  0  0  0  0  0
   -0.7334    1.7047    2.1805 O   0  5  0  0  0  0  0  0  0  0  0  0
   -1.7398   -1.7889    0.9096 C   0  0  1  0  0  0  0  0  0  0  0  0
   -2.9028   -2.1755    0.2202 O   0  0  0  0  0  0  0  0  0  0  0  0
   -0.5161   -2.4790    0.2812 C   0  0  1  0  0  0  0  0  0  0  0  0
   -0.7331   -3.8624    0.1659 O   0  0  0  0  0  0  0  0  0  0  0  0
   -0.2003   -1.8722   -1.0978 C   0  0  1  0  0  0  0  0  0  0  0  0
   -1.2401   -2.2102   -2.0770 N   0  0  0  0  0  0  0  0  0  0  0  0
    2.2412    1.6241    1.5416 H   0  0  0  0  0  0  0  0  0  0  0  0
    3.4696    0.9887    0.3740 H   0  0  0  0  0  0  0  0  0  0  0  0
    2.9506    2.7183    0.2900 H   0  0  0  0  0  0  0  0  0  0  0  0
    1.8934    1.3811   -1.5075 H   0  0  0  0  0  0  0  0  0  0  0  0
    0.6614    2.0289   -0.3383 H   0  0  0  0  0  0  0  0  0  0  0  0
    0.0487    0.0455   -2.0096 H   0  0  0  0  0  0  0  0  0  0  0  0
   -2.6033    0.1632    1.0891 H   0  0  0  0  0  0  0  0  0  0  0  0
   -1.8204   -2.1250    1.9708 H   0  0  0  0  0  0  0  0  0  0  0  0
   -3.6707   -1.9962    0.8237 H   0  0  0  0  0  0  0  0  0  0  0  0
    0.3707   -2.3132    0.9359 H   0  0  0  0  0  0  0  0  0  0  0  0
   -0.6938   -4.2368    1.0848 H   0  0  0  0  0  0  0  0  0  0  0  0
    0.7732   -2.2833   -1.4518 H   0  0  0  0  0  0  0  0  0  0  0  0
   -0.9729   -1.8014   -3.0020 H   0  0  0  0  0  0  0  0  0  0  0  0
   -1.2387   -3.2457   -2.2223 H   0  0  0  0  0  0  0  0  0  0  0  0
  1  2  1  0  0  0  0
  1 16  1  0  0  0  0
  1 17  1  0  0  0  0
  1 18  1  0  0  0  0
  2  3  1  0  0  0  0
  2 19  1  0  0  0  0
  2 20  1  0  0  0  0
  3  4  1  0  0  0  0
  4  5  1  0  0  0  0
  4 21  1  6  0  0  0
  5  6  1  0  0  0  0
  6  7  1  0  0  0  0
  6 10  1  0  0  0  0
  6 22  1  1  0  0  0
  7  8  2  0  0  0  0
  7  9  1  0  0  0  0
 10 11  1  0  0  0  0
 10 12  1  0  0  0  0
 10 23  1  1  0  0  0
 11 24  1  0  0  0  0
 12 13  1  0  0  0  0
 12 14  1  0  0  0  0
 12 25  1  1  0  0  0
 13 26  1  0  0  0  0
 14 15  1  0  0  0  0
 14  4  1  0  0  0  0
 14 27  1  6  0  0  0
 15 28  1  0  0  0  0
 15 29  1  0  0  0  0
M  CHG  1   9  -1
M  END
>  <UniqueID>
318

>  <SMILES>
CCO[C@@H]1O[C@H](C(=O)[O-])[C@@H](O)[C@@H](O)[C@H]1N

>  <Energy>
32.63466294602104

>  <Genealogy>
CCO[C@@H]1O[C@H](C(=O)[O-])[C@@H](O)[C@@H](O)[C@H]1N (protonated)
CCO[C@@H]1O[C@H](C(=O)[O-])[C@@H](O)[C@@H](O)[C@H]1N (3D coordinates assigned)
CCO[C@@H]1O[C@H](C(=O)[O-])[C@@H](O)[C@@H](O)[C@H]1N (nonaromatic ring conformer: 32.63466294602104 kcal/mol)

$$$$
ZINC000616591357
 OpenBabel03032110343D

 44 46  0  0  0  0  0  0  0  0999 V2000
   -2.9128   -0.9961    3.8846 C   0  0  0  0  0  0  0  0  0  0  0  0
   -2.5893    0.1747    3.1663 O   0  0  0  0  0  0  0  0  0  0  0  0
   -1.8494   -0.1546    2.0057 C   0  0  2  0  0  0  0  0  0  0  0  0
   -0.5127   -0.4660    2.3813 O   0  0  0  0  0  0  0  0  0  0  0  0
    0.2309   -0.8505    1.2404 C   0  0  2  0  0  0  0  0  0  0  0  0
    1.6293   -1.3125    1.6388 C   0  0  0  0  0  0  0  0  0  0  0  0
    2.3940   -1.5923    0.4819 O   0  0  0  0  0  0  0  0  0  0  0  0
    2.4943   -0.4309   -0.3310 C   0  0  1  0  0  0  0  0  0  0  0  0
    3.3572   -0.7602   -1.5204 C   0  0  0  0  0  0  0  0  0  0  0  0
    4.5897   -0.1120   -1.7182 C   0  0  0  0  0  0  0  0  0  0  0  0
    5.3857   -0.4323   -2.8226 C   0  0  0  0  0  0  0  0  0  0  0  0
    4.9612   -1.4012   -3.7354 C   0  0  0  0  0  0  0  0  0  0  0  0
    3.7405   -2.0536   -3.5450 C   0  0  0  0  0  0  0  0  0  0  0  0
    2.9413   -1.7372   -2.4422 C   0  0  0  0  0  0  0  0  0  0  0  0
    1.2166   -0.0234   -0.8032 O   0  0  0  0  0  0  0  0  0  0  0  0
    0.4048    0.3444    0.2941 C   0  0  1  0  0  0  0  0  0  0  0  0
   -0.9747    0.8154   -0.1818 C   0  0  1  0  0  0  0  0  0  0  0  0
   -1.5459   -0.1586   -1.0212 O   0  0  0  0  0  0  0  0  0  0  0  0
   -1.8740    1.0685    1.0528 C   0  0  1  0  0  0  0  0  0  0  0  0
   -3.2477    1.3751    0.6370 N   0  0  0  0  0  0  0  0  0  0  0  0
   -3.6113    2.6365    0.0597 C   0  0  0  0  0  0  0  0  0  0  0  0
   -5.0181    2.8736   -0.3829 C   0  0  0  0  0  0  0  0  0  0  0  0
   -2.7537    3.5513   -0.0716 O   0  0  0  0  0  0  0  0  0  0  0  0
   -3.6148   -1.6361    3.3060 H   0  0  0  0  0  0  0  0  0  0  0  0
   -2.0020   -1.5714    4.1629 H   0  0  0  0  0  0  0  0  0  0  0  0
   -3.4240   -0.7037    4.8245 H   0  0  0  0  0  0  0  0  0  0  0  0
   -2.3220   -1.0188    1.4729 H   0  0  0  0  0  0  0  0  0  0  0  0
   -0.2599   -1.7025    0.7119 H   0  0  0  0  0  0  0  0  0  0  0  0
    1.5445   -2.2416    2.2412 H   0  0  0  0  0  0  0  0  0  0  0  0
    2.1379   -0.5505    2.2731 H   0  0  0  0  0  0  0  0  0  0  0  0
    2.9803    0.3988    0.2391 H   0  0  0  0  0  0  0  0  0  0  0  0
    4.9365    0.6393   -1.0201 H   0  0  0  0  0  0  0  0  0  0  0  0
    6.3327    0.0700   -2.9700 H   0  0  0  0  0  0  0  0  0  0  0  0
    5.5791   -1.6479   -4.5892 H   0  0  0  0  0  0  0  0  0  0  0  0
    3.4139   -2.8061   -4.2510 H   0  0  0  0  0  0  0  0  0  0  0  0
    1.9985   -2.2528   -2.3051 H   0  0  0  0  0  0  0  0  0  0  0  0
    0.8731    1.1964    0.8447 H   0  0  0  0  0  0  0  0  0  0  0  0
   -0.8365    1.7683   -0.7447 H   0  0  0  0  0  0  0  0  0  0  0  0
   -2.2009    0.3082   -1.6030 H   0  0  0  0  0  0  0  0  0  0  0  0
   -1.4674    1.9391    1.6164 H   0  0  0  0  0  0  0  0  0  0  0  0
   -4.0002    0.6632    0.7800 H   0  0  0  0  0  0  0  0  0  0  0  0
   -5.1239    3.8870   -0.8253 H   0  0  0  0  0  0  0  0  0  0  0  0
   -5.7016    2.7858    0.4877 H   0  0  0  0  0  0  0  0  0  0  0  0
   -5.2991    2.1173   -1.1455 H   0  0  0  0  0  0  0  0  0  0  0  0
  1  2  1  0  0  0  0
  1 24  1  0  0  0  0
  1 25  1  0  0  0  0
  1 26  1  0  0  0  0
  2  3  1  0  0  0  0
  3  4  1  0  0  0  0
  3 27  1  6  0  0  0
  4  5  1  0  0  0  0
  5  6  1  0  0  0  0
  5 28  1  6  0  0  0
  6  7  1  0  0  0  0
  6 29  1  0  0  0  0
  6 30  1  0  0  0  0
  7  8  1  0  0  0  0
  8  9  1  0  0  0  0
  8 15  1  0  0  0  0
  8 31  1  1  0  0  0
  9 10  2  0  0  0  0
 10 11  1  0  0  0  0
 10 32  1  0  0  0  0
 11 12  2  0  0  0  0
 11 33  1  0  0  0  0
 12 13  1  0  0  0  0
 12 34  1  0  0  0  0
 13 14  2  0  0  0  0
 13 35  1  0  0  0  0
 14  9  1  0  0  0  0
 14 36  1  0  0  0  0
 15 16  1  0  0  0  0
 16 17  1  0  0  0  0
 16  5  1  0  0  0  0
 16 37  1  1  0  0  0
 17 18  1  0  0  0  0
 17 19  1  0  0  0  0
 17 38  1  6  0  0  0
 18 39  1  0  0  0  0
 19 20  1  0  0  0  0
 19  3  1  0  0  0  0
 19 40  1  1  0  0  0
 20 21  1  0  0  0  0
 20 41  1  0  0  0  0
 21 22  1  0  0  0  0
 21 23  2  0  0  0  0
 22 42  1  0  0  0  0
 22 43  1  0  0  0  0
 22 44  1  0  0  0  0
M  END
>  <UniqueID>
319

>  <SMILES>
CO[C@@H]1O[C@@H]2CO[C@@H](c3ccccc3)O[C@H]2[C@@H](O)[C@H]1NC(C)=O

>  <Energy>
49.93812644654729

>  <Genealogy>
CO[C@@H]1O[C@@H]2CO[C@@H](c3ccccc3)O[C@H]2[C@@H](O)[C@H]1NC(C)=O (3D coordinates assigned)
CO[C@@H]1O[C@@H]2CO[C@@H](c3ccccc3)O[C@H]2[C@@H](O)[C@H]1NC(C)=O (nonaromatic ring conformer: 49.93812644654729 kcal/mol)

$$$$
ZINC000616591357
 OpenBabel03032110343D

 44 46  0  0  0  0  0  0  0  0999 V2000
   -2.6695   -1.7132    3.3330 C   0  0  0  0  0  0  0  0  0  0  0  0
   -2.4845   -0.3891    2.8815 O   0  0  0  0  0  0  0  0  0  0  0  0
   -1.7171   -0.3824    1.6924 C   0  0  2  0  0  0  0  0  0  0  0  0
   -0.3518   -0.6196    2.0200 O   0  0  0  0  0  0  0  0  0  0  0  0
    0.4284   -0.6632    0.8387 C   0  0  2  0  0  0  0  0  0  0  0  0
    1.8730   -1.0958    1.1385 C   0  0  0  0  0  0  0  0  0  0  0  0
    2.8107   -0.0788    0.8302 O   0  0  0  0  0  0  0  0  0  0  0  0
    2.6713    0.3910   -0.5130 C   0  0  1  0  0  0  0  0  0  0  0  0
    3.3236   -0.5706   -1.4823 C   0  0  0  0  0  0  0  0  0  0  0  0
    2.5631   -1.5125   -2.2015 C   0  0  0  0  0  0  0  0  0  0  0  0
    3.1910   -2.4163   -3.0639 C   0  0  0  0  0  0  0  0  0  0  0  0
    4.5803   -2.3971   -3.2089 C   0  0  0  0  0  0  0  0  0  0  0  0
    5.3453   -1.4774   -2.4874 C   0  0  0  0  0  0  0  0  0  0  0  0
    4.7222   -0.5718   -1.6234 C   0  0  0  0  0  0  0  0  0  0  0  0
    1.3320    0.6879   -0.9146 O   0  0  0  0  0  0  0  0  0  0  0  0
    0.4650    0.7234    0.1949 C   0  0  1  0  0  0  0  0  0  0  0  0
   -0.9581    1.1290   -0.2150 C   0  0  1  0  0  0  0  0  0  0  0  0
   -1.4300    0.3059   -1.2537 O   0  0  0  0  0  0  0  0  0  0  0  0
   -1.8841    1.0050    1.0168 C   0  0  1  0  0  0  0  0  0  0  0  0
   -3.2823    1.2285    0.6301 N   0  0  0  0  0  0  0  0  0  0  0  0
   -3.7942    2.5321    0.3207 C   0  0  0  0  0  0  0  0  0  0  0  0
   -5.2202    2.6928   -0.0942 C   0  0  0  0  0  0  0  0  0  0  0  0
   -3.0585    3.5504    0.4281 O   0  0  0  0  0  0  0  0  0  0  0  0
   -1.6979   -2.2272    3.5052 H   0  0  0  0  0  0  0  0  0  0  0  0
   -3.2946   -2.2932    2.6189 H   0  0  0  0  0  0  0  0  0  0  0  0
   -3.2086   -1.6836    4.3020 H   0  0  0  0  0  0  0  0  0  0  0  0
   -2.0930   -1.1614    0.9812 H   0  0  0  0  0  0  0  0  0  0  0  0
    0.0104   -1.4087    0.1202 H   0  0  0  0  0  0  0  0  0  0  0  0
    1.9743   -1.3416    2.2170 H   0  0  0  0  0  0  0  0  0  0  0  0
    2.1260   -2.0264    0.5839 H   0  0  0  0  0  0  0  0  0  0  0  0
    3.2311    1.3493   -0.5741 H   0  0  0  0  0  0  0  0  0  0  0  0
    1.4867   -1.5538   -2.0939 H   0  0  0  0  0  0  0  0  0  0  0  0
    2.6002   -3.1351   -3.6168 H   0  0  0  0  0  0  0  0  0  0  0  0
    5.0645   -3.0986   -3.8759 H   0  0  0  0  0  0  0  0  0  0  0  0
    6.4224   -1.4687   -2.5945 H   0  0  0  0  0  0  0  0  0  0  0  0
    5.3297    0.1283   -1.0631 H   0  0  0  0  0  0  0  0  0  0  0  0
    0.8259    1.4803    0.9334 H   0  0  0  0  0  0  0  0  0  0  0  0
   -0.9471    2.1922   -0.5504 H   0  0  0  0  0  0  0  0  0  0  0  0
   -1.0349    0.6499   -2.0969 H   0  0  0  0  0  0  0  0  0  0  0  0
   -1.5897    1.7775    1.7633 H   0  0  0  0  0  0  0  0  0  0  0  0
   -3.9438    0.4192    0.5995 H   0  0  0  0  0  0  0  0  0  0  0  0
   -5.3995    3.7164   -0.4866 H   0  0  0  0  0  0  0  0  0  0  0  0
   -5.4637    1.9577   -0.8895 H   0  0  0  0  0  0  0  0  0  0  0  0
   -5.8812    2.5183    0.7801 H   0  0  0  0  0  0  0  0  0  0  0  0
  1  2  1  0  0  0  0
  1 24  1  0  0  0  0
  1 25  1  0  0  0  0
  1 26  1  0  0  0  0
  2  3  1  0  0  0  0
  3  4  1  0  0  0  0
  3 27  1  6  0  0  0
  4  5  1  0  0  0  0
  5  6  1  0  0  0  0
  5 28  1  6  0  0  0
  6  7  1  0  0  0  0
  6 29  1  0  0  0  0
  6 30  1  0  0  0  0
  7  8  1  0  0  0  0
  8  9  1  0  0  0  0
  8 15  1  0  0  0  0
  8 31  1  6  0  0  0
  9 10  2  0  0  0  0
 10 11  1  0  0  0  0
 10 32  1  0  0  0  0
 11 12  2  0  0  0  0
 11 33  1  0  0  0  0
 12 13  1  0  0  0  0
 12 34  1  0  0  0  0
 13 14  2  0  0  0  0
 13 35  1  0  0  0  0
 14  9  1  0  0  0  0
 14 36  1  0  0  0  0
 15 16  1  0  0  0  0
 16 17  1  0  0  0  0
 16  5  1  0  0  0  0
 16 37  1  1  0  0  0
 17 18  1  0  0  0  0
 17 19  1  0  0  0  0
 17 38  1  6  0  0  0
 18 39  1  0  0  0  0
 19 20  1  0  0  0  0
 19  3  1  0  0  0  0
 19 40  1  1  0  0  0
 20 21  1  0  0  0  0
 20 41  1  0  0  0  0
 21 22  1  0  0  0  0
 21 23  2  0  0  0  0
 22 42  1  0  0  0  0
 22 43  1  0  0  0  0
 22 44  1  0  0  0  0
M  END
>  <UniqueID>
320

>  <SMILES>
CO[C@@H]1O[C@@H]2CO[C@@H](c3ccccc3)O[C@H]2[C@@H](O)[C@H]1NC(C)=O

>  <Energy>
59.66082926293785

>  <Genealogy>
CO[C@@H]1O[C@@H]2CO[C@@H](c3ccccc3)O[C@H]2[C@@H](O)[C@H]1NC(C)=O (3D coordinates assigned)
CO[C@@H]1O[C@@H]2CO[C@@H](c3ccccc3)O[C@H]2[C@@H](O)[C@H]1NC(C)=O (nonaromatic ring conformer: 59.66082926293785 kcal/mol)

$$$$
