134695375
  rDOCK(R)          3D
libRbt.so/2013.1/901 2013/11/27
 24 24  0  0  0  0  0  0  0  0999 V2000
   92.7664   19.0588 -105.6911 H   0  0  0  0  0  0
   92.1076   18.5205 -106.2389 O   0  0  0  0  0  0
   91.3065   17.5826 -105.6259 N   0  0  0  0  0  0
   90.1909   17.8884 -105.0843 N   0  3  0  0  0  0
   89.3994   16.8337 -104.5067 C   0  0  0  0  0  0
   89.9517   15.7410 -104.2001 O   0  0  0  0  0  0
   87.9873   17.0000 -104.2917 N   0  0  0  0  0  0
   87.5020   17.8199 -104.7202 H   0  0  0  0  0  0
   87.1937   16.0110 -103.5504 C   0  0  0  0  0  0
   86.8659   16.5083 -102.1032 C   0  0  0  0  0  0
   86.9185   17.9097 -102.0310 O   0  0  0  0  0  0
   86.7016   18.1587 -101.0946 H   0  0  0  0  0  0
   85.5943   16.0766 -101.6261 O   0  0  0  0  0  0
   85.3450   14.7306 -101.9852 C   0  0  0  0  0  0
   84.2061   14.1720 -101.1186 C   0  0  0  0  0  0
   83.9453   12.8363 -101.4573 O   0  0  0  0  0  0
   83.1770   12.5447 -100.9003 H   0  0  0  0  0  0
   85.0411   14.6398 -103.5077 C   0  0  0  0  0  0
   83.6801   14.8828 -103.7714 O   0  0  0  0  0  0
   83.4707   15.7912 -103.4295 H   0  0  0  0  0  0
   85.8834   15.6753 -104.2956 C   0  0  0  0  0  0
   86.1382   15.2197 -105.6019 O   0  0  0  0  0  0
   86.7378   14.4310 -105.5348 H   0  0  0  0  0  0
   89.6989   19.2718 -105.0986 C   0  0  0  0  0  0
  1  2  1  0  0  0
  2  3  1  0  0  0
  3  4  2  0  0  0
  4  5  1  0  0  0
  4 24  1  0  0  0
  5  6  2  0  0  0
  5  7  1  0  0  0
  7  8  1  0  0  0
  7  9  1  0  0  0
  9 10  1  0  0  0
 10 11  1  0  0  0
 10 13  1  0  0  0
 11 12  1  0  0  0
 13 14  1  0  0  0
 14 15  1  0  0  0
 14 18  1  0  0  0
 15 16  1  0  0  0
 16 17  1  0  0  0
 18 19  1  0  0  0
 18 21  1  0  0  0
 19 20  1  0  0  0
 21 22  1  0  0  0
 21  9  1  0  0  0
 22 23  1  0  0  0
M  END
>  <CHROM.0>
-177.89000875,154.05168557,55.46495516

>  <CHROM.1>
85.68720626,103.71881341,179.93114617,-179.86969120,-177.31227412,59.09484069
57.00183134,87.28530006,16.20016171,-103.67348975,-0.13350250,0.63842109
1.07157801

>  <Energy>
40.92309084294866

>  <Genealogy>
C[NH+](N=O)C(=O)N[C@H]1[C@@H](O)OC(CO)C(O)[C@@H]1O (protonated)
C[N+](=NO)C(=O)N[C@H]1[C@@H](O)OC(CO)C(O)[C@@H]1O (tautomer)
C[N+](=NO)C(=O)N[C@H]1[C@@H](O)O[C@@H](CO)[C@@H](O)[C@@H]1O (chirality)
C/[N+](=N/O)C(=O)N[C@H]1[C@@H](O)O[C@@H](CO)[C@@H](O)[C@@H]1O (cis-trans isomerization)
C/[N+](=N/O)C(=O)N[C@H]1[C@@H](O)O[C@@H](CO)[C@@H](O)[C@@H]1O (3D coordinates assigned)
C/[N+](=N/O)C(=O)N[C@H]1[C@@H](O)O[C@@H](CO)[C@@H](O)[C@@H]1O (nonaromatic ring conformer: 40.92309084294866 kcal/mol)

>  <Name>
134695375

>  <RI>
3.95439e+07

>  <Rbt.Current_Directory>
/home/edward/Documentos/Virtual_Screening/rDock/2

>  <Rbt.Executable>
rbdock ($Id: //depot/dev/client3/rdock/2013.1/src/exe/rbdock.cxx#4 $)

>  <Rbt.Library>
libRbt.so (2013.1, Build901 2013/11/27)

>  <Rbt.Parameter_File>
/home/edward/anaconda3/envs/MD/share/rdock-2013.1-1/data/scripts/dock.prm

>  <Rbt.Receptor>
parameters.prm

>  <SCORE>
-20.4875

>  <SCORE.INTER>
-19.6672

>  <SCORE.INTER.CONST>
1

>  <SCORE.INTER.POLAR>
-4.62359

>  <SCORE.INTER.REPUL>
0.104034

>  <SCORE.INTER.ROT>
2

>  <SCORE.INTER.VDW>
-11.8672

>  <SCORE.INTER.norm>
-1.09262

>  <SCORE.INTRA>
-3.24942

>  <SCORE.INTRA.DIHEDRAL>
-8.16043

>  <SCORE.INTRA.DIHEDRAL.0>
9.72609

>  <SCORE.INTRA.POLAR>
0.158008

>  <SCORE.INTRA.POLAR.0>
-0.158008

>  <SCORE.INTRA.REPUL>
0

>  <SCORE.INTRA.REPUL.0>
0

>  <SCORE.INTRA.VDW>
0.293569

>  <SCORE.INTRA.VDW.0>
-1.67705

>  <SCORE.INTRA.norm>
-0.180523

>  <SCORE.RESTR>
0

>  <SCORE.RESTR.CAVITY>
0

>  <SCORE.RESTR.norm>
0

>  <SCORE.SYSTEM>
2.42909

>  <SCORE.SYSTEM.CONST>
0

>  <SCORE.SYSTEM.DIHEDRAL>
3.20131

>  <SCORE.SYSTEM.VDW>
0.828434

>  <SCORE.SYSTEM.norm>
0.134949

>  <SCORE.heavy>
18

>  <SCORE.norm>
-1.1382

>  <SMILES>
C/[N+](=N/O)C(=O)N[C@H]1[C@@H](O)O[C@@H](CO)[C@@H](O)[C@@H]1O

>  <UniqueID>
2

$$$$
129878031
  rDOCK(R)          3D
libRbt.so/2013.1/901 2013/11/27
 23 23  0  0  0  0  0  0  0  0999 V2000
   86.6941   14.4882 -106.2170 H   0  0  0  0  0  0
   86.1642   15.0455 -105.5580 O   0  0  0  0  0  0
   86.8019   15.8422 -104.6078 C   0  0  0  0  0  0
   86.0793   16.3770 -103.6088 C   0  0  0  0  0  0
   84.6021   16.1380 -103.4636 C   0  0  0  0  0  0
   84.2750   15.4870 -102.1223 C   0  0  0  0  0  0
   88.2184   16.0754 -104.7424 N   0  0  0  0  0  0
   88.6364   15.8652 -105.6760 H   0  0  0  0  0  0
   89.0811   16.6679 -103.7077 C   0  0  0  0  0  0
   88.7113   18.1647 -103.5243 C   0  0  0  0  0  0
   89.1290   18.7064 -102.2913 O   0  0  0  0  0  0
   90.1133   18.6290 -102.2187 H   0  0  0  0  0  0
   89.1431   18.9647 -104.6139 O   0  0  0  0  0  0
   90.5510   18.9244 -104.7842 C   0  0  0  0  0  0
   90.9324   19.9282 -105.8833 C   0  0  0  0  0  0
   92.3271   20.0454 -105.9753 O   0  0  0  0  0  0
   92.6783   19.1403 -106.1833 H   0  0  0  0  0  0
   91.0136   17.5012 -105.1663 C   0  0  0  0  0  0
   92.4131   17.4770 -105.2900 O   0  0  0  0  0  0
   92.7851   17.6720 -104.3905 H   0  0  0  0  0  0
   90.5774   16.5069 -104.0694 C   0  0  0  0  0  0
   90.8773   15.1760 -104.4171 O   0  0  0  0  0  0
   91.8128   15.1425 -104.7457 H   0  0  0  0  0  0
  1  2  1  0  0  0
  2  3  1  0  0  0
  3  4  2  0  0  0
  3  7  1  0  0  0
  4  5  1  0  0  0
  5  6  1  0  0  0
  7  8  1  0  0  0
  7  9  1  0  0  0
  9 10  1  0  0  0
 10 11  1  0  0  0
 10 13  1  0  0  0
 11 12  1  0  0  0
 13 14  1  0  0  0
 14 15  1  0  0  0
 14 18  1  0  0  0
 15 16  1  0  0  0
 16 17  1  0  0  0
 18 19  1  0  0  0
 18 21  1  0  0  0
 19 20  1  0  0  0
 21 22  1  0  0  0
 21  9  1  0  0  0
 22 23  1  0  0  0
M  END
>  <CHROM.0>
-76.80373288,153.30749386,52.48078053

>  <CHROM.1>
-168.34526973,120.90618007,-68.73703281,59.71317593,172.76985676,59.25723198
64.34223192,173.19185186,88.95545035,17.24404736,-104.36655651,-2.77464504
0.35743535,0.22642597

>  <Energy>
34.93432541755163

>  <Genealogy>
[2H]CCC=C(O)N[C@@H]1C(O)O[C@H](CO)[C@@H](O)[C@@H]1O (tautomer)
[2H]CCC=C(O)N[C@@H]1[C@@H](O)O[C@H](CO)[C@@H](O)[C@@H]1O (chirality)
[2H]CC/C=C(/O)N[C@@H]1[C@@H](O)O[C@H](CO)[C@@H](O)[C@@H]1O (cis-trans isomerization)
[2H]CC/C=C(/O)N[C@@H]1[C@@H](O)O[C@H](CO)[C@@H](O)[C@@H]1O (3D coordinates assigned)
[2H]CC/C=C(/O)N[C@@H]1[C@@H](O)O[C@H](CO)[C@@H](O)[C@@H]1O (nonaromatic ring conformer: 34.93432541755163 kcal/mol)

>  <Name>
129878031

>  <RI>
3.95439e+07

>  <Rbt.Current_Directory>
/home/edward/Documentos/Virtual_Screening/rDock/2

>  <Rbt.Executable>
rbdock ($Id: //depot/dev/client3/rdock/2013.1/src/exe/rbdock.cxx#4 $)

>  <Rbt.Library>
libRbt.so (2013.1, Build901 2013/11/27)

>  <Rbt.Parameter_File>
/home/edward/anaconda3/envs/MD/share/rdock-2013.1-1/data/scripts/dock.prm

>  <Rbt.Receptor>
parameters.prm

>  <SCORE>
-23.478

>  <SCORE.INTER>
-22.5689

>  <SCORE.INTER.CONST>
1

>  <SCORE.INTER.POLAR>
-4.85664

>  <SCORE.INTER.REPUL>
0.00640713

>  <SCORE.INTER.ROT>
3

>  <SCORE.INTER.VDW>
-14.4883

>  <SCORE.INTER.norm>
-1.32758

>  <SCORE.INTRA>
-4.7971

>  <SCORE.INTRA.DIHEDRAL>
-8.25183

>  <SCORE.INTRA.DIHEDRAL.0>
12.6578

>  <SCORE.INTRA.POLAR>
-0.411709

>  <SCORE.INTRA.POLAR.0>
0

>  <SCORE.INTRA.REPUL>
0

>  <SCORE.INTRA.REPUL.0>
0

>  <SCORE.INTRA.VDW>
0.728621

>  <SCORE.INTRA.VDW.0>
-1.83381

>  <SCORE.INTRA.norm>
-0.282183

>  <SCORE.RESTR>
0

>  <SCORE.RESTR.CAVITY>
0

>  <SCORE.RESTR.norm>
0

>  <SCORE.SYSTEM>
3.88794

>  <SCORE.SYSTEM.CONST>
0

>  <SCORE.SYSTEM.DIHEDRAL>
4.58416

>  <SCORE.SYSTEM.VDW>
1.59586

>  <SCORE.SYSTEM.norm>
0.228702

>  <SCORE.heavy>
17

>  <SCORE.norm>
-1.38106

>  <SMILES>
[2H]CC/C=C(/O)N[C@@H]1[C@@H](O)O[C@H](CO)[C@@H](O)[C@@H]1O

>  <UniqueID>
3

$$$$
118707521
  rDOCK(R)          3D
libRbt.so/2013.1/901 2013/11/27
 39 43  0  0  0  0  0  0  0  0999 V2000
   90.8767   20.0617 -105.3184 C   0  0  0  0  0  0
   89.6902   20.5669 -104.6242 N   0  0  0  0  0  0
   88.6788   19.8466 -104.0779 C   0  0  0  0  0  0
   88.5050   18.3847 -104.1761 C   0  0  0  0  0  0
   87.5433   17.5952 -103.5772 C   0  0  0  0  0  0
   87.8405   16.3277 -103.9097 N   0  0  0  0  0  0
   87.1290   15.1229 -103.4755 C   0  0  0  0  0  0
   87.0918   15.0399 -101.9350 C   0  0  0  0  0  0
   88.3984   15.0142 -101.4229 O   0  0  0  0  0  0
   86.4020   13.8726 -101.5198 O   0  0  0  0  0  0
   85.0357   13.9367 -101.8959 C   0  0  0  0  0  0
   84.3196   12.7265 -101.2725 C   0  0  0  0  0  0
   84.9754   11.5273 -101.5870 O   0  0  0  0  0  0
   84.9013   13.9394 -103.4401 C   0  0  0  0  0  0
   83.5485   14.0607 -103.7998 O   0  0  0  0  0  0
   85.6968   15.1194 -104.0324 C   0  0  0  0  0  0
   85.7475   15.0120 -105.4323 O   0  0  0  0  0  0
   88.9360   16.3342 -104.6531 N   0  0  0  0  0  0
   89.3652   17.5754 -104.8281 N   0  0  0  0  0  0
   87.8044   20.6147 -103.3944 N   0  0  0  0  0  0
   88.2645   21.8735 -103.5382 C   0  0  0  0  0  0
   87.5704   23.0497 -102.9693 C   0  0  0  0  0  0
   87.5027   24.2420 -103.7099 C   0  0  0  0  0  0
   86.8595   25.3661 -103.1829 C   0  0  0  0  0  0
   86.2901   25.3143 -101.9079 C   0  0  0  0  0  0
   85.6680   26.4056 -101.3980 F   0  0  0  0  0  0
   86.3705   24.1399 -101.1550 C   0  0  0  0  0  0
   87.0132   23.0138 -101.6781 C   0  0  0  0  0  0
   89.4255   21.8519 -104.2993 C   0  0  0  0  0  0
   90.2989   23.0029 -104.6169 C   0  0  0  0  0  0
   91.0439   23.0233 -105.8048 C   0  0  0  0  0  0
   91.8710   24.1149 -106.0790 C   0  0  0  0  0  0
   91.9503   25.1485 -105.1994 N   0  0  0  0  0  0
   91.2385   25.1545 -104.0410 C   0  0  0  0  0  0
   90.4002   24.0819 -103.7277 C   0  0  0  0  0  0
   88.8172   14.1674 -101.7293 H   0  0  0  0  0  0
   85.0125   11.4744 -102.5777 H   0  0  0  0  0  0
   83.2173   14.9076 -103.4016 H   0  0  0  0  0  0
   86.1728   14.1396 -105.6408 H   0  0  0  0  0  0
  1  2  1  0  0  0
  2  3  1  0  0  0
  3  4  1  0  0  0
  3 20  2  0  0  0
  4  5  2  0  0  0
  5  6  1  0  0  0
  6  7  1  0  0  0
  6 18  1  0  0  0
  7  8  1  0  0  0
  8  9  1  0  0  0
  8 10  1  0  0  0
  9 36  1  0  0  0
 10 11  1  0  0  0
 11 12  1  0  0  0
 11 14  1  0  0  0
 12 13  1  0  0  0
 13 37  1  0  0  0
 14 15  1  0  0  0
 14 16  1  0  0  0
 15 38  1  0  0  0
 16 17  1  0  0  0
 16  7  1  0  0  0
 17 39  1  0  0  0
 18 19  2  0  0  0
 19  4  1  0  0  0
 20 21  1  0  0  0
 21 22  1  0  0  0
 21 29  2  0  0  0
 22 23  2  0  0  0
 23 24  1  0  0  0
 24 25  2  0  0  0
 25 26  1  0  0  0
 25 27  1  0  0  0
 27 28  2  0  0  0
 28 22  1  0  0  0
 29 30  1  0  0  0
 29  2  1  0  0  0
 30 31  2  0  0  0
 31 32  1  0  0  0
 32 33  2  0  0  0
 33 34  1  0  0  0
 34 35  2  0  0  0
 35 30  1  0  0  0
M  END
>  <CHROM.0>
-179.94077212,151.64344287,51.82200659

>  <CHROM.1>
175.82168151,-56.89212146,-65.39329082,-52.43005508,-57.12352399,58.64502961
62.52977865,-140.56929772,34.28634496,87.74369818,19.31491136,-103.43952288
-1.20395626,-0.57040654,-3.02812794

>  <Energy>
140.29438939452544

>  <Genealogy>
Cn1c(-c2cn([C@H]3[C@H](O)O[C@H](CO)[C@@H](O)[C@@H]3O)nn2)nc(-c2ccc(F)cc2)c1-c1ccncc1 (3D coordinates assigned)
Cn1c(-c2cn([C@H]3[C@H](O)O[C@H](CO)[C@@H](O)[C@@H]3O)nn2)nc(-c2ccc(F)cc2)c1-c1ccncc1 (nonaromatic ring conformer: 140.29438939452544 kcal/mol)

>  <Name>
118707521

>  <RI>
3.95439e+07

>  <Rbt.Current_Directory>
/home/edward/Documentos/Virtual_Screening/rDock/2

>  <Rbt.Executable>
rbdock ($Id: //depot/dev/client3/rdock/2013.1/src/exe/rbdock.cxx#4 $)

>  <Rbt.Library>
libRbt.so (2013.1, Build901 2013/11/27)

>  <Rbt.Parameter_File>
/home/edward/anaconda3/envs/MD/share/rdock-2013.1-1/data/scripts/dock.prm

>  <Rbt.Receptor>
parameters.prm

>  <SCORE>
-21.1394

>  <SCORE.INTER>
-20.1837

>  <SCORE.INTER.CONST>
1

>  <SCORE.INTER.POLAR>
-1.90202

>  <SCORE.INTER.REPUL>
0.00741036

>  <SCORE.INTER.ROT>
5

>  <SCORE.INTER.VDW>
-24.1539

>  <SCORE.INTER.norm>
-0.576677

>  <SCORE.INTRA>
-3.34263

>  <SCORE.INTRA.DIHEDRAL>
-12.1212

>  <SCORE.INTRA.DIHEDRAL.0>
23.7931

>  <SCORE.INTRA.POLAR>
0

>  <SCORE.INTRA.POLAR.0>
0

>  <SCORE.INTRA.REPUL>
0

>  <SCORE.INTRA.REPUL.0>
0

>  <SCORE.INTRA.VDW>
2.71795

>  <SCORE.INTRA.VDW.0>
-4.11702

>  <SCORE.INTRA.norm>
-0.0955038

>  <SCORE.RESTR>
0

>  <SCORE.RESTR.CAVITY>
0

>  <SCORE.RESTR.norm>
0

>  <SCORE.SYSTEM>
2.38692

>  <SCORE.SYSTEM.CONST>
0

>  <SCORE.SYSTEM.DIHEDRAL>
3.58489

>  <SCORE.SYSTEM.VDW>
0.594469

>  <SCORE.SYSTEM.norm>
0.0681976

>  <SCORE.heavy>
35

>  <SCORE.norm>
-0.603983

>  <SMILES>
Cn1c(-c2cn([C@H]3[C@H](O)O[C@H](CO)[C@@H](O)[C@@H]3O)nn2)nc(-c2ccc(F)cc2)c1-c1ccncc1

>  <UniqueID>
9

$$$$
91820057
  rDOCK(R)          3D
libRbt.so/2013.1/901 2013/11/27
 23 23  0  0  0  0  0  0  0  0999 V2000
   93.1875   17.7373  -99.0102 H   0  0  0  0  0  0
   92.8151   18.6780  -98.9549 O   0  0  0  0  0  0
   91.6681   19.0402  -99.6555 C   0  0  0  0  0  0
   91.3578   20.3028  -99.7521 N   0  0  0  0  0  0
   90.1898   20.8756 -100.4309 C   0  0  0  0  0  0
   89.6801   22.1052  -99.6482 C   0  0  0  0  0  0
   89.2449   21.6980  -98.3804 O   0  0  0  0  0  0
   88.8973   22.5105  -97.9280 H   0  0  0  0  0  0
   88.5945   22.7144 -100.3292 O   0  0  0  0  0  0
   89.0234   23.2426 -101.5733 C   0  0  0  0  0  0
   87.8861   24.0679 -102.1855 C   0  0  0  0  0  0
   87.5865   25.1456 -101.3310 O   0  0  0  0  0  0
   86.2689   25.9903 -101.9786 S   0  0  0  0  0  0
   85.2537   26.2095 -100.8934 O   0  0  0  0  0  0
   86.7181   27.3254 -102.5041 O   0  0  0  0  0  0
   85.5556   25.1055 -103.2173 O   0  5  0  0  0  0
   89.4549   22.0996 -102.5181 C   0  0  0  0  0  0
   88.3587   21.2563 -102.7767 O   0  0  0  0  0  0
   88.0308   20.9296 -101.8984 H   0  0  0  0  0  0
   90.5941   21.3038 -101.8556 C   0  0  0  0  0  0
   90.8970   20.1760 -102.6371 O   0  0  0  0  0  0
   90.0717   19.6262 -102.6844 H   0  0  0  0  0  0
   90.8512   17.9548 -100.2932 C   0  0  0  0  0  0
  1  2  1  0  0  0
  2  3  1  0  0  0
  3  4  2  0  0  0
  3 23  1  0  0  0
  4  5  1  0  0  0
  5  6  1  0  0  0
  6  7  1  0  0  0
  6  9  1  0  0  0
  7  8  1  0  0  0
  9 10  1  0  0  0
 10 11  1  0  0  0
 10 17  1  0  0  0
 11 12  1  0  0  0
 12 13  1  0  0  0
 13 14  2  0  0  0
 13 15  2  0  0  0
 13 16  1  0  0  0
 17 18  1  0  0  0
 17 20  1  0  0  0
 18 19  1  0  0  0
 20 21  1  0  0  0
 20  5  1  0  0  0
 21 22  1  0  0  0
M  END
>  <CHROM.0>
-178.34273933,158.31187858,58.27221451

>  <CHROM.1>
-167.83157647,144.02863967,-177.98542438,62.02521043,-176.69205488,131.26882382
-57.10983047,61.40653119,88.83232629,22.63150499,-101.15650503,0.05636080
-0.92990414,1.34605009

>  <Energy>
29.896683021282357

>  <Genealogy>
CC(O)=N[C@H]1C(O)O[C@H](COS(=O)(=O)[O-])[C@H](O)[C@@H]1O (tautomer)
CC(O)=N[C@H]1[C@H](O)O[C@H](COS(=O)(=O)[O-])[C@H](O)[C@@H]1O (chirality)
C/C(O)=N/[C@H]1[C@H](O)O[C@H](COS(=O)(=O)[O-])[C@H](O)[C@@H]1O (cis-trans isomerization)
C/C(O)=N/[C@H]1[C@H](O)O[C@H](COS(=O)(=O)[O-])[C@H](O)[C@@H]1O (3D coordinates assigned)
C/C(O)=N/[C@H]1[C@H](O)O[C@H](COS(=O)(=O)[O-])[C@H](O)[C@@H]1O (nonaromatic ring conformer: 29.896683021282357 kcal/mol)

>  <Name>
91820057

>  <RI>
3.95439e+07

>  <Rbt.Current_Directory>
/home/edward/Documentos/Virtual_Screening/rDock/2

>  <Rbt.Executable>
rbdock ($Id: //depot/dev/client3/rdock/2013.1/src/exe/rbdock.cxx#4 $)

>  <Rbt.Library>
libRbt.so (2013.1, Build901 2013/11/27)

>  <Rbt.Parameter_File>
/home/edward/anaconda3/envs/MD/share/rdock-2013.1-1/data/scripts/dock.prm

>  <Rbt.Receptor>
parameters.prm

>  <SCORE>
-16.9603

>  <SCORE.INTER>
-20.2823

>  <SCORE.INTER.CONST>
1

>  <SCORE.INTER.POLAR>
-4.35707

>  <SCORE.INTER.REPUL>
0

>  <SCORE.INTER.ROT>
4

>  <SCORE.INTER.VDW>
-14.8683

>  <SCORE.INTER.norm>
-1.06749

>  <SCORE.INTRA>
0.261597

>  <SCORE.INTRA.DIHEDRAL>
-2.11637

>  <SCORE.INTRA.DIHEDRAL.0>
5.14056

>  <SCORE.INTRA.POLAR>
-0.00302847

>  <SCORE.INTRA.POLAR.0>
0

>  <SCORE.INTRA.REPUL>
0

>  <SCORE.INTRA.REPUL.0>
0

>  <SCORE.INTRA.VDW>
1.33008

>  <SCORE.INTRA.VDW.0>
-2.1436

>  <SCORE.INTRA.norm>
0.0137683

>  <SCORE.RESTR>
0.434113

>  <SCORE.RESTR.CAVITY>
0.434113

>  <SCORE.RESTR.norm>
0.0228481

>  <SCORE.SYSTEM>
2.62627

>  <SCORE.SYSTEM.CONST>
0

>  <SCORE.SYSTEM.DIHEDRAL>
2.5039

>  <SCORE.SYSTEM.VDW>
1.37432

>  <SCORE.SYSTEM.norm>
0.138225

>  <SCORE.heavy>
19

>  <SCORE.norm>
-0.892649

>  <SMILES>
C/C(O)=N/[C@H]1[C@H](O)O[C@H](COS(=O)(=O)[O-])[C@H](O)[C@@H]1O

>  <UniqueID>
11

$$$$
90659182
  rDOCK(R)          3D
libRbt.so/2013.1/901 2013/11/27
 22 22  0  0  0  0  0  0  0  0999 V2000
   91.6858   16.7767 -103.4856 H   0  0  0  0  0  0
   90.7003   16.5629 -103.5811 O   0  0  0  0  0  0
   90.2633   15.5282 -104.4071 C   0  0  0  0  0  0
   89.0014   15.2279 -104.4824 N   0  0  0  0  0  0
   87.9415   15.9139 -103.7391 C   0  0  0  0  0  0
   87.3213   14.9810 -102.6577 C   0  0  0  0  0  0
   87.9224   15.2203 -101.4116 O   0  0  0  0  0  0
   87.8457   16.1958 -101.2450 H   0  0  0  0  0  0
   85.9074   15.1097 -102.5516 O   0  0  0  0  0  0
   85.5123   16.4711 -102.5386 C   0  0  0  0  0  0
   84.0480   16.5520 -102.0919 C   0  0  0  0  0  0
   83.9074   16.0679 -100.7842 O   0  0  0  0  0  0
   84.1966   15.1189 -100.8096 H   0  0  0  0  0  0
   85.7387   17.1262 -103.9349 C   0  0  0  0  0  0
   86.1264   18.4930 -103.7672 O   0  0  0  0  0  0
   87.1193   18.9226 -102.8798 C   0  0  0  0  0  0
   87.6835   18.1126 -102.0953 O   0  0  0  0  0  0
   87.4606   20.3719 -102.8114 C   0  0  0  0  0  0
   86.8506   16.3915 -104.7134 C   0  0  0  0  0  0
   86.2928   15.2950 -105.3968 O   0  0  0  0  0  0
   87.0301   14.6524 -105.5676 H   0  0  0  0  0  0
   91.2566   14.7374 -105.1959 C   0  0  0  0  0  0
  1  2  1  0  0  0
  2  3  1  0  0  0
  3  4  2  0  0  0
  3 22  1  0  0  0
  4  5  1  0  0  0
  5  6  1  0  0  0
  6  7  1  0  0  0
  6  9  1  0  0  0
  7  8  1  0  0  0
  9 10  1  0  0  0
 10 11  1  0  0  0
 10 14  1  0  0  0
 11 12  1  0  0  0
 12 13  1  0  0  0
 14 15  1  0  0  0
 14 19  1  0  0  0
 15 16  1  0  0  0
 16 17  2  0  0  0
 16 18  1  0  0  0
 19 20  1  0  0  0
 19  5  1  0  0  0
 20 21  1  0  0  0
M  END
>  <CHROM.0>
-179.44617010,152.60376069,-65.04427413

>  <CHROM.1>
177.28788285,-111.46090626,53.23866267,62.72241462,-61.23597749,47.81574270
-4.69166821,-36.55809686,87.27466692,16.49053898,-103.24238141,-0.29531937
0.38359507,0.12172379

>  <Energy>
34.630528196606534

>  <Genealogy>
CC(=O)O[C@@H]1[C@@H](CO)O[C@H](O)[C@@H](N=C(C)O)[C@H]1O (tautomer)
CC(=O)O[C@@H]1[C@@H](CO)O[C@H](O)[C@@H](/N=C(/C)O)[C@H]1O (cis-trans isomerization)
CC(=O)O[C@@H]1[C@@H](CO)O[C@H](O)[C@@H](/N=C(/C)O)[C@H]1O (3D coordinates assigned)
CC(=O)O[C@@H]1[C@@H](CO)O[C@H](O)[C@@H](/N=C(/C)O)[C@H]1O (nonaromatic ring conformer: 34.630528196606534 kcal/mol)

>  <Name>
90659182

>  <RI>
3.95439e+07

>  <Rbt.Current_Directory>
/home/edward/Documentos/Virtual_Screening/rDock/2

>  <Rbt.Executable>
rbdock ($Id: //depot/dev/client3/rdock/2013.1/src/exe/rbdock.cxx#4 $)

>  <Rbt.Library>
libRbt.so (2013.1, Build901 2013/11/27)

>  <Rbt.Parameter_File>
/home/edward/anaconda3/envs/MD/share/rdock-2013.1-1/data/scripts/dock.prm

>  <Rbt.Receptor>
parameters.prm

>  <SCORE>
-13.8385

>  <SCORE.INTER>
-10.575

>  <SCORE.INTER.CONST>
1

>  <SCORE.INTER.POLAR>
-1.98721

>  <SCORE.INTER.REPUL>
0

>  <SCORE.INTER.ROT>
4

>  <SCORE.INTER.VDW>
-13.2185

>  <SCORE.INTER.norm>
-0.587498

>  <SCORE.INTRA>
-5.00987

>  <SCORE.INTRA.DIHEDRAL>
-4.69799

>  <SCORE.INTRA.DIHEDRAL.0>
8.40413

>  <SCORE.INTRA.POLAR>
-1.10768

>  <SCORE.INTRA.POLAR.0>
0

>  <SCORE.INTRA.REPUL>
-0.0260452

>  <SCORE.INTRA.REPUL.0>
0.0260452

>  <SCORE.INTRA.VDW>
1.23545

>  <SCORE.INTRA.VDW.0>
-2.30954

>  <SCORE.INTRA.norm>
-0.278326

>  <SCORE.RESTR>
0

>  <SCORE.RESTR.CAVITY>
0

>  <SCORE.RESTR.norm>
0

>  <SCORE.SYSTEM>
1.74631

>  <SCORE.SYSTEM.CONST>
0

>  <SCORE.SYSTEM.DIHEDRAL>
3.43976

>  <SCORE.SYSTEM.VDW>
0.0264277

>  <SCORE.SYSTEM.norm>
0.0970171

>  <SCORE.heavy>
18

>  <SCORE.norm>
-0.768807

>  <SMILES>
CC(=O)O[C@@H]1[C@@H](CO)O[C@H](O)[C@@H](/N=C(/C)O)[C@H]1O

>  <UniqueID>
13

$$$$
76325328
  rDOCK(R)          3D
libRbt.so/2013.1/901 2013/11/27
 39 43  0  0  0  0  0  0  0  0999 V2000
   88.3742   15.9412  -99.6400 C   0  0  0  0  0  0
   88.5212   16.2996 -101.0527 N   0  0  0  0  0  0
   87.8933   15.7329 -102.1121 C   0  0  0  0  0  0
   86.9879   14.5691 -102.0483 C   0  0  0  0  0  0
   86.8654   13.6914 -100.9925 C   0  0  0  0  0  0
   85.9199   12.8058 -101.3493 N   0  0  0  0  0  0
   85.3983   11.7114 -100.5255 C   0  0  0  0  0  0
   84.1414   12.1599  -99.7563 C   0  0  0  0  0  0
   83.1613   12.6623 -100.6307 O   0  0  0  0  0  0
   83.6272   11.0997  -98.9633 O   0  0  0  0  0  0
   83.2125    9.9962  -99.7576 C   0  0  0  0  0  0
   82.5614    8.9663  -98.8232 C   0  0  0  0  0  0
   82.3601    7.7521  -99.4930 O   0  0  0  0  0  0
   84.4153    9.3844 -100.5192 C   0  0  0  0  0  0
   83.9762    8.3361 -101.3451 O   0  0  0  0  0  0
   85.0849   10.4710 -101.3832 C   0  0  0  0  0  0
   86.2509    9.9799 -101.9977 O   0  0  0  0  0  0
   85.4735   13.1332 -102.5527 N   0  0  0  0  0  0
   86.1100   14.2039 -103.0046 N   0  0  0  0  0  0
   88.1869   16.3449 -103.2791 N   0  0  0  0  0  0
   89.0464   17.3284 -102.9458 C   0  0  0  0  0  0
   89.6485   18.2386 -103.9450 C   0  0  0  0  0  0
   89.5269   17.9453 -105.3137 C   0  0  0  0  0  0
   90.0979   18.7891 -106.2713 C   0  0  0  0  0  0
   90.8061   19.9253 -105.8711 C   0  0  0  0  0  0
   91.3600   20.7418 -106.8008 F   0  0  0  0  0  0
   90.9505   20.2145 -104.5118 C   0  0  0  0  0  0
   90.3811   19.3733 -103.5511 C   0  0  0  0  0  0
   89.2603   17.3038 -101.5746 C   0  0  0  0  0  0
   90.0735   18.2577 -100.7911 C   0  0  0  0  0  0
   89.7610   19.6244 -100.7939 C   0  0  0  0  0  0
   90.5546   20.5122 -100.0642 C   0  0  0  0  0  0
   91.6230   20.0516  -99.3606 N   0  0  0  0  0  0
   91.9498   18.7321  -99.3437 C   0  0  0  0  0  0
   91.1827   17.8106 -100.0600 C   0  0  0  0  0  0
   82.3928   12.9318 -100.0637 H   0  0  0  0  0  0
   81.5981    7.3090  -99.0369 H   0  0  0  0  0  0
   83.4399    7.7261 -100.7753 H   0  0  0  0  0  0
   86.6273   10.7080 -102.5580 H   0  0  0  0  0  0
  1  2  1  0  0  0
  2  3  1  0  0  0
  3  4  1  0  0  0
  3 20  2  0  0  0
  4  5  2  0  0  0
  5  6  1  0  0  0
  6  7  1  0  0  0
  6 18  1  0  0  0
  7  8  1  0  0  0
  8  9  1  0  0  0
  8 10  1  0  0  0
  9 36  1  0  0  0
 10 11  1  0  0  0
 11 12  1  0  0  0
 11 14  1  0  0  0
 12 13  1  0  0  0
 13 37  1  0  0  0
 14 15  1  0  0  0
 14 16  1  0  0  0
 15 38  1  0  0  0
 16 17  1  0  0  0
 16  7  1  0  0  0
 17 39  1  0  0  0
 18 19  2  0  0  0
 19  4  1  0  0  0
 20 21  1  0  0  0
 21 22  1  0  0  0
 21 29  2  0  0  0
 22 23  2  0  0  0
 23 24  1  0  0  0
 24 25  2  0  0  0
 25 26  1  0  0  0
 25 27  1  0  0  0
 27 28  2  0  0  0
 28 22  1  0  0  0
 29 30  1  0  0  0
 29  2  1  0  0  0
 30 31  2  0  0  0
 31 32  1  0  0  0
 32 33  2  0  0  0
 33 34  1  0  0  0
 34 35  2  0  0  0
 35 30  1  0  0  0
M  END
>  <CHROM.0>
-178.78660330,155.88373449,52.28559269

>  <CHROM.1>
-15.72472733,93.03756366,-179.70977231,-168.76799306,-153.81464173,-51.66312799
-58.74525888,-11.67081581,-116.26126319,87.43471692,14.97140911,-101.71229618
-0.28324791,0.93743554,1.61739325

>  <Energy>
140.71225602157318

>  <Genealogy>
Cn1c(-c2cn([C@H]3[C@@H](O)O[C@H](CO)[C@@H](O)[C@@H]3O)nn2)nc(-c2ccc(F)cc2)c1-c1ccncc1 (chirality)
Cn1c(-c2cn([C@H]3[C@@H](O)O[C@H](CO)[C@@H](O)[C@@H]3O)nn2)nc(-c2ccc(F)cc2)c1-c1ccncc1 (3D coordinates assigned)
Cn1c(-c2cn([C@H]3[C@@H](O)O[C@H](CO)[C@@H](O)[C@@H]3O)nn2)nc(-c2ccc(F)cc2)c1-c1ccncc1 (nonaromatic ring conformer: 140.71225602157318 kcal/mol)

>  <Name>
76325328

>  <RI>
3.95439e+07

>  <Rbt.Current_Directory>
/home/edward/Documentos/Virtual_Screening/rDock/2

>  <Rbt.Executable>
rbdock ($Id: //depot/dev/client3/rdock/2013.1/src/exe/rbdock.cxx#4 $)

>  <Rbt.Library>
libRbt.so (2013.1, Build901 2013/11/27)

>  <Rbt.Parameter_File>
/home/edward/anaconda3/envs/MD/share/rdock-2013.1-1/data/scripts/dock.prm

>  <Rbt.Receptor>
parameters.prm

>  <SCORE>
-20.3784

>  <SCORE.INTER>
-22.6688

>  <SCORE.INTER.CONST>
1

>  <SCORE.INTER.POLAR>
-2.78016

>  <SCORE.INTER.REPUL>
0.113926

>  <SCORE.INTER.ROT>
5

>  <SCORE.INTER.VDW>
-24.1859

>  <SCORE.INTER.norm>
-0.647681

>  <SCORE.INTRA>
-0.150816

>  <SCORE.INTRA.DIHEDRAL>
-0.588391

>  <SCORE.INTRA.DIHEDRAL.0>
18.4441

>  <SCORE.INTRA.POLAR>
-0.821183

>  <SCORE.INTRA.POLAR.0>
0

>  <SCORE.INTRA.REPUL>
0

>  <SCORE.INTRA.REPUL.0>
0

>  <SCORE.INTRA.VDW>
2.9354

>  <SCORE.INTRA.VDW.0>
-4.09433

>  <SCORE.INTRA.norm>
-0.00430903

>  <SCORE.RESTR>
0

>  <SCORE.RESTR.CAVITY>
0

>  <SCORE.RESTR.norm>
0

>  <SCORE.SYSTEM>
2.44122

>  <SCORE.SYSTEM.CONST>
0

>  <SCORE.SYSTEM.DIHEDRAL>
2.81441

>  <SCORE.SYSTEM.VDW>
1.03401

>  <SCORE.SYSTEM.norm>
0.0697491

>  <SCORE.heavy>
35

>  <SCORE.norm>
-0.582241

>  <SMILES>
Cn1c(-c2cn([C@H]3[C@@H](O)O[C@H](CO)[C@@H](O)[C@@H]3O)nn2)nc(-c2ccc(F)cc2)c1-c1ccncc1

>  <UniqueID>
17

$$$$
57376616
  rDOCK(R)          3D
libRbt.so/2013.1/901 2013/11/27
 20 20  0  0  0  0  0  0  0  0999 V2000
   89.5719   19.4201 -104.6707 C   0  0  0  0  0  0
   88.9146   18.4539 -103.7399 C   0  0  0  0  0  0
   89.4869   18.1436 -102.6601 O   0  0  0  0  0  0
   87.6620   17.8539 -104.0989 N   0  0  0  0  0  0
   86.9568   16.9172 -103.2141 C   0  0  0  0  0  0
   86.9840   15.4838 -103.7861 C   0  0  0  0  0  0
   86.4755   15.4414 -105.0948 O   0  0  0  0  0  0
   86.3160   14.5548 -102.9413 O   0  0  0  0  0  0
   84.9558   14.8852 -102.6758 C   0  0  0  0  0  0
   84.0274   14.5175 -103.8543 C   0  0  0  0  0  0
   84.4300   13.3023 -104.4252 O   0  0  0  0  0  0
   84.7808   16.3275 -102.1218 C   0  0  0  0  0  0
   83.4235   16.6693 -102.0008 O   0  0  0  0  0  0
   85.5129   17.3782 -102.9718 C   0  0  0  0  0  0
   84.8589   17.5920 -104.1976 O   0  0  0  0  0  0
   87.2728   18.0661 -105.0458 H   0  0  0  0  0  0
   86.7421   14.5624 -105.4710 H   0  0  0  0  0  0
   85.2929   13.4830 -104.8810 H   0  0  0  0  0  0
   83.3918   17.5923 -101.6362 H   0  0  0  0  0  0
   85.0552   16.8072 -104.7729 H   0  0  0  0  0  0
  1  2  1  0  0  0
  2  3  2  0  0  0
  2  4  1  0  0  0
  4  5  1  0  0  0
  4 16  1  0  0  0
  5  6  1  0  0  0
  6  7  1  0  0  0
  6  8  1  0  0  0
  7 17  1  0  0  0
  8  9  1  0  0  0
  9 10  1  0  0  0
  9 12  1  0  0  0
 10 11  1  0  0  0
 11 18  1  0  0  0
 12 13  1  0  0  0
 12 14  1  0  0  0
 13 19  1  0  0  0
 14 15  1  0  0  0
 14  5  1  0  0  0
 15 20  1  0  0  0
M  END
>  <CHROM.0>
179.22642998,153.15837654,-64.37010033

>  <CHROM.1>
-110.26034341,165.48699516,38.47625789,-69.77951904,179.47138390,46.61347129
86.25028933,16.42832950,-103.53504331,-0.57841850,-0.39440947,-2.72769234

>  <Energy>
31.811300309657906

>  <Genealogy>
CC(=O)N[C@@H]1[C@H](O)O[C@H](CO)[C@H](O)[C@@H]1O (chirality)
CC(=O)N[C@@H]1[C@H](O)O[C@H](CO)[C@H](O)[C@@H]1O (3D coordinates assigned)
CC(=O)N[C@@H]1[C@H](O)O[C@H](CO)[C@H](O)[C@@H]1O (nonaromatic ring conformer: 31.811300309657906 kcal/mol)

>  <Name>
57376616

>  <RI>
3.95439e+07

>  <Rbt.Current_Directory>
/home/edward/Documentos/Virtual_Screening/rDock/2

>  <Rbt.Executable>
rbdock ($Id: //depot/dev/client3/rdock/2013.1/src/exe/rbdock.cxx#4 $)

>  <Rbt.Library>
libRbt.so (2013.1, Build901 2013/11/27)

>  <Rbt.Parameter_File>
/home/edward/anaconda3/envs/MD/share/rdock-2013.1-1/data/scripts/dock.prm

>  <Rbt.Receptor>
parameters.prm

>  <SCORE>
-18.0031

>  <SCORE.INTER>
-17.2773

>  <SCORE.INTER.CONST>
1

>  <SCORE.INTER.POLAR>
-4.22206

>  <SCORE.INTER.REPUL>
0.137954

>  <SCORE.INTER.ROT>
2

>  <SCORE.INTER.VDW>
-11.0121

>  <SCORE.INTER.norm>
-1.15182

>  <SCORE.INTRA>
-2.47224

>  <SCORE.INTRA.DIHEDRAL>
-1.37741

>  <SCORE.INTRA.DIHEDRAL.0>
6.72284

>  <SCORE.INTRA.POLAR>
-0.815896

>  <SCORE.INTRA.POLAR.0>
0

>  <SCORE.INTRA.REPUL>
-0.00295975

>  <SCORE.INTRA.REPUL.0>
0.00295975

>  <SCORE.INTRA.VDW>
1.00531

>  <SCORE.INTRA.VDW.0>
-1.81544

>  <SCORE.INTRA.norm>
-0.164816

>  <SCORE.RESTR>
0

>  <SCORE.RESTR.CAVITY>
0

>  <SCORE.RESTR.norm>
0

>  <SCORE.SYSTEM>
1.74644

>  <SCORE.SYSTEM.CONST>
0

>  <SCORE.SYSTEM.DIHEDRAL>
3.3504

>  <SCORE.SYSTEM.VDW>
0.0712412

>  <SCORE.SYSTEM.norm>
0.11643

>  <SCORE.heavy>
15

>  <SCORE.norm>
-1.20021

>  <SMILES>
CC(=O)N[C@@H]1[C@H](O)O[C@H](CO)[C@H](O)[C@@H]1O

>  <UniqueID>
22

$$$$
57339292
  rDOCK(R)          3D
libRbt.so/2013.1/901 2013/11/27
 25 25  0  0  0  0  0  0  0  0999 V2000
   90.1622   21.8493 -103.2252 N   0  0  0  0  0  0
   90.7918   20.5389 -103.4238 C   0  0  0  0  0  0
   90.0812   19.4452 -102.5842 C   0  0  0  0  0  0
   89.6648   19.9778 -101.3400 O   0  0  0  0  0  0
   90.7694   20.2179 -100.4803 C   0  0  0  0  0  0
   90.2729   20.9227  -99.2123 C   0  0  0  0  0  0
   89.5596   22.1939  -99.5554 C   0  0  0  0  0  0
   88.8188   22.7538  -98.7050 O   0  0  0  0  0  0
   89.7539   22.7878 -100.7959 O   0  5  0  0  0  0
   91.3958   18.9051 -100.1102 C   0  0  0  0  0  0
   92.3548   18.8679  -99.2944 O   0  0  0  0  0  0
   90.8978   17.7196 -100.6378 O   0  5  0  0  0  0
   88.9595   18.9491 -103.2978 O   0  0  0  0  0  0
   89.3474   18.1380 -104.4038 C   0  0  0  0  0  0
   89.4650   16.6703 -103.9622 C   0  0  0  0  0  0
   89.9374   15.8831 -105.0201 O   0  0  0  0  0  0
   90.6273   18.6475 -105.1382 C   0  0  0  0  0  0
   90.5422   18.3723 -106.5137 O   0  0  0  0  0  0
   90.7617   20.1676 -104.9336 C   0  0  0  0  0  0
   91.8956   20.6703 -105.5967 O   0  0  0  0  0  0
   90.6930   22.5581 -103.7823 H   0  0  0  0  0  0
   90.2916   22.1333 -102.2268 H   0  0  0  0  0  0
   89.2390   15.9196 -105.7244 H   0  0  0  0  0  0
   90.2221   17.4374 -106.6036 H   0  0  0  0  0  0
   91.8203   20.4187 -106.5544 H   0  0  0  0  0  0
  1  2  1  0  0  0
  1 21  1  0  0  0
  1 22  1  0  0  0
  2  3  1  0  0  0
  3  4  1  0  0  0
  3 13  1  0  0  0
  4  5  1  0  0  0
  5  6  1  0  0  0
  5 10  1  0  0  0
  6  7  1  0  0  0
  7  8  2  0  0  0
  7  9  1  0  0  0
 10 11  2  0  0  0
 10 12  1  0  0  0
 13 14  1  0  0  0
 14 15  1  0  0  0
 14 17  1  0  0  0
 15 16  1  0  0  0
 16 23  1  0  0  0
 17 18  1  0  0  0
 17 19  1  0  0  0
 18 24  1  0  0  0
 19 20  1  0  0  0
 19  2  1  0  0  0
 20 25  1  0  0  0
M  END
>  <CHROM.0>
-176.57215631,154.79247750,55.55629312

>  <CHROM.1>
178.05191961,-71.68175881,174.30651401,-56.97486293,-176.26123243,163.53440831
-175.81935840,-64.45426251,-45.29159593,-179.15287043,90.30186794,19.66738584
-102.46532844,1.95965486,-1.48798779,1.42212634

>  <Energy>
40.568492244804474

>  <Genealogy>
N[C@H]1[C@@H](O[C@@H](CC(=O)[O-])C(=O)[O-])O[C@H](CO)[C@@H](O)[C@@H]1O (protonated)
N[C@H]1[C@@H](O[C@@H](CC(=O)[O-])C(=O)[O-])O[C@H](CO)[C@@H](O)[C@@H]1O (3D coordinates assigned)
N[C@H]1[C@@H](O[C@@H](CC(=O)[O-])C(=O)[O-])O[C@H](CO)[C@@H](O)[C@@H]1O (nonaromatic ring conformer: 40.568492244804474 kcal/mol)

>  <Name>
57339292

>  <RI>
3.95439e+07

>  <Rbt.Current_Directory>
/home/edward/Documentos/Virtual_Screening/rDock/2

>  <Rbt.Executable>
rbdock ($Id: //depot/dev/client3/rdock/2013.1/src/exe/rbdock.cxx#4 $)

>  <Rbt.Library>
libRbt.so (2013.1, Build901 2013/11/27)

>  <Rbt.Parameter_File>
/home/edward/anaconda3/envs/MD/share/rdock-2013.1-1/data/scripts/dock.prm

>  <Rbt.Receptor>
parameters.prm

>  <SCORE>
-17.3216

>  <SCORE.INTER>
-14.1096

>  <SCORE.INTER.CONST>
1

>  <SCORE.INTER.POLAR>
-3.29568

>  <SCORE.INTER.REPUL>
0.0726164

>  <SCORE.INTER.ROT>
7

>  <SCORE.INTER.VDW>
-15.6674

>  <SCORE.INTER.norm>
-0.705481

>  <SCORE.INTRA>
-5.68103

>  <SCORE.INTRA.DIHEDRAL>
-7.94862

>  <SCORE.INTRA.DIHEDRAL.0>
12.528

>  <SCORE.INTRA.POLAR>
-1.30415

>  <SCORE.INTRA.POLAR.0>
0

>  <SCORE.INTRA.REPUL>
0

>  <SCORE.INTRA.REPUL.0>
0

>  <SCORE.INTRA.VDW>
2.72739

>  <SCORE.INTRA.VDW.0>
-3.05028

>  <SCORE.INTRA.norm>
-0.284051

>  <SCORE.RESTR>
0

>  <SCORE.RESTR.CAVITY>
0

>  <SCORE.RESTR.norm>
0

>  <SCORE.SYSTEM>
2.46903

>  <SCORE.SYSTEM.CONST>
0

>  <SCORE.SYSTEM.DIHEDRAL>
3.10341

>  <SCORE.SYSTEM.VDW>
0.917325

>  <SCORE.SYSTEM.norm>
0.123451

>  <SCORE.heavy>
20

>  <SCORE.norm>
-0.866081

>  <SMILES>
N[C@H]1[C@@H](O[C@@H](CC(=O)[O-])C(=O)[O-])O[C@H](CO)[C@@H](O)[C@@H]1O

>  <UniqueID>
24

$$$$
57339290
  rDOCK(R)          3D
libRbt.so/2013.1/901 2013/11/27
 27 27  0  0  0  0  0  0  0  0999 V2000
   88.8573   14.3185 -101.4073 C   0  0  0  0  0  0
   88.9303   15.0875 -102.6854 C   0  0  0  0  0  0
   88.2889   14.6837 -103.6930 O   0  0  0  0  0  0
   89.7154   16.2858 -102.7540 N   0  0  0  0  0  0
   89.7337   17.1481 -103.9419 C   0  0  0  0  0  0
   89.5386   18.6227 -103.5344 C   0  0  0  0  0  0
   90.4985   18.9908 -102.5544 O   0  0  0  0  0  0
   89.9442   19.8646 -101.5860 C   0  0  0  0  0  0
   90.9934   20.1406 -100.4949 C   0  0  0  0  0  0
   91.4452   18.8764  -99.8292 C   0  0  0  0  0  0
   92.2475   18.9215  -98.8599 O   0  0  0  0  0  0
   90.9475   17.6512 -100.2545 O   0  5  0  0  0  0
   89.5602   21.1406 -102.2781 C   0  0  0  0  0  0
   90.4492   21.9163 -102.7184 O   0  0  0  0  0  0
   88.2200   21.4630 -102.4556 O   0  5  0  0  0  0
   89.6029   19.4763 -104.6690 O   0  0  0  0  0  0
   90.8746   19.4281 -105.2991 C   0  0  0  0  0  0
   90.8831   20.4848 -106.4166 C   0  0  0  0  0  0
   92.1848   20.7268 -106.8797 O   0  0  0  0  0  0
   91.1471   18.0094 -105.8565 C   0  0  0  0  0  0
   92.4317   17.9433 -106.4238 O   0  0  0  0  0  0
   91.0613   16.9869 -104.7108 C   0  0  0  0  0  0
   91.2035   15.6752 -105.1989 O   0  0  0  0  0  0
   90.2897   16.5455 -101.9196 H   0  0  0  0  0  0
   92.5608   19.8474 -107.1458 H   0  0  0  0  0  0
   92.5387   17.0332 -106.8052 H   0  0  0  0  0  0
   91.1823   15.0584 -104.4210 H   0  0  0  0  0  0
  1  2  1  0  0  0
  2  3  2  0  0  0
  2  4  1  0  0  0
  4  5  1  0  0  0
  4 24  1  0  0  0
  5  6  1  0  0  0
  6  7  1  0  0  0
  6 16  1  0  0  0
  7  8  1  0  0  0
  8  9  1  0  0  0
  8 13  1  0  0  0
  9 10  1  0  0  0
 10 11  2  0  0  0
 10 12  1  0  0  0
 13 14  2  0  0  0
 13 15  1  0  0  0
 16 17  1  0  0  0
 17 18  1  0  0  0
 17 20  1  0  0  0
 18 19  1  0  0  0
 19 25  1  0  0  0
 20 21  1  0  0  0
 20 22  1  0  0  0
 21 26  1  0  0  0
 22 23  1  0  0  0
 22  5  1  0  0  0
 23 27  1  0  0  0
M  END
>  <CHROM.0>
-179.40607623,150.99963061,52.79349486

>  <CHROM.1>
132.13315564,-142.52765888,175.64229248,-58.71782263,-69.25316939,-176.01768156
166.02044875,54.66043401,-177.18283105,-59.38209887,90.41199974,18.42121635
-103.27660502,2.67600634,1.35562691,0.93708618

>  <Energy>
35.10147414004996

>  <Genealogy>
CC(=O)N[C@H]1[C@@H](O[C@@H](CC(=O)[O-])C(=O)[O-])O[C@H](CO)[C@@H](O)[C@@H]1O (3D coordinates assigned)
CC(=O)N[C@H]1[C@@H](O[C@@H](CC(=O)[O-])C(=O)[O-])O[C@H](CO)[C@@H](O)[C@@H]1O (nonaromatic ring conformer: 35.10147414004996 kcal/mol)

>  <Name>
57339290

>  <RI>
3.95439e+07

>  <Rbt.Current_Directory>
/home/edward/Documentos/Virtual_Screening/rDock/2

>  <Rbt.Executable>
rbdock ($Id: //depot/dev/client3/rdock/2013.1/src/exe/rbdock.cxx#4 $)

>  <Rbt.Library>
libRbt.so (2013.1, Build901 2013/11/27)

>  <Rbt.Parameter_File>
/home/edward/anaconda3/envs/MD/share/rdock-2013.1-1/data/scripts/dock.prm

>  <Rbt.Receptor>
parameters.prm

>  <SCORE>
-19.9842

>  <SCORE.INTER>
-12.619

>  <SCORE.INTER.CONST>
1

>  <SCORE.INTER.POLAR>
-1.86516

>  <SCORE.INTER.REPUL>
0.00646004

>  <SCORE.INTER.ROT>
7

>  <SCORE.INTER.VDW>
-18.7097

>  <SCORE.INTER.norm>
-0.54865

>  <SCORE.INTRA>
-9.76836

>  <SCORE.INTRA.DIHEDRAL>
-7.80741

>  <SCORE.INTRA.DIHEDRAL.0>
17.359

>  <SCORE.INTRA.POLAR>
-1.95157

>  <SCORE.INTRA.POLAR.0>
0

>  <SCORE.INTRA.REPUL>
0

>  <SCORE.INTRA.REPUL.0>
0

>  <SCORE.INTRA.VDW>
0.770684

>  <SCORE.INTRA.VDW.0>
-3.90649

>  <SCORE.INTRA.norm>
-0.424711

>  <SCORE.RESTR>
0

>  <SCORE.RESTR.CAVITY>
0

>  <SCORE.RESTR.norm>
0

>  <SCORE.SYSTEM>
2.40312

>  <SCORE.SYSTEM.CONST>
0

>  <SCORE.SYSTEM.DIHEDRAL>
3.71319

>  <SCORE.SYSTEM.VDW>
0.54653

>  <SCORE.SYSTEM.norm>
0.104484

>  <SCORE.heavy>
23

>  <SCORE.norm>
-0.868878

>  <SMILES>
CC(=O)N[C@H]1[C@@H](O[C@@H](CC(=O)[O-])C(=O)[O-])O[C@H](CO)[C@@H](O)[C@@H]1O

>  <UniqueID>
25

$$$$
54758653
  rDOCK(R)          3D
libRbt.so/2013.1/901 2013/11/27
 23 23  0  0  0  0  0  0  0  0999 V2000
   90.4064   20.5958 -100.9541 C   0  0  0  0  0  0
   89.9133   21.5778 -101.9663 C   0  0  0  0  0  0
   90.5833   21.7810 -103.0149 O   0  0  0  0  0  0
   88.6908   22.2912 -101.7331 N   0  0  0  0  0  0
   88.1379   23.2389 -102.7100 C   0  0  0  0  0  0
   87.1402   24.2336 -102.0432 C   0  0  0  0  0  0
   87.8297   25.3718 -101.5961 O   0  0  0  0  0  0
   86.0665   24.6158 -102.8978 O   0  0  0  0  0  0
   86.5108   24.8541 -104.2217 C   0  0  0  0  0  0
   85.3871   25.5609 -104.9895 C   0  0  0  0  0  0
   85.3785   26.9318 -104.6678 O   0  0  0  0  0  0
   84.6040   27.1233 -103.1616 P   0  0  0  0  0  0
   85.6533   27.2339 -102.0796 O   0  0  0  0  0  0
   83.6177   25.7866 -102.8393 O   0  5  0  0  0  0
   83.6645   28.5308 -103.1649 O   0  5  0  0  0  0
   86.9198   23.5146 -104.9034 C   0  0  0  0  0  0
   87.9350   23.7589 -105.8455 O   0  0  0  0  0  0
   87.4378   22.4946 -103.8638 C   0  0  0  0  0  0
   86.3568   21.7422 -103.3692 O   0  0  0  0  0  0
   88.2060   22.1373 -100.8201 H   0  0  0  0  0  0
   87.1431   26.0680 -101.4253 H   0  0  0  0  0  0
   88.7030   24.1521 -105.3553 H   0  0  0  0  0  0
   85.7039   22.3870 -102.9900 H   0  0  0  0  0  0
  1  2  1  0  0  0
  2  3  2  0  0  0
  2  4  1  0  0  0
  4  5  1  0  0  0
  4 20  1  0  0  0
  5  6  1  0  0  0
  6  7  1  0  0  0
  6  8  1  0  0  0
  7 21  1  0  0  0
  8  9  1  0  0  0
  9 10  1  0  0  0
  9 16  1  0  0  0
 10 11  1  0  0  0
 11 12  1  0  0  0
 12 13  2  0  0  0
 12 14  1  0  0  0
 12 15  1  0  0  0
 16 17  1  0  0  0
 16 18  1  0  0  0
 17 22  1  0  0  0
 18 19  1  0  0  0
 18  5  1  0  0  0
 19 23  1  0  0  0
M  END
>  <CHROM.0>
179.96648124,153.44453702,-48.18419871

>  <CHROM.1>
-159.37748033,164.14437577,79.76363397,-79.41359847,98.22465912,59.82326374
63.44866997,86.78311110,24.49312845,-103.15332189,-0.13556246,-0.83913890
1.21109585

>  <Energy>
34.203499741926336

>  <Genealogy>
CC(=O)N[C@@H]1[C@@H](O)O[C@H](COP(=O)([O-])[O-])[C@@H](O)[C@@H]1O (chirality)
CC(=O)N[C@@H]1[C@@H](O)O[C@H](COP(=O)([O-])[O-])[C@@H](O)[C@@H]1O (3D coordinates assigned)
CC(=O)N[C@@H]1[C@@H](O)O[C@H](COP(=O)([O-])[O-])[C@@H](O)[C@@H]1O (nonaromatic ring conformer: 34.203499741926336 kcal/mol)

>  <Name>
54758653

>  <RI>
3.95439e+07

>  <Rbt.Current_Directory>
/home/edward/Documentos/Virtual_Screening/rDock/2

>  <Rbt.Executable>
rbdock ($Id: //depot/dev/client3/rdock/2013.1/src/exe/rbdock.cxx#4 $)

>  <Rbt.Library>
libRbt.so (2013.1, Build901 2013/11/27)

>  <Rbt.Parameter_File>
/home/edward/anaconda3/envs/MD/share/rdock-2013.1-1/data/scripts/dock.prm

>  <Rbt.Receptor>
parameters.prm

>  <SCORE>
-16.2289

>  <SCORE.INTER>
-14.3435

>  <SCORE.INTER.CONST>
1

>  <SCORE.INTER.POLAR>
-2.95059

>  <SCORE.INTER.REPUL>
0.0192108

>  <SCORE.INTER.ROT>
4

>  <SCORE.INTER.VDW>
-13.8076

>  <SCORE.INTER.norm>
-0.754921

>  <SCORE.INTRA>
-4.15731

>  <SCORE.INTRA.DIHEDRAL>
0.263187

>  <SCORE.INTRA.DIHEDRAL.0>
6.9837

>  <SCORE.INTRA.POLAR>
-1.43735

>  <SCORE.INTRA.POLAR.0>
0

>  <SCORE.INTRA.REPUL>
0

>  <SCORE.INTRA.REPUL.0>
0

>  <SCORE.INTRA.VDW>
0.598083

>  <SCORE.INTRA.VDW.0>
-2.2385

>  <SCORE.INTRA.norm>
-0.218806

>  <SCORE.RESTR>
0

>  <SCORE.RESTR.CAVITY>
0

>  <SCORE.RESTR.norm>
0

>  <SCORE.SYSTEM>
2.27194

>  <SCORE.SYSTEM.CONST>
0

>  <SCORE.SYSTEM.DIHEDRAL>
4.06865

>  <SCORE.SYSTEM.VDW>
0.237611

>  <SCORE.SYSTEM.norm>
0.119576

>  <SCORE.heavy>
19

>  <SCORE.norm>
-0.854151

>  <SMILES>
CC(=O)N[C@@H]1[C@@H](O)O[C@H](COP(=O)([O-])[O-])[C@@H](O)[C@@H]1O

>  <UniqueID>
28

$$$$
54758613
  rDOCK(R)          3D
libRbt.so/2013.1/901 2013/11/27
 23 23  0  0  0  0  0  0  0  0999 V2000
   89.8124   15.0745 -104.6720 C   0  0  0  0  0  0
   90.2523   16.4532 -104.3016 C   0  0  0  0  0  0
   90.4936   16.7255 -103.0945 O   0  0  0  0  0  0
   90.3640   17.4630 -105.3142 N   0  0  0  0  0  0
   90.7078   18.8566 -105.0135 C   0  0  0  0  0  0
   91.5428   19.4603 -106.1663 C   0  0  0  0  0  0
   92.7601   18.7697 -106.2726 O   0  0  0  0  0  0
   91.8327   20.8231 -105.9057 O   0  0  0  0  0  0
   90.6419   21.5934 -105.8855 C   0  0  0  0  0  0
   91.0185   23.0789 -105.8198 C   0  0  0  0  0  0
   89.8509   23.8639 -105.7663 O   0  0  0  0  0  0
   89.1590   23.8979 -107.3116 S   0  0  0  0  0  0
   88.7444   22.5119 -107.7208 O   0  0  0  0  0  0
   90.1788   24.4110 -108.2879 O   0  0  0  0  0  0
   87.8233   24.9184 -107.3365 O   0  5  0  0  0  0
   89.7570   21.1758 -104.6885 C   0  0  0  0  0  0
   90.4377   21.4242 -103.4826 O   0  0  0  0  0  0
   89.4212   19.6764 -104.8112 C   0  0  0  0  0  0
   88.7513   19.2271 -103.6615 O   0  0  0  0  0  0
   90.0652   17.2223 -106.2870 H   0  0  0  0  0  0
   93.2480   18.9031 -105.4182 H   0  0  0  0  0  0
   91.2525   20.8572 -103.4880 H   0  0  0  0  0  0
   87.9165   19.7598 -103.5910 H   0  0  0  0  0  0
  1  2  1  0  0  0
  2  3  2  0  0  0
  2  4  1  0  0  0
  4  5  1  0  0  0
  4 20  1  0  0  0
  5  6  1  0  0  0
  6  7  1  0  0  0
  6  8  1  0  0  0
  7 21  1  0  0  0
  8  9  1  0  0  0
  9 10  1  0  0  0
  9 16  1  0  0  0
 10 11  1  0  0  0
 11 12  1  0  0  0
 12 13  2  0  0  0
 12 14  2  0  0  0
 12 15  1  0  0  0
 16 17  1  0  0  0
 16 18  1  0  0  0
 17 22  1  0  0  0
 18 19  1  0  0  0
 18  5  1  0  0  0
 19 23  1  0  0  0
M  END
>  <CHROM.0>
-177.89376002,153.66785174,-65.01367071

>  <CHROM.1>
146.32248193,-62.08153595,-178.59393166,-75.30905107,63.08280327,-62.27860612
-177.99965448,90.12008092,20.75068534,-105.66705098,1.39675456,-0.53734073
2.67194825

>  <Energy>
27.309557592692226

>  <Genealogy>
CC(=O)N[C@H]1[C@H](O)O[C@H](COS(=O)(=O)[O-])[C@H](O)[C@@H]1O (3D coordinates assigned)
CC(=O)N[C@H]1[C@H](O)O[C@H](COS(=O)(=O)[O-])[C@H](O)[C@@H]1O (nonaromatic ring conformer: 27.309557592692226 kcal/mol)

>  <Name>
54758613

>  <RI>
3.95439e+07

>  <Rbt.Current_Directory>
/home/edward/Documentos/Virtual_Screening/rDock/2

>  <Rbt.Executable>
rbdock ($Id: //depot/dev/client3/rdock/2013.1/src/exe/rbdock.cxx#4 $)

>  <Rbt.Library>
libRbt.so (2013.1, Build901 2013/11/27)

>  <Rbt.Parameter_File>
/home/edward/anaconda3/envs/MD/share/rdock-2013.1-1/data/scripts/dock.prm

>  <Rbt.Receptor>
parameters.prm

>  <SCORE>
-13.5616

>  <SCORE.INTER>
-13.8415

>  <SCORE.INTER.CONST>
1

>  <SCORE.INTER.POLAR>
-2.44276

>  <SCORE.INTER.REPUL>
0.00817974

>  <SCORE.INTER.ROT>
4

>  <SCORE.INTER.VDW>
-14.977

>  <SCORE.INTER.norm>
-0.728498

>  <SCORE.INTRA>
-1.47006

>  <SCORE.INTRA.DIHEDRAL>
-4.4878

>  <SCORE.INTRA.DIHEDRAL.0>
6.64926

>  <SCORE.INTRA.POLAR>
-0.000218376

>  <SCORE.INTRA.POLAR.0>
0

>  <SCORE.INTRA.REPUL>
0

>  <SCORE.INTRA.REPUL.0>
0

>  <SCORE.INTRA.VDW>
0.774582

>  <SCORE.INTRA.VDW.0>
-2.17904

>  <SCORE.INTRA.norm>
-0.0773716

>  <SCORE.RESTR>
0

>  <SCORE.RESTR.CAVITY>
0

>  <SCORE.RESTR.norm>
0

>  <SCORE.SYSTEM>
1.74996

>  <SCORE.SYSTEM.CONST>
0

>  <SCORE.SYSTEM.DIHEDRAL>
3.26333

>  <SCORE.SYSTEM.VDW>
0.118294

>  <SCORE.SYSTEM.norm>
0.092103

>  <SCORE.heavy>
19

>  <SCORE.norm>
-0.713767

>  <SMILES>
CC(=O)N[C@H]1[C@H](O)O[C@H](COS(=O)(=O)[O-])[C@H](O)[C@@H]1O

>  <UniqueID>
29

$$$$
52948856
  rDOCK(R)          3D
libRbt.so/2013.1/901 2013/11/27
 41 44  0  0  0  0  0  0  0  0999 V2000
   87.8255   23.9013  -97.5024 C   0  0  0  0  0  0
   87.6649   23.2557  -98.7454 O   0  0  0  0  0  0
   87.4871   21.8621  -98.5613 C   0  0  0  0  0  0
   87.3343   21.1378  -99.9106 C   0  0  0  0  0  0
   87.1975   19.7520  -99.6402 O   0  0  0  0  0  0
   87.1763   18.9742 -100.8295 C   0  0  0  0  0  0
   88.3860   19.1079 -101.5588 O   0  0  0  0  0  0
   89.4734   18.6156 -100.8054 C   0  0  0  0  0  0
   90.7832   19.0354 -101.4699 C   0  0  0  0  0  0
   90.7445   18.7917 -102.9557 C   0  0  0  0  0  0
   90.4226   19.8383 -103.8362 C   0  0  0  0  0  0
   90.3790   19.6104 -105.2148 C   0  0  0  0  0  0
   90.6407   18.3348 -105.7218 C   0  0  0  0  0  0
   90.9409   17.2845 -104.8513 C   0  0  0  0  0  0
   90.9920   17.5092 -103.4724 C   0  0  0  0  0  0
   85.9582   19.3500 -101.7182 C   0  0  0  0  0  0
   85.9179   18.5808 -102.9855 N   0  3  0  0  0  0
   85.1085   17.3512 -102.8817 C   0  0  0  0  0  0
   85.3177   16.4215 -104.0905 C   0  0  0  0  0  0
   86.7374   15.8450 -104.1510 C   0  0  0  0  0  0
   87.7169   16.9255 -104.2127 N   0  0  0  0  0  0
   85.9565   20.8695 -102.0096 C   0  0  0  0  0  0
   87.0421   21.1945 -102.8667 O   0  0  0  0  0  0
   86.8058   22.3990 -103.5618 C   0  0  0  0  0  0
   88.1248   23.0655 -103.8150 C   0  0  0  0  0  0
   88.6210   24.0063 -102.8998 C   0  0  0  0  0  0
   89.8101   24.6914 -103.1630 C   0  0  0  0  0  0
   90.5141   24.4512 -104.3515 C   0  0  0  0  0  0
   91.7008   25.1455 -104.6338 C   0  0  0  0  0  0
   92.3864   24.9061 -105.8282 C   0  0  0  0  0  0
   91.8949   23.9746 -106.7464 C   0  0  0  0  0  0
   90.7146   23.2763 -106.4773 C   0  0  0  0  0  0
   90.0164   23.5071 -105.2820 C   0  0  0  0  0  0
   88.8202   22.8264 -105.0103 C   0  0  0  0  0  0
   86.1041   21.6532 -100.6942 C   0  0  0  0  0  0
   86.2463   23.0222 -100.9760 O   0  0  0  0  0  0
   85.4965   19.1910 -103.7253 H   0  0  0  0  0  0
   86.8906   18.3304 -103.2785 H   0  0  0  0  0  0
   87.6305   17.3932 -105.1449 H   0  0  0  0  0  0
   88.6688   16.4924 -104.1873 H   0  0  0  0  0  0
   86.4680   23.4696 -100.1181 H   0  0  0  0  0  0
  1  2  1  0  0  0
  2  3  1  0  0  0
  3  4  1  0  0  0
  4  5  1  0  0  0
  5  6  1  0  0  0
  6  7  1  0  0  0
  6 16  1  0  0  0
  7  8  1  0  0  0
  8  9  1  0  0  0
  9 10  1  0  0  0
 10 11  2  0  0  0
 11 12  1  0  0  0
 12 13  2  0  0  0
 13 14  1  0  0  0
 14 15  2  0  0  0
 15 10  1  0  0  0
 16 17  1  0  0  0
 16 22  1  0  0  0
 17 18  1  0  0  0
 17 37  1  0  0  0
 17 38  1  0  0  0
 18 19  1  0  0  0
 19 20  1  0  0  0
 20 21  1  0  0  0
 21 39  1  0  0  0
 21 40  1  0  0  0
 22 23  1  0  0  0
 22 35  1  0  0  0
 23 24  1  0  0  0
 24 25  1  0  0  0
 25 26  2  0  0  0
 26 27  1  0  0  0
 27 28  2  0  0  0
 28 29  1  0  0  0
 29 30  2  0  0  0
 30 31  1  0  0  0
 31 32  2  0  0  0
 32 33  1  0  0  0
 33 34  2  0  0  0
 33 28  1  0  0  0
 34 25  1  0  0  0
 35 36  1  0  0  0
 35  4  1  0  0  0
 36 41  1  0  0  0
M  END
>  <CHROM.0>
-75.60824238,154.40157686,-59.96741015

>  <CHROM.1>
-179.02211786,178.47401686,63.05786654,-168.01240742,-46.01074071,97.00950816
92.65282971,-167.82682347,66.56146545,-58.33603616,-69.16074734,157.28808060
149.41358182,-92.40215192,-51.03459622,88.49074218,20.79783426,-102.77543275
0.58105647,0.89753720,0.41724213

>  <Energy>
74.4083140286943

>  <Genealogy>
COC[C@H]1OC(OCCc2ccccc2)[C@H]([NH2+]CCCN)C(OCc2ccc3ccccc3c2)[C@@H]1O (protonated)
COC[C@H]1O[C@H](OCCc2ccccc2)[C@H]([NH2+]CCCN)[C@H](OCc2ccc3ccccc3c2)[C@@H]1O (chirality)
COC[C@H]1O[C@H](OCCc2ccccc2)[C@H]([NH2+]CCCN)[C@H](OCc2ccc3ccccc3c2)[C@@H]1O (3D coordinates assigned)
COC[C@H]1O[C@H](OCCc2ccccc2)[C@H]([NH2+]CCCN)[C@H](OCc2ccc3ccccc3c2)[C@@H]1O (nonaromatic ring conformer: 74.4083140286943 kcal/mol)

>  <Name>
52948856

>  <RI>
3.95439e+07

>  <Rbt.Current_Directory>
/home/edward/Documentos/Virtual_Screening/rDock/2

>  <Rbt.Executable>
rbdock ($Id: //depot/dev/client3/rdock/2013.1/src/exe/rbdock.cxx#4 $)

>  <Rbt.Library>
libRbt.so (2013.1, Build901 2013/11/27)

>  <Rbt.Parameter_File>
/home/edward/anaconda3/envs/MD/share/rdock-2013.1-1/data/scripts/dock.prm

>  <Rbt.Receptor>
parameters.prm

>  <SCORE>
-12.6827

>  <SCORE.INTER>
-9.935

>  <SCORE.INTER.CONST>
1

>  <SCORE.INTER.POLAR>
-2.12972

>  <SCORE.INTER.REPUL>
0

>  <SCORE.INTER.ROT>
14

>  <SCORE.INTER.VDW>
-22.0939

>  <SCORE.INTER.norm>
-0.275972

>  <SCORE.INTRA>
-6.0581

>  <SCORE.INTRA.DIHEDRAL>
-5.44098

>  <SCORE.INTRA.DIHEDRAL.0>
17.3258

>  <SCORE.INTRA.POLAR>
-1.71891

>  <SCORE.INTRA.POLAR.0>
0

>  <SCORE.INTRA.REPUL>
0.033133

>  <SCORE.INTRA.REPUL.0>
0.244439

>  <SCORE.INTRA.VDW>
2.34101

>  <SCORE.INTRA.VDW.0>
-6.89097

>  <SCORE.INTRA.norm>
-0.16828

>  <SCORE.RESTR>
0

>  <SCORE.RESTR.CAVITY>
0

>  <SCORE.RESTR.norm>
0

>  <SCORE.SYSTEM>
3.31041

>  <SCORE.SYSTEM.CONST>
0

>  <SCORE.SYSTEM.DIHEDRAL>
4.37913

>  <SCORE.SYSTEM.VDW>
1.12085

>  <SCORE.SYSTEM.norm>
0.0919559

>  <SCORE.heavy>
36

>  <SCORE.norm>
-0.352297

>  <SMILES>
COC[C@H]1O[C@H](OCCc2ccccc2)[C@H]([NH2+]CCCN)[C@H](OCc2ccc3ccccc3c2)[C@@H]1O

>  <UniqueID>
31

$$$$
52944904
  rDOCK(R)          3D
libRbt.so/2013.1/901 2013/11/27
 39 42  0  0  0  0  0  0  0  0999 V2000
   91.1707   15.4708 -104.9875 C   0  0  0  0  0  0
   90.2675   16.5246 -104.7407 O   0  0  0  0  0  0
   90.9867   17.7249 -104.5482 C   0  0  0  0  0  0
   90.0184   18.9094 -104.6381 C   0  0  0  0  0  0
   89.1053   18.8250 -103.5564 O   0  0  0  0  0  0
   88.0906   19.8086 -103.6731 C   0  0  0  0  0  0
   87.1610   19.6060 -102.6203 O   0  0  0  0  0  0
   86.6555   18.2839 -102.6044 C   0  0  0  0  0  0
   85.7065   18.0301 -103.7828 C   0  0  0  0  0  0
   85.0790   16.6674 -103.6694 C   0  0  0  0  0  0
   85.6428   15.5663 -104.3352 C   0  0  0  0  0  0
   85.0803   14.2935 -104.1918 C   0  0  0  0  0  0
   83.9604   14.1099 -103.3756 C   0  0  0  0  0  0
   83.4017   15.1987 -102.7003 C   0  0  0  0  0  0
   83.9596   16.4730 -102.8422 C   0  0  0  0  0  0
   88.7104   21.2216 -103.5206 C   0  0  0  0  0  0
   87.6896   22.2854 -103.6302 N   0  0  0  0  0  0
   88.1871   23.6187 -103.2557 C   0  0  0  0  0  0
   87.3253   24.7029 -103.9046 C   0  0  0  0  0  0
   85.9979   24.7465 -103.2991 N   0  0  0  0  0  0
   89.7922   21.4411 -104.5986 C   0  0  0  0  0  0
   89.1830   21.5297 -105.8818 O   0  0  0  0  0  0
   89.9895   22.2435 -106.8008 C   0  0  0  0  0  0
   90.0191   23.7063 -106.4480 C   0  0  0  0  0  0
   89.0592   24.5845 -106.9748 C   0  0  0  0  0  0
   89.0598   25.9338 -106.6128 C   0  0  0  0  0  0
   90.0217   26.4240 -105.7181 C   0  0  0  0  0  0
   90.0300   27.7777 -105.3468 C   0  0  0  0  0  0
   90.9959   28.2544 -104.4560 C   0  0  0  0  0  0
   91.9559   27.3869 -103.9285 C   0  0  0  0  0  0
   91.9564   26.0356 -104.2876 C   0  0  0  0  0  0
   90.9932   25.5440 -105.1822 C   0  0  0  0  0  0
   90.9811   24.1895 -105.5475 C   0  0  0  0  0  0
   90.7822   20.2577 -104.5796 C   0  0  0  0  0  0
   91.7230   20.3760 -105.6199 O   0  0  0  0  0  0
   86.8499   22.0502 -103.0498 H   0  0  0  0  0  0
   85.4522   25.5040 -103.7718 H   0  0  0  0  0  0
   86.1120   25.0416 -102.3025 H   0  0  0  0  0  0
   92.5008   19.8025 -105.3957 H   0  0  0  0  0  0
  1  2  1  0  0  0
  2  3  1  0  0  0
  3  4  1  0  0  0
  4  5  1  0  0  0
  5  6  1  0  0  0
  6  7  1  0  0  0
  6 16  1  0  0  0
  7  8  1  0  0  0
  8  9  1  0  0  0
  9 10  1  0  0  0
 10 11  2  0  0  0
 11 12  1  0  0  0
 12 13  2  0  0  0
 13 14  1  0  0  0
 14 15  2  0  0  0
 15 10  1  0  0  0
 16 17  1  0  0  0
 16 21  1  0  0  0
 17 18  1  0  0  0
 17 36  1  0  0  0
 18 19  1  0  0  0
 19 20  1  0  0  0
 20 37  1  0  0  0
 20 38  1  0  0  0
 21 22  1  0  0  0
 21 34  1  0  0  0
 22 23  1  0  0  0
 23 24  1  0  0  0
 24 25  2  0  0  0
 25 26  1  0  0  0
 26 27  2  0  0  0
 27 28  1  0  0  0
 28 29  2  0  0  0
 29 30  1  0  0  0
 30 31  2  0  0  0
 31 32  1  0  0  0
 32 33  2  0  0  0
 32 27  1  0  0  0
 33 24  1  0  0  0
 34 35  1  0  0  0
 34  4  1  0  0  0
 35 39  1  0  0  0
M  END
>  <CHROM.0>
179.41700221,155.48023484,49.74347720

>  <CHROM.1>
165.68331578,65.07451026,-54.71414331,-71.13011014,-174.44836786,-94.84073293
169.71682403,157.14281438,70.14845797,179.67766245,156.12863140,-70.56121483
-89.48284245,-75.32317738,88.60735122,21.00840503,-104.43479821,-1.98600591
0.31536111,-0.01010325

>  <Energy>
80.57119762461986

>  <Genealogy>
COC[C@H]1O[C@@H](OCCc2ccccc2)[C@H](NCCN)[C@H](OCc2ccc3ccccc3c2)[C@@H]1O (chirality)
COC[C@H]1O[C@@H](OCCc2ccccc2)[C@H](NCCN)[C@H](OCc2ccc3ccccc3c2)[C@@H]1O (3D coordinates assigned)
COC[C@H]1O[C@@H](OCCc2ccccc2)[C@H](NCCN)[C@H](OCc2ccc3ccccc3c2)[C@@H]1O (nonaromatic ring conformer: 80.57119762461986 kcal/mol)

>  <Name>
52944904

>  <RI>
3.95439e+07

>  <Rbt.Current_Directory>
/home/edward/Documentos/Virtual_Screening/rDock/2

>  <Rbt.Executable>
rbdock ($Id: //depot/dev/client3/rdock/2013.1/src/exe/rbdock.cxx#4 $)

>  <Rbt.Library>
libRbt.so (2013.1, Build901 2013/11/27)

>  <Rbt.Parameter_File>
/home/edward/anaconda3/envs/MD/share/rdock-2013.1-1/data/scripts/dock.prm

>  <Rbt.Receptor>
parameters.prm

>  <SCORE>
-15.4744

>  <SCORE.INTER>
-13.8

>  <SCORE.INTER.CONST>
1

>  <SCORE.INTER.POLAR>
-2.34081

>  <SCORE.INTER.REPUL>
0

>  <SCORE.INTER.ROT>
13

>  <SCORE.INTER.VDW>
-24.2412

>  <SCORE.INTER.norm>
-0.394285

>  <SCORE.INTRA>
-4.1112

>  <SCORE.INTRA.DIHEDRAL>
-12.7392

>  <SCORE.INTRA.DIHEDRAL.0>
21.6092

>  <SCORE.INTRA.POLAR>
0

>  <SCORE.INTRA.POLAR.0>
0

>  <SCORE.INTRA.REPUL>
0

>  <SCORE.INTRA.REPUL.0>
0

>  <SCORE.INTRA.VDW>
2.25842

>  <SCORE.INTRA.VDW.0>
-4.80616

>  <SCORE.INTRA.norm>
-0.117463

>  <SCORE.RESTR>
0

>  <SCORE.RESTR.CAVITY>
0

>  <SCORE.RESTR.norm>
0

>  <SCORE.SYSTEM>
2.43676

>  <SCORE.SYSTEM.CONST>
0

>  <SCORE.SYSTEM.DIHEDRAL>
2.87963

>  <SCORE.SYSTEM.VDW>
0.996948

>  <SCORE.SYSTEM.norm>
0.0696218

>  <SCORE.heavy>
35

>  <SCORE.norm>
-0.442126

>  <SMILES>
COC[C@H]1O[C@@H](OCCc2ccccc2)[C@H](NCCN)[C@H](OCc2ccc3ccccc3c2)[C@@H]1O

>  <UniqueID>
34

$$$$
52944903
  rDOCK(R)          3D
libRbt.so/2013.1/901 2013/11/27
 39 42  0  0  0  0  0  0  0  0999 V2000
   88.7800   20.5257  -97.3535 C   0  0  0  0  0  0
   88.0545   20.1101  -98.4898 O   0  0  0  0  0  0
   86.7331   20.6180  -98.4494 C   0  0  0  0  0  0
   85.9306   20.1374  -99.6698 C   0  0  0  0  0  0
   86.5992   20.5745 -100.8407 O   0  0  0  0  0  0
   85.8187   20.3135 -101.9954 C   0  0  0  0  0  0
   86.4974   20.8382 -103.1191 O   0  0  0  0  0  0
   86.5425   22.2490 -103.0732 C   0  0  0  0  0  0
   87.2513   22.7374 -104.3022 C   0  0  0  0  0  0
   86.5655   23.5091 -105.2530 C   0  0  0  0  0  0
   87.2388   24.0440 -106.3531 C   0  0  0  0  0  0
   88.6154   23.8278 -106.5100 C   0  0  0  0  0  0
   89.3078   24.3854 -107.5963 C   0  0  0  0  0  0
   90.6847   24.1864 -107.7285 C   0  0  0  0  0  0
   91.3789   23.4241 -106.7848 C   0  0  0  0  0  0
   90.7001   22.8577 -105.7012 C   0  0  0  0  0  0
   89.3176   23.0570 -105.5515 C   0  0  0  0  0  0
   88.6290   22.5161 -104.4533 C   0  0  0  0  0  0
   85.6719   18.7825 -102.1836 C   0  0  0  0  0  0
   84.9834   18.4196 -103.4463 N   0  3  0  0  0  0
   85.2468   17.0482 -103.9348 C   0  0  0  0  0  0
   86.7250   16.8380 -104.2821 C   0  0  0  0  0  0
   86.8671   15.8014 -105.2997 N   0  0  0  0  0  0
   85.0273   18.1390 -100.9298 C   0  0  0  0  0  0
   85.1053   16.7269 -101.0571 O   0  0  0  0  0  0
   84.2826   16.0797 -100.1125 C   0  0  0  0  0  0
   84.4088   14.5989 -100.3035 C   0  0  0  0  0  0
   84.6454   13.7521  -99.2083 C   0  0  0  0  0  0
   84.8062   12.3775  -99.4066 C   0  0  0  0  0  0
   84.7385   11.8413 -100.6967 C   0  0  0  0  0  0
   84.5132   12.6796 -101.7909 C   0  0  0  0  0  0
   84.3513   14.0543 -101.5976 C   0  0  0  0  0  0
   85.8001   18.5933  -99.6742 C   0  0  0  0  0  0
   85.1119   18.1682  -98.5232 O   0  0  0  0  0  0
   85.2808   19.0917 -104.1907 H   0  0  0  0  0  0
   83.9576   18.5770 -103.3212 H   0  0  0  0  0  0
   87.8374   15.8585 -105.6860 H   0  0  0  0  0  0
   86.7906   14.8705 -104.8297 H   0  0  0  0  0  0
   84.2090   18.5781  -98.5543 H   0  0  0  0  0  0
  1  2  1  0  0  0
  2  3  1  0  0  0
  3  4  1  0  0  0
  4  5  1  0  0  0
  5  6  1  0  0  0
  6  7  1  0  0  0
  6 19  1  0  0  0
  7  8  1  0  0  0
  8  9  1  0  0  0
  9 10  2  0  0  0
 10 11  1  0  0  0
 11 12  2  0  0  0
 12 13  1  0  0  0
 13 14  2  0  0  0
 14 15  1  0  0  0
 15 16  2  0  0  0
 16 17  1  0  0  0
 17 18  2  0  0  0
 17 12  1  0  0  0
 18  9  1  0  0  0
 19 20  1  0  0  0
 19 24  1  0  0  0
 20 21  1  0  0  0
 20 35  1  0  0  0
 20 36  1  0  0  0
 21 22  1  0  0  0
 22 23  1  0  0  0
 23 37  1  0  0  0
 23 38  1  0  0  0
 24 25  1  0  0  0
 24 33  1  0  0  0
 25 26  1  0  0  0
 26 27  1  0  0  0
 27 28  2  0  0  0
 28 29  1  0  0  0
 29 30  2  0  0  0
 30 31  1  0  0  0
 31 32  2  0  0  0
 32 27  1  0  0  0
 33 34  1  0  0  0
 33  4  1  0  0  0
 34 39  1  0  0  0
M  END
>  <CHROM.0>
-178.48304251,153.11601221,-172.22202208

>  <CHROM.1>
-178.61002737,-58.58035338,-67.33152724,-178.98686671,115.54625242,158.11937144
-63.08507540,-153.14200143,165.51699154,-166.77241588,179.85082848,131.31162072
61.03690998,86.64160476,19.18544345,-102.42639479,-2.93248819,-1.18067157
-1.92411519

>  <Energy>
82.44430888244324

>  <Genealogy>
COC[C@H]1OC(OCc2ccc3ccccc3c2)[C@H]([NH2+]CCN)C(OCc2ccccc2)[C@@H]1O (protonated)
COC[C@H]1O[C@@H](OCc2ccc3ccccc3c2)[C@H]([NH2+]CCN)[C@@H](OCc2ccccc2)[C@@H]1O (chirality)
COC[C@H]1O[C@@H](OCc2ccc3ccccc3c2)[C@H]([NH2+]CCN)[C@@H](OCc2ccccc2)[C@@H]1O (3D coordinates assigned)
COC[C@H]1O[C@@H](OCc2ccc3ccccc3c2)[C@H]([NH2+]CCN)[C@@H](OCc2ccccc2)[C@@H]1O (nonaromatic ring conformer: 82.44430888244324 kcal/mol)

>  <Name>
52944903

>  <RI>
3.95439e+07

>  <Rbt.Current_Directory>
/home/edward/Documentos/Virtual_Screening/rDock/2

>  <Rbt.Executable>
rbdock ($Id: //depot/dev/client3/rdock/2013.1/src/exe/rbdock.cxx#4 $)

>  <Rbt.Library>
libRbt.so (2013.1, Build901 2013/11/27)

>  <Rbt.Parameter_File>
/home/edward/anaconda3/envs/MD/share/rdock-2013.1-1/data/scripts/dock.prm

>  <Rbt.Receptor>
parameters.prm

>  <SCORE>
-19.7786

>  <SCORE.INTER>
-16.5334

>  <SCORE.INTER.CONST>
1

>  <SCORE.INTER.POLAR>
-3.63699

>  <SCORE.INTER.REPUL>
0.0602047

>  <SCORE.INTER.ROT>
12

>  <SCORE.INTER.VDW>
-21.8686

>  <SCORE.INTER.norm>
-0.486275

>  <SCORE.INTRA>
-6.84411

>  <SCORE.INTRA.DIHEDRAL>
-17.314

>  <SCORE.INTRA.DIHEDRAL.0>
23.6231

>  <SCORE.INTRA.POLAR>
-0.0561029

>  <SCORE.INTRA.POLAR.0>
-0.00419156

>  <SCORE.INTRA.REPUL>
0

>  <SCORE.INTRA.REPUL.0>
0

>  <SCORE.INTRA.VDW>
2.00362

>  <SCORE.INTRA.VDW.0>
-3.1127

>  <SCORE.INTRA.norm>
-0.201297

>  <SCORE.RESTR>
0

>  <SCORE.RESTR.CAVITY>
0

>  <SCORE.RESTR.norm>
0

>  <SCORE.SYSTEM>
3.59883

>  <SCORE.SYSTEM.CONST>
0

>  <SCORE.SYSTEM.DIHEDRAL>
3.87435

>  <SCORE.SYSTEM.VDW>
1.66166

>  <SCORE.SYSTEM.norm>
0.105848

>  <SCORE.heavy>
34

>  <SCORE.norm>
-0.581725

>  <SMILES>
COC[C@H]1O[C@@H](OCc2ccc3ccccc3c2)[C@H]([NH2+]CCN)[C@@H](OCc2ccccc2)[C@@H]1O

>  <UniqueID>
35

$$$$
51351654
  rDOCK(R)          3D
libRbt.so/2013.1/901 2013/11/27
 21 21  0  0  0  0  0  0  0  0999 V2000
   86.6338    4.1363 -101.7725 O   0  0  0  0  0  0
   85.7685    4.9650 -100.8652 S   0  0  0  0  0  0
   86.6235    5.5782  -99.7929 O   0  0  0  0  0  0
   84.6070    3.9833 -100.1507 O   0  5  0  0  0  0
   85.0031    6.2290 -101.7810 N   0  0  0  0  0  0
   84.8430    7.4585 -100.9768 C   0  0  0  0  0  0
   84.5108    8.6844 -101.8611 C   0  0  0  0  0  0
   85.5751    8.9153 -102.7432 O   0  0  0  0  0  0
   84.3321    9.8358 -101.0541 O   0  0  0  0  0  0
   83.1853    9.6987 -100.2319 C   0  0  0  0  0  0
   82.9478   11.0447  -99.5264 C   0  0  0  0  0  0
   82.6569   12.0596 -100.4498 O   0  0  0  0  0  0
   83.3995    8.5520  -99.2131 C   0  0  0  0  0  0
   82.2433    8.3649  -98.4352 O   0  0  0  0  0  0
   83.7070    7.2446  -99.9595 C   0  0  0  0  0  0
   84.0754    6.2607  -99.0263 O   0  0  0  0  0  0
   85.5850    6.3976 -102.6337 H   0  0  0  0  0  0
   85.6388    8.1120 -103.3227 H   0  0  0  0  0  0
   82.5086   12.8889  -99.9246 H   0  0  0  0  0  0
   81.5363    8.0146  -99.0379 H   0  0  0  0  0  0
   83.3205    6.1692  -98.3881 H   0  0  0  0  0  0
  1  2  2  0  0  0
  2  3  2  0  0  0
  2  4  1  0  0  0
  2  5  1  0  0  0
  5  6  1  0  0  0
  5 17  1  0  0  0
  6  7  1  0  0  0
  7  8  1  0  0  0
  7  9  1  0  0  0
  8 18  1  0  0  0
  9 10  1  0  0  0
 10 11  1  0  0  0
 10 13  1  0  0  0
 11 12  1  0  0  0
 12 19  1  0  0  0
 13 14  1  0  0  0
 13 15  1  0  0  0
 14 20  1  0  0  0
 15 16  1  0  0  0
 15  6  1  0  0  0
 16 21  1  0  0  0
M  END
>  <CHROM.0>
80.77927671,154.16897576,-66.90927537

>  <CHROM.1>
-145.99397042,165.22792927,62.83169658,63.53194722,179.47471366,67.67525215
179.19017771,84.48757372,7.47979511,-100.51645671,-0.85561019,0.86867864
-0.46283106

>  <Energy>
25.24663720746606

>  <Genealogy>
O=S(=O)([O-])N[C@H]1[C@H](O)O[C@H](CO)[C@@H](O)[C@@H]1O (chirality)
O=S(=O)([O-])N[C@H]1[C@H](O)O[C@H](CO)[C@@H](O)[C@@H]1O (3D coordinates assigned)
O=S(=O)([O-])N[C@H]1[C@H](O)O[C@H](CO)[C@@H](O)[C@@H]1O (nonaromatic ring conformer: 25.24663720746606 kcal/mol)

>  <Name>
51351654

>  <RI>
3.95439e+07

>  <Rbt.Current_Directory>
/home/edward/Documentos/Virtual_Screening/rDock/2

>  <Rbt.Executable>
rbdock ($Id: //depot/dev/client3/rdock/2013.1/src/exe/rbdock.cxx#4 $)

>  <Rbt.Library>
libRbt.so (2013.1, Build901 2013/11/27)

>  <Rbt.Parameter_File>
/home/edward/anaconda3/envs/MD/share/rdock-2013.1-1/data/scripts/dock.prm

>  <Rbt.Receptor>
parameters.prm

>  <SCORE>
-18.2582

>  <SCORE.INTER>
-18.775

>  <SCORE.INTER.CONST>
1

>  <SCORE.INTER.POLAR>
-4.29371

>  <SCORE.INTER.REPUL>
0

>  <SCORE.INTER.ROT>
3

>  <SCORE.INTER.VDW>
-12.5764

>  <SCORE.INTER.norm>
-1.17344

>  <SCORE.INTRA>
-2.62334

>  <SCORE.INTRA.DIHEDRAL>
-9.12543

>  <SCORE.INTRA.DIHEDRAL.0>
11.3741

>  <SCORE.INTRA.POLAR>
-0.00254686

>  <SCORE.INTRA.POLAR.0>
0

>  <SCORE.INTRA.REPUL>
0

>  <SCORE.INTRA.REPUL.0>
0

>  <SCORE.INTRA.VDW>
1.94804

>  <SCORE.INTRA.VDW.0>
-2.07439

>  <SCORE.INTRA.norm>
-0.163959

>  <SCORE.RESTR>
0

>  <SCORE.RESTR.CAVITY>
0

>  <SCORE.RESTR.norm>
0

>  <SCORE.SYSTEM>
3.14015

>  <SCORE.SYSTEM.CONST>
0

>  <SCORE.SYSTEM.DIHEDRAL>
5.05305

>  <SCORE.SYSTEM.VDW>
0.613626

>  <SCORE.SYSTEM.norm>
0.19626

>  <SCORE.heavy>
16

>  <SCORE.norm>
-1.14114

>  <SMILES>
O=S(=O)([O-])N[C@H]1[C@H](O)O[C@H](CO)[C@@H](O)[C@@H]1O

>  <UniqueID>
37

$$$$
49859685
  rDOCK(R)          3D
libRbt.so/2013.1/901 2013/11/27
 23 23  0  0  0  0  0  0  0  0999 V2000
   92.9844   19.6633 -105.6047 H   0  0  0  0  0  0
   92.1866   20.1284 -106.0209 O   0  0  0  0  0  0
   90.9297   20.0992 -105.4222 C   0  0  0  0  0  0
   90.7870   19.4242 -104.3176 N   0  0  0  0  0  0
   89.5561   19.2832 -103.5302 C   0  0  0  0  0  0
   89.1859   17.7903 -103.4202 C   0  0  0  0  0  0
   89.0826   17.2499 -104.7256 O   0  0  0  0  0  0
   88.3709   15.6970 -104.6804 P   0  0  0  0  0  0
   87.0802   15.7231 -105.4659 O   0  0  0  0  0  0
   88.0381   15.2447 -103.0845 O   0  5  0  0  0  0
   89.4205   14.5684 -105.3780 O   0  5  0  0  0  0
   90.2064   17.0736 -102.7416 O   0  0  0  0  0  0
   90.3755   17.4957 -101.3937 C   0  0  0  0  0  0
   89.2147   17.0202 -100.4879 C   0  0  0  0  0  0
   89.1709   15.6173 -100.4408 O   0  0  0  0  0  0
   89.0350   15.2942 -101.3695 H   0  0  0  0  0  0
   90.7178   19.0065 -101.3004 C   0  0  0  0  0  0
   90.7492   19.4266  -99.9605 O   0  0  0  0  0  0
   90.9997   20.3875  -99.9658 H   0  0  0  0  0  0
   89.7511   19.8803 -102.1226 C   0  0  0  0  0  0
   88.5157   19.9913 -101.4629 O   0  0  0  0  0  0
   88.1192   19.0812 -101.4400 H   0  0  0  0  0  0
   89.7801   20.8118 -106.0828 C   0  0  0  0  0  0
  1  2  1  0  0  0
  2  3  1  0  0  0
  3  4  2  0  0  0
  3 23  1  0  0  0
  4  5  1  0  0  0
  5  6  1  0  0  0
  6  7  1  0  0  0
  6 12  1  0  0  0
  7  8  1  0  0  0
  8  9  2  0  0  0
  8 10  1  0  0  0
  8 11  1  0  0  0
 12 13  1  0  0  0
 13 14  1  0  0  0
 13 17  1  0  0  0
 14 15  1  0  0  0
 15 16  1  0  0  0
 17 18  1  0  0  0
 17 20  1  0  0  0
 18 19  1  0  0  0
 20 21  1  0  0  0
 20  5  1  0  0  0
 21 22  1  0  0  0
M  END
>  <CHROM.0>
-178.15970688,155.36770237,-64.78363688

>  <CHROM.1>
-1.74409926,121.02982423,-168.50575425,118.31869158,62.63213069,-59.83873517
178.25873315,57.25589900,89.54667749,17.79334702,-103.33913814,-0.17265532
-1.12394711,-1.54808979

>  <Energy>
36.86356290443075

>  <Genealogy>
CC(O)=N[C@H]1[C@@H](OP(=O)([O-])[O-])O[C@H](CO)[C@H](O)[C@@H]1O (tautomer)
C/C(O)=N\[C@H]1[C@@H](OP(=O)([O-])[O-])O[C@H](CO)[C@H](O)[C@@H]1O (cis-trans isomerization)
C/C(O)=N\[C@H]1[C@@H](OP(=O)([O-])[O-])O[C@H](CO)[C@H](O)[C@@H]1O (3D coordinates assigned)
C/C(O)=N\[C@H]1[C@@H](OP(=O)([O-])[O-])O[C@H](CO)[C@H](O)[C@@H]1O (nonaromatic ring conformer: 36.86356290443075 kcal/mol)

>  <Name>
49859685

>  <RI>
3.95439e+07

>  <Rbt.Current_Directory>
/home/edward/Documentos/Virtual_Screening/rDock/2

>  <Rbt.Executable>
rbdock ($Id: //depot/dev/client3/rdock/2013.1/src/exe/rbdock.cxx#4 $)

>  <Rbt.Library>
libRbt.so (2013.1, Build901 2013/11/27)

>  <Rbt.Parameter_File>
/home/edward/anaconda3/envs/MD/share/rdock-2013.1-1/data/scripts/dock.prm

>  <Rbt.Receptor>
parameters.prm

>  <SCORE>
-25.492

>  <SCORE.INTER>
-16.319

>  <SCORE.INTER.CONST>
1

>  <SCORE.INTER.POLAR>
-3.24185

>  <SCORE.INTER.REPUL>
0.397221

>  <SCORE.INTER.ROT>
4

>  <SCORE.INTER.VDW>
-16.6828

>  <SCORE.INTER.norm>
-0.858894

>  <SCORE.INTRA>
-10.9654

>  <SCORE.INTRA.DIHEDRAL>
-14.4334

>  <SCORE.INTRA.DIHEDRAL.0>
17.8684

>  <SCORE.INTRA.POLAR>
-1.33333

>  <SCORE.INTRA.POLAR.0>
0

>  <SCORE.INTRA.REPUL>
0

>  <SCORE.INTRA.REPUL.0>
0

>  <SCORE.INTRA.VDW>
0.784593

>  <SCORE.INTRA.VDW.0>
-2.90131

>  <SCORE.INTRA.norm>
-0.577128

>  <SCORE.RESTR>
0

>  <SCORE.RESTR.CAVITY>
0

>  <SCORE.RESTR.norm>
0

>  <SCORE.SYSTEM>
1.7924

>  <SCORE.SYSTEM.CONST>
0

>  <SCORE.SYSTEM.DIHEDRAL>
2.95164

>  <SCORE.SYSTEM.VDW>
0.316581

>  <SCORE.SYSTEM.norm>
0.094337

>  <SCORE.heavy>
19

>  <SCORE.norm>
-1.34168

>  <SMILES>
C/C(O)=N\[C@H]1[C@@H](OP(=O)([O-])[O-])O[C@H](CO)[C@H](O)[C@@H]1O

>  <UniqueID>
40

$$$$
49802606
  rDOCK(R)          3D
libRbt.so/2013.1/901 2013/11/27
 23 23  0  0  0  0  0  0  0  0999 V2000
   85.5366   13.8725 -104.7469 H   0  0  0  0  0  0
   84.7411   13.9633 -104.1265 O   0  0  0  0  0  0
   84.8289   14.6918 -102.9401 C   0  0  0  0  0  0
   85.9486   15.2535 -102.5908 N   0  0  0  0  0  0
   87.1833   15.2167 -103.3784 C   0  0  0  0  0  0
   87.3942   16.5589 -104.1167 C   0  0  0  0  0  0
   86.3583   16.7463 -105.0417 O   0  0  0  0  0  0
   86.4964   17.6451 -105.4401 H   0  0  0  0  0  0
   88.6305   16.5574 -104.8147 O   0  0  0  0  0  0
   89.7172   16.4757 -103.9069 C   0  0  0  0  0  0
   91.0355   16.7243 -104.6591 C   0  0  0  0  0  0
   91.1846   15.8459 -105.7429 O   0  0  0  0  0  0
   90.4696   16.0696 -106.3943 H   0  0  0  0  0  0
   89.7125   15.1116 -103.1800 C   0  0  0  0  0  0
   89.8680   14.0703 -104.1129 O   0  0  0  0  0  0
   90.7177   14.2387 -104.5979 H   0  0  0  0  0  0
   88.3742   14.9609 -102.4302 C   0  0  0  0  0  0
   88.2791   13.7043 -101.8039 O   0  0  0  0  0  0
   88.2118   13.0116 -102.5115 H   0  0  0  0  0  0
   83.6273   14.8062 -102.0510 C   0  0  0  0  0  0
   83.9401   14.3316 -100.7910 F   0  0  0  0  0  0
   83.2530   16.1334 -101.9567 F   0  0  0  0  0  0
   82.5672   14.0728 -102.5564 F   0  0  0  0  0  0
  1  2  1  0  0  0
  2  3  1  0  0  0
  3  4  2  0  0  0
  3 20  1  0  0  0
  4  5  1  0  0  0
  5  6  1  0  0  0
  6  7  1  0  0  0
  6  9  1  0  0  0
  7  8  1  0  0  0
  9 10  1  0  0  0
 10 11  1  0  0  0
 10 14  1  0  0  0
 11 12  1  0  0  0
 12 13  1  0  0  0
 14 15  1  0  0  0
 14 17  1  0  0  0
 15 16  1  0  0  0
 17 18  1  0  0  0
 17  5  1  0  0  0
 18 19  1  0  0  0
 20 21  1  0  0  0
 20 22  1  0  0  0
 20 23  1  0  0  0
M  END
>  <CHROM.0>
179.58799179,154.14567688,-66.52984803

>  <CHROM.1>
-1.26968775,122.93031291,102.35614505,175.85887062,-55.22431905,65.70002760
57.57317453,56.36629164,86.91761900,15.25523111,-103.33595675,2.78311679
-0.12400047,2.32032009

>  <Energy>
27.00529397928857

>  <Genealogy>
OC[C@H]1OC(O)[C@H](N=C(O)C(F)(F)F)[C@@H](O)[C@H]1O (tautomer)
OC[C@H]1O[C@@H](O)[C@H](N=C(O)C(F)(F)F)[C@@H](O)[C@H]1O (chirality)
OC[C@H]1O[C@@H](O)[C@H](/N=C(\O)C(F)(F)F)[C@@H](O)[C@H]1O (cis-trans isomerization)
OC[C@H]1O[C@@H](O)[C@H](/N=C(\O)C(F)(F)F)[C@@H](O)[C@H]1O (3D coordinates assigned)
OC[C@H]1O[C@@H](O)[C@H](/N=C(\O)C(F)(F)F)[C@@H](O)[C@H]1O (nonaromatic ring conformer: 27.00529397928857 kcal/mol)

>  <Name>
49802606

>  <RI>
3.95439e+07

>  <Rbt.Current_Directory>
/home/edward/Documentos/Virtual_Screening/rDock/2

>  <Rbt.Executable>
rbdock ($Id: //depot/dev/client3/rdock/2013.1/src/exe/rbdock.cxx#4 $)

>  <Rbt.Library>
libRbt.so (2013.1, Build901 2013/11/27)

>  <Rbt.Parameter_File>
/home/edward/anaconda3/envs/MD/share/rdock-2013.1-1/data/scripts/dock.prm

>  <Rbt.Receptor>
parameters.prm

>  <SCORE>
-15.1878

>  <SCORE.INTER>
-13.189

>  <SCORE.INTER.CONST>
1

>  <SCORE.INTER.POLAR>
-3.09242

>  <SCORE.INTER.REPUL>
0.360236

>  <SCORE.INTER.ROT>
3

>  <SCORE.INTER.VDW>
-12.8759

>  <SCORE.INTER.norm>
-0.732722

>  <SCORE.INTRA>
-3.73075

>  <SCORE.INTRA.DIHEDRAL>
-6.46099

>  <SCORE.INTRA.DIHEDRAL.0>
8.15897

>  <SCORE.INTRA.POLAR>
-0.370837

>  <SCORE.INTRA.POLAR.0>
0

>  <SCORE.INTRA.REPUL>
0

>  <SCORE.INTRA.REPUL.0>
0

>  <SCORE.INTRA.VDW>
0.760589

>  <SCORE.INTRA.VDW.0>
-2.21327

>  <SCORE.INTRA.norm>
-0.207264

>  <SCORE.RESTR>
0

>  <SCORE.RESTR.CAVITY>
0

>  <SCORE.RESTR.norm>
0

>  <SCORE.SYSTEM>
1.73192

>  <SCORE.SYSTEM.CONST>
0

>  <SCORE.SYSTEM.DIHEDRAL>
3.1333

>  <SCORE.SYSTEM.VDW>
0.165269

>  <SCORE.SYSTEM.norm>
0.0962176

>  <SCORE.heavy>
18

>  <SCORE.norm>
-0.843769

>  <SMILES>
OC[C@H]1O[C@@H](O)[C@H](/N=C(\O)C(F)(F)F)[C@@H](O)[C@H]1O

>  <UniqueID>
41

$$$$
46174147
  rDOCK(R)          3D
libRbt.so/2013.1/901 2013/11/27
 24 24  0  0  0  0  0  0  0  0999 V2000
   88.9956   14.7709 -101.2435 C   0  0  0  0  0  0
   89.0200   15.4844 -102.5557 C   0  0  0  0  0  0
   88.1595   15.2032 -103.4333 O   0  0  0  0  0  0
   90.0406   16.4566 -102.8219 N   0  0  0  0  0  0
   90.0957   17.2147 -104.0777 C   0  0  0  0  0  0
   89.5396   18.6380 -103.8698 C   0  0  0  0  0  0
   90.2129   19.2939 -102.7911 O   0  0  0  0  0  0
   89.9865   18.9789 -101.4481 C   0  0  0  0  0  0
   90.8012   19.5720 -100.4412 N   0  0  0  0  0  0
   89.0705   18.1772 -101.1196 O   0  0  0  0  0  0
   89.6154   19.3996 -105.0656 O   0  0  0  0  0  0
   90.9571   19.5648 -105.4996 C   0  0  0  0  0  0
   90.9632   20.5133 -106.7094 C   0  0  0  0  0  0
   92.2727   20.8042 -107.1212 O   0  0  0  0  0  0
   91.5997   18.1982 -105.8408 C   0  0  0  0  0  0
   92.9444   18.3737 -106.2120 O   0  0  0  0  0  0
   91.5384   17.2818 -104.6086 C   0  0  0  0  0  0
   91.9649   15.9879 -104.9514 O   0  0  0  0  0  0
   90.7789   16.6060 -102.0963 H   0  0  0  0  0  0
   90.6469   19.3460  -99.4337 H   0  0  0  0  0  0
   91.5598   20.2384 -100.7059 H   0  0  0  0  0  0
   92.7212   19.9339 -107.2849 H   0  0  0  0  0  0
   93.4273   18.7086 -105.4119 H   0  0  0  0  0  0
   92.9439   16.0388 -105.1075 H   0  0  0  0  0  0
  1  2  1  0  0  0
  2  3  2  0  0  0
  2  4  1  0  0  0
  4  5  1  0  0  0
  4 19  1  0  0  0
  5  6  1  0  0  0
  6  7  1  0  0  0
  6 11  1  0  0  0
  7  8  1  0  0  0
  8  9  1  0  0  0
  8 10  2  0  0  0
  9 20  1  0  0  0
  9 21  1  0  0  0
 11 12  1  0  0  0
 12 13  1  0  0  0
 12 15  1  0  0  0
 13 14  1  0  0  0
 14 22  1  0  0  0
 15 16  1  0  0  0
 15 17  1  0  0  0
 16 23  1  0  0  0
 17 18  1  0  0  0
 17  5  1  0  0  0
 18 24  1  0  0  0
M  END
>  <CHROM.0>
-77.42531074,153.88973719,50.39457734

>  <CHROM.1>
101.48706427,-74.19686288,173.11513131,175.23256841,54.83665684,65.28524251
-168.53263221,90.48007438,18.01157521,-103.89425021,-2.93868043,1.12674084
0.38622050

>  <Energy>
25.16813974318025

>  <Genealogy>
CC(=O)N[C@H]1[C@@H](OC(N)=O)O[C@H](CO)[C@@H](O)[C@@H]1O (3D coordinates assigned)
CC(=O)N[C@H]1[C@@H](OC(N)=O)O[C@H](CO)[C@@H](O)[C@@H]1O (nonaromatic ring conformer: 25.16813974318025 kcal/mol)

>  <Name>
46174147

>  <RI>
3.95439e+07

>  <Rbt.Current_Directory>
/home/edward/Documentos/Virtual_Screening/rDock/2

>  <Rbt.Executable>
rbdock ($Id: //depot/dev/client3/rdock/2013.1/src/exe/rbdock.cxx#4 $)

>  <Rbt.Library>
libRbt.so (2013.1, Build901 2013/11/27)

>  <Rbt.Parameter_File>
/home/edward/anaconda3/envs/MD/share/rdock-2013.1-1/data/scripts/dock.prm

>  <Rbt.Receptor>
parameters.prm

>  <SCORE>
-13.8613

>  <SCORE.INTER>
-14.0145

>  <SCORE.INTER.CONST>
1

>  <SCORE.INTER.POLAR>
-2.50167

>  <SCORE.INTER.REPUL>
0

>  <SCORE.INTER.ROT>
4

>  <SCORE.INTER.VDW>
-14.9088

>  <SCORE.INTER.norm>
-0.778581

>  <SCORE.INTRA>
-3.73837

>  <SCORE.INTRA.DIHEDRAL>
-5.9829

>  <SCORE.INTRA.DIHEDRAL.0>
9.54992

>  <SCORE.INTRA.POLAR>
-0.440989

>  <SCORE.INTRA.POLAR.0>
0

>  <SCORE.INTRA.REPUL>
0

>  <SCORE.INTRA.REPUL.0>
0

>  <SCORE.INTRA.VDW>
0.75244

>  <SCORE.INTRA.VDW.0>
-2.1706

>  <SCORE.INTRA.norm>
-0.207687

>  <SCORE.RESTR>
0

>  <SCORE.RESTR.CAVITY>
0

>  <SCORE.RESTR.norm>
0

>  <SCORE.SYSTEM>
3.89157

>  <SCORE.SYSTEM.CONST>
0

>  <SCORE.SYSTEM.DIHEDRAL>
4.56309

>  <SCORE.SYSTEM.VDW>
1.61002

>  <SCORE.SYSTEM.norm>
0.216198

>  <SCORE.heavy>
18

>  <SCORE.norm>
-0.77007

>  <SMILES>
CC(=O)N[C@H]1[C@@H](OC(N)=O)O[C@H](CO)[C@@H](O)[C@@H]1O

>  <UniqueID>
44

$$$$
45934204
  rDOCK(R)          3D
libRbt.so/2013.1/901 2013/11/27
 24 24  0  0  0  0  0  0  0  0999 V2000
   92.1301   23.4683 -105.1446 H   0  0  0  0  0  0
   91.2370   23.3509 -105.6077 O   0  0  0  0  0  0
   90.7630   22.0940 -105.9746 C   0  0  0  0  0  0
   91.4916   21.0529 -105.6885 N   0  0  0  0  0  0
   91.1749   19.6466 -105.9634 C   0  0  0  0  0  0
   92.3352   19.0110 -106.7558 C   0  0  0  0  0  0
   92.4670   19.6598 -107.9937 O   0  0  0  0  0  0
   91.6098   19.5401 -108.4804 H   0  0  0  0  0  0
   92.0628   17.6445 -107.0054 O   0  0  0  0  0  0
   92.0374   16.9063 -105.7954 C   0  0  0  0  0  0
   91.9133   15.4161 -106.1559 C   0  0  0  0  0  0
   91.8532   14.6165 -105.0052 O   0  0  0  0  0  0
   91.8094   13.6742 -105.3148 H   0  0  0  0  0  0
   90.8566   17.3775 -104.9111 C   0  0  0  0  0  0
   90.8638   16.6880 -103.6860 O   0  0  0  0  0  0
   91.4939   17.1624 -103.0830 H   0  0  0  0  0  0
   90.9795   18.8880 -104.6365 C   0  0  0  0  0  0
   89.7893   19.3494 -104.0148 O   0  0  0  0  0  0
   90.0113   20.4860 -103.1971 C   0  0  0  0  0  0
   90.6890   20.0368 -101.9378 C   0  0  0  0  0  0
   91.0809   18.8460 -101.8184 O   0  0  0  0  0  0
   90.9257   20.9429 -100.9108 O   0  5  0  0  0  0
   88.6781   21.1507 -102.8445 C   0  0  0  0  0  0
   89.4505   21.9848 -106.7024 C   0  0  0  0  0  0
  1  2  1  0  0  0
  2  3  1  0  0  0
  3  4  2  0  0  0
  3 24  1  0  0  0
  4  5  1  0  0  0
  5  6  1  0  0  0
  6  7  1  0  0  0
  6  9  1  0  0  0
  7  8  1  0  0  0
  9 10  1  0  0  0
 10 11  1  0  0  0
 10 14  1  0  0  0
 11 12  1  0  0  0
 12 13  1  0  0  0
 14 15  1  0  0  0
 14 17  1  0  0  0
 15 16  1  0  0  0
 17 18  1  0  0  0
 17  5  1  0  0  0
 18 19  1  0  0  0
 19 20  1  0  0  0
 19 23  1  0  0  0
 20 21  2  0  0  0
 20 22  1  0  0  0
M  END
>  <CHROM.0>
-177.61709170,156.22288496,53.49331479

>  <CHROM.1>
1.04646753,125.66159041,-60.28821259,-178.75427114,-177.89493287,83.95101158
-87.28709014,-74.87890900,7.17245098,91.04314960,19.22845746,-104.82577589
-2.51342332,-1.25450154,2.52607246

>  <Energy>
35.06884186767618

>  <Genealogy>
CC(=O)N[C@H]1[C@H](O)O[C@H](CO)[C@@H](O)[C@@H]1OC(C)C(=O)[O-] (protonated)
CC(O)=N[C@H]1[C@H](O)O[C@H](CO)[C@@H](O)[C@@H]1OC(C)C(=O)[O-] (tautomer)
CC(O)=N[C@H]1[C@H](O)O[C@H](CO)[C@@H](O)[C@@H]1O[C@@H](C)C(=O)[O-] (chirality)
C/C(O)=N\[C@H]1[C@H](O)O[C@H](CO)[C@@H](O)[C@@H]1O[C@@H](C)C(=O)[O-] (cis-trans isomerization)
C/C(O)=N\[C@H]1[C@H](O)O[C@H](CO)[C@@H](O)[C@@H]1O[C@@H](C)C(=O)[O-] (3D coordinates assigned)
C/C(O)=N\[C@H]1[C@H](O)O[C@H](CO)[C@@H](O)[C@@H]1O[C@@H](C)C(=O)[O-] (nonaromatic ring conformer: 35.06884186767618 kcal/mol)

>  <Name>
45934204

>  <RI>
3.95439e+07

>  <Rbt.Current_Directory>
/home/edward/Documentos/Virtual_Screening/rDock/2

>  <Rbt.Executable>
rbdock ($Id: //depot/dev/client3/rdock/2013.1/src/exe/rbdock.cxx#4 $)

>  <Rbt.Library>
libRbt.so (2013.1, Build901 2013/11/27)

>  <Rbt.Parameter_File>
/home/edward/anaconda3/envs/MD/share/rdock-2013.1-1/data/scripts/dock.prm

>  <Rbt.Receptor>
parameters.prm

>  <SCORE>
-16.7633

>  <SCORE.INTER>
-11.8942

>  <SCORE.INTER.CONST>
1

>  <SCORE.INTER.POLAR>
-1.59478

>  <SCORE.INTER.REPUL>
0.0448313

>  <SCORE.INTER.ROT>
5

>  <SCORE.INTER.VDW>
-17.0961

>  <SCORE.INTER.norm>
-0.594712

>  <SCORE.INTRA>
-7.3338

>  <SCORE.INTRA.DIHEDRAL>
-12.4256

>  <SCORE.INTRA.DIHEDRAL.0>
20.1659

>  <SCORE.INTRA.POLAR>
-0.691055

>  <SCORE.INTRA.POLAR.0>
0

>  <SCORE.INTRA.REPUL>
0

>  <SCORE.INTRA.REPUL.0>
0

>  <SCORE.INTRA.VDW>
1.22861

>  <SCORE.INTRA.VDW.0>
-3.11442

>  <SCORE.INTRA.norm>
-0.36669

>  <SCORE.RESTR>
0

>  <SCORE.RESTR.CAVITY>
0

>  <SCORE.RESTR.norm>
0

>  <SCORE.SYSTEM>
2.46478

>  <SCORE.SYSTEM.CONST>
0

>  <SCORE.SYSTEM.DIHEDRAL>
2.78472

>  <SCORE.SYSTEM.VDW>
1.07242

>  <SCORE.SYSTEM.norm>
0.123239

>  <SCORE.heavy>
20

>  <SCORE.norm>
-0.838163

>  <SMILES>
C/C(O)=N\[C@H]1[C@H](O)O[C@H](CO)[C@@H](O)[C@@H]1O[C@@H](C)C(=O)[O-]

>  <UniqueID>
45

$$$$
45933887
  rDOCK(R)          3D
libRbt.so/2013.1/901 2013/11/27
 19 19  0  0  0  0  0  0  0  0999 V2000
   92.5104   16.9250 -104.8874 N   0  3  0  0  0  0
   91.2089   16.5444 -104.3191 C   0  0  0  0  0  0
   90.4854   15.5317 -105.2371 C   0  0  0  0  0  0
   91.2661   14.3727 -105.3504 O   0  0  0  0  0  0
   89.2293   15.1773 -104.6850 O   0  0  0  0  0  0
   88.3591   16.2957 -104.6638 C   0  0  0  0  0  0
   86.9679   15.8186 -104.2310 C   0  0  0  0  0  0
   86.2988   15.2607 -105.3280 O   0  0  0  0  0  0
   88.8975   17.3689 -103.6920 C   0  0  0  0  0  0
   88.0493   18.4892 -103.7074 O   0  0  0  0  0  0
   90.3159   17.7895 -104.1149 C   0  0  0  0  0  0
   90.8640   18.6148 -103.1175 O   0  0  0  0  0  0
   92.3826   17.3214 -105.8464 H   0  0  0  0  0  0
   92.9824   17.6364 -104.2828 H   0  0  0  0  0  0
   93.1246   16.0836 -104.9730 H   0  0  0  0  0  0
   91.3259   13.9841 -104.4387 H   0  0  0  0  0  0
   86.8122   14.4498 -105.5809 H   0  0  0  0  0  0
   87.9739   18.7808 -104.6534 H   0  0  0  0  0  0
   90.2868   19.4198 -103.0525 H   0  0  0  0  0  0
  1  2  1  0  0  0
  1 13  1  0  0  0
  1 14  1  0  0  0
  1 15  1  0  0  0
  2  3  1  0  0  0
  3  4  1  0  0  0
  3  5  1  0  0  0
  4 16  1  0  0  0
  5  6  1  0  0  0
  6  7  1  0  0  0
  6  9  1  0  0  0
  7  8  1  0  0  0
  8 17  1  0  0  0
  9 10  1  0  0  0
  9 11  1  0  0  0
 10 18  1  0  0  0
 11 12  1  0  0  0
 11  2  1  0  0  0
 12 19  1  0  0  0
M  END
>  <CHROM.0>
179.96843142,151.61210745,-63.44796208

>  <CHROM.1>
57.20503956,63.08586466,-81.05591747,65.12625666,-54.78113068,177.18389636
89.55231413,16.51462587,-104.45474522,-0.21101057,-0.03973944,-2.70300833

>  <Energy>
21.7281730675372

>  <Genealogy>
[NH3+][C@@H]1C(O)O[C@@H](CO)[C@H](O)[C@H]1O (protonated)
[NH3+][C@@H]1[C@@H](O)O[C@@H](CO)[C@H](O)[C@H]1O (chirality)
[NH3+][C@@H]1[C@@H](O)O[C@@H](CO)[C@H](O)[C@H]1O (3D coordinates assigned)
[NH3+][C@@H]1[C@@H](O)O[C@@H](CO)[C@H](O)[C@H]1O (nonaromatic ring conformer: 21.7281730675372 kcal/mol)

>  <Name>
45933887

>  <RI>
3.95439e+07

>  <Rbt.Current_Directory>
/home/edward/Documentos/Virtual_Screening/rDock/2

>  <Rbt.Executable>
rbdock ($Id: //depot/dev/client3/rdock/2013.1/src/exe/rbdock.cxx#4 $)

>  <Rbt.Library>
libRbt.so (2013.1, Build901 2013/11/27)

>  <Rbt.Parameter_File>
/home/edward/anaconda3/envs/MD/share/rdock-2013.1-1/data/scripts/dock.prm

>  <Rbt.Receptor>
parameters.prm

>  <SCORE>
-23.9572

>  <SCORE.INTER>
-24.0241

>  <SCORE.INTER.CONST>
1

>  <SCORE.INTER.POLAR>
-5.90086

>  <SCORE.INTER.REPUL>
0.371867

>  <SCORE.INTER.ROT>
1

>  <SCORE.INTER.VDW>
-12.2205

>  <SCORE.INTER.norm>
-2.00201

>  <SCORE.INTRA>
-1.68722

>  <SCORE.INTRA.DIHEDRAL>
-4.68463

>  <SCORE.INTRA.DIHEDRAL.0>
6.49925

>  <SCORE.INTRA.POLAR>
0

>  <SCORE.INTRA.POLAR.0>
0

>  <SCORE.INTRA.REPUL>
0

>  <SCORE.INTRA.REPUL.0>
0

>  <SCORE.INTRA.VDW>
0.655099

>  <SCORE.INTRA.VDW.0>
-1.08456

>  <SCORE.INTRA.norm>
-0.140602

>  <SCORE.RESTR>
0

>  <SCORE.RESTR.CAVITY>
0

>  <SCORE.RESTR.norm>
0

>  <SCORE.SYSTEM>
1.75405

>  <SCORE.SYSTEM.CONST>
0

>  <SCORE.SYSTEM.DIHEDRAL>
3.6555

>  <SCORE.SYSTEM.VDW>
-0.0736978

>  <SCORE.SYSTEM.norm>
0.146171

>  <SCORE.heavy>
12

>  <SCORE.norm>
-1.99644

>  <SMILES>
[NH3+][C@@H]1[C@@H](O)O[C@@H](CO)[C@H](O)[C@H]1O

>  <UniqueID>
47

$$$$
45357367
  rDOCK(R)          3D
libRbt.so/2013.1/901 2013/11/27
 23 23  0  0  0  0  0  0  0  0999 V2000
   89.8408   21.1345 -103.5884 C   0  0  0  0  0  0
   88.4207   20.7743 -103.6435 N   0  0  0  0  0  0
   87.4488   21.7597 -103.8943 N   0  0  0  0  0  0
   86.3252   21.7242 -103.3508 O   0  0  0  0  0  0
   87.9937   19.4474 -103.2850 C   0  0  0  0  0  0
   88.8360   18.6123 -102.8539 O   0  0  0  0  0  0
   86.6134   19.0676 -103.4144 N   0  0  0  0  0  0
   86.1247   17.7268 -103.0753 C   0  0  0  0  0  0
   84.6618   17.7987 -102.5888 C   0  0  0  0  0  0
   84.5968   18.5637 -101.4137 O   0  0  0  0  0  0
   84.1851   16.4984 -102.2927 O   0  0  0  0  0  0
   84.1047   15.7082 -103.4682 C   0  0  0  0  0  0
   83.4080   14.3871 -103.1005 C   0  0  0  0  0  0
   84.0152   13.7814 -101.9908 O   0  0  0  0  0  0
   85.5214   15.4597 -104.0412 C   0  0  0  0  0  0
   85.4326   14.7317 -105.2394 O   0  0  0  0  0  0
   86.2131   16.8116 -104.3118 C   0  0  0  0  0  0
   87.5512   16.6223 -104.7011 O   0  0  0  0  0  0
   85.9527   19.7217 -103.8913 H   0  0  0  0  0  0
   83.6410   18.6136 -101.1492 H   0  0  0  0  0  0
   83.9728   14.4394 -101.2486 H   0  0  0  0  0  0
   86.2980   14.2587 -105.3536 H   0  0  0  0  0  0
   87.8359   17.4293 -105.2050 H   0  0  0  0  0  0
  1  2  1  0  0  0
  2  3  1  0  0  0
  2  5  1  0  0  0
  3  4  2  0  0  0
  5  6  2  0  0  0
  5  7  1  0  0  0
  7  8  1  0  0  0
  7 19  1  0  0  0
  8  9  1  0  0  0
  9 10  1  0  0  0
  9 11  1  0  0  0
 10 20  1  0  0  0
 11 12  1  0  0  0
 12 13  1  0  0  0
 12 15  1  0  0  0
 13 14  1  0  0  0
 14 21  1  0  0  0
 15 16  1  0  0  0
 15 17  1  0  0  0
 16 22  1  0  0  0
 17 18  1  0  0  0
 17  8  1  0  0  0
 18 23  1  0  0  0
M  END
>  <CHROM.0>
179.20471652,154.31868468,-65.34403492

>  <CHROM.1>
-144.39648951,149.83314297,178.09277547,-51.58838490,57.78633169,-155.35378009
-79.15562677,86.16948537,17.78401452,-103.33451471,-0.88760155,-0.52980056
-2.80594557

>  <Energy>
29.41115823605938

>  <Genealogy>
CN(N=O)C(=O)N[C@H]1[C@H](O)O[C@H](CO)[C@@H](O)[C@@H]1O (chirality)
CN(N=O)C(=O)N[C@H]1[C@H](O)O[C@H](CO)[C@@H](O)[C@@H]1O (3D coordinates assigned)
CN(N=O)C(=O)N[C@H]1[C@H](O)O[C@H](CO)[C@@H](O)[C@@H]1O (nonaromatic ring conformer: 29.41115823605938 kcal/mol)

>  <Name>
45357367

>  <RI>
3.95439e+07

>  <Rbt.Current_Directory>
/home/edward/Documentos/Virtual_Screening/rDock/2

>  <Rbt.Executable>
rbdock ($Id: //depot/dev/client3/rdock/2013.1/src/exe/rbdock.cxx#4 $)

>  <Rbt.Library>
libRbt.so (2013.1, Build901 2013/11/27)

>  <Rbt.Parameter_File>
/home/edward/anaconda3/envs/MD/share/rdock-2013.1-1/data/scripts/dock.prm

>  <Rbt.Receptor>
parameters.prm

>  <SCORE>
-18.2136

>  <SCORE.INTER>
-19.1947

>  <SCORE.INTER.CONST>
1

>  <SCORE.INTER.POLAR>
-4.24076

>  <SCORE.INTER.REPUL>
0.010707

>  <SCORE.INTER.ROT>
3

>  <SCORE.INTER.VDW>
-13.2297

>  <SCORE.INTER.norm>
-1.06637

>  <SCORE.INTRA>
-0.75575

>  <SCORE.INTRA.DIHEDRAL>
1.00835

>  <SCORE.INTRA.DIHEDRAL.0>
6.31376

>  <SCORE.INTRA.POLAR>
-0.0453129

>  <SCORE.INTRA.POLAR.0>
0

>  <SCORE.INTRA.REPUL>
0

>  <SCORE.INTRA.REPUL.0>
0

>  <SCORE.INTRA.VDW>
-1.10586

>  <SCORE.INTRA.VDW.0>
-0.818239

>  <SCORE.INTRA.norm>
-0.0419861

>  <SCORE.RESTR>
0

>  <SCORE.RESTR.CAVITY>
0

>  <SCORE.RESTR.norm>
0

>  <SCORE.SYSTEM>
1.73688

>  <SCORE.SYSTEM.CONST>
0

>  <SCORE.SYSTEM.DIHEDRAL>
3.11953

>  <SCORE.SYSTEM.VDW>
0.177114

>  <SCORE.SYSTEM.norm>
0.0964932

>  <SCORE.heavy>
18

>  <SCORE.norm>
-1.01186

>  <SMILES>
CN(N=O)C(=O)N[C@H]1[C@H](O)O[C@H](CO)[C@@H](O)[C@@H]1O

>  <UniqueID>
49

$$$$
45266822
  rDOCK(R)          3D
libRbt.so/2013.1/901 2013/11/27
 29 29  0  0  0  0  0  0  0  0999 V2000
   90.8158   13.9885 -105.0910 C   0  0  0  0  0  0
   89.7165   14.5008 -104.2188 C   0  0  0  0  0  0
   89.4700   13.9262 -103.1239 O   0  0  0  0  0  0
   88.9492   15.6400 -104.6322 N   0  0  0  0  0  0
   87.8864   16.2154 -103.7996 C   0  0  0  0  0  0
   88.4380   17.4022 -102.9773 C   0  0  0  0  0  0
   89.0861   18.3302 -103.8118 O   0  0  0  0  0  0
   87.4183   18.0277 -102.2092 O   0  0  0  0  0  0
   86.3897   18.5507 -103.0367 C   0  0  0  0  0  0
   85.4161   19.3685 -102.1763 C   0  0  0  0  0  0
   86.1312   20.1855 -101.2782 O   0  0  0  0  0  0
   86.9533   21.3765 -102.1773 P   0  0  0  0  0  0
   87.3289   22.5078 -101.2472 O   0  0  0  0  0  0
   88.3624   20.7149 -102.8439 O   0  5  0  0  0  0
   85.9298   21.9636 -103.4098 O   0  0  0  0  0  0
   86.5981   22.9956 -104.0971 C   0  0  0  0  0  0
   85.6759   23.5875 -105.1848 C   0  0  0  0  0  0
   86.2702   24.6733 -106.0268 N   0  3  0  0  0  0
   87.5230   24.2220 -106.6812 C   0  0  0  0  0  0
   86.5371   25.8983 -105.2360 C   0  0  0  0  0  0
   85.2912   25.0110 -107.0895 C   0  0  0  0  0  0
   85.6684   17.4184 -103.8021 C   0  0  0  0  0  0
   85.0618   16.5319 -102.8937 O   0  0  0  0  0  0
   86.6942   16.6696 -104.6689 C   0  0  0  0  0  0
   86.0775   15.5588 -105.2697 O   0  0  0  0  0  0
   89.1750   16.0775 -105.5546 H   0  0  0  0  0  0
   89.1166   19.1853 -103.3087 H   0  0  0  0  0  0
   84.6477   15.8058 -103.4291 H   0  0  0  0  0  0
   86.8003   14.9333 -105.5366 H   0  0  0  0  0  0
  1  2  1  0  0  0
  2  3  2  0  0  0
  2  4  1  0  0  0
  4  5  1  0  0  0
  4 26  1  0  0  0
  5  6  1  0  0  0
  6  7  1  0  0  0
  6  8  1  0  0  0
  7 27  1  0  0  0
  8  9  1  0  0  0
  9 10  1  0  0  0
  9 22  1  0  0  0
 10 11  1  0  0  0
 12 11  1  0  0  0
 12 13  2  0  0  0
 12 14  1  0  0  0
 12 15  1  0  0  0
 15 16  1  0  0  0
 16 17  1  0  0  0
 17 18  1  0  0  0
 18 19  1  0  0  0
 18 20  1  0  0  0
 18 21  1  0  0  0
 22 23  1  0  0  0
 22 24  1  0  0  0
 23 28  1  0  0  0
 24 25  1  0  0  0
 24  5  1  0  0  0
 25 29  1  0  0  0
M  END
>  <CHROM.0>
178.86737650,154.43982872,-64.58405855

>  <CHROM.1>
95.88214846,159.85463193,43.91275808,67.75911273,161.21140557,176.90525031
-177.75998791,-178.28663874,55.99531346,-177.61397756,-38.83648132,87.17347842
19.51463627,-103.78899329,-0.96096212,1.15643865,-0.67502215

>  <Energy>
51.014250041809206

>  <Genealogy>
CC(=O)N[C@H]1C(O)O[C@H](COP(=O)([O-])OCC[N+](C)(C)C)[C@H](O)[C@@H]1O (protonated)
CC(=O)N[C@H]1[C@@H](O)O[C@H](CO[P@@](=O)([O-])OCC[N+](C)(C)C)[C@H](O)[C@@H]1O (chirality)
CC(=O)N[C@H]1[C@@H](O)O[C@H](CO[P@@](=O)([O-])OCC[N+](C)(C)C)[C@H](O)[C@@H]1O (3D coordinates assigned)
CC(=O)N[C@H]1[C@@H](O)O[C@H](CO[P@@](=O)([O-])OCC[N+](C)(C)C)[C@H](O)[C@@H]1O (nonaromatic ring conformer: 51.014250041809206 kcal/mol)

>  <Name>
45266822

>  <RI>
3.95439e+07

>  <Rbt.Current_Directory>
/home/edward/Documentos/Virtual_Screening/rDock/2

>  <Rbt.Executable>
rbdock ($Id: //depot/dev/client3/rdock/2013.1/src/exe/rbdock.cxx#4 $)

>  <Rbt.Library>
libRbt.so (2013.1, Build901 2013/11/27)

>  <Rbt.Parameter_File>
/home/edward/anaconda3/envs/MD/share/rdock-2013.1-1/data/scripts/dock.prm

>  <Rbt.Receptor>
parameters.prm

>  <SCORE>
-14.682

>  <SCORE.INTER>
-12.2702

>  <SCORE.INTER.CONST>
1

>  <SCORE.INTER.POLAR>
-2.10763

>  <SCORE.INTER.REPUL>
0.066534

>  <SCORE.INTER.ROT>
8

>  <SCORE.INTER.VDW>
-18.8369

>  <SCORE.INTER.norm>
-0.490807

>  <SCORE.INTRA>
-4.15539

>  <SCORE.INTRA.DIHEDRAL>
-0.792863

>  <SCORE.INTRA.DIHEDRAL.0>
7.71901

>  <SCORE.INTRA.POLAR>
-1.27749

>  <SCORE.INTRA.POLAR.0>
0

>  <SCORE.INTRA.REPUL>
0

>  <SCORE.INTRA.REPUL.0>
0

>  <SCORE.INTRA.VDW>
0.584501

>  <SCORE.INTRA.VDW.0>
-0.937994

>  <SCORE.INTRA.norm>
-0.166215

>  <SCORE.RESTR>
0

>  <SCORE.RESTR.CAVITY>
0

>  <SCORE.RESTR.norm>
0

>  <SCORE.SYSTEM>
1.74361

>  <SCORE.SYSTEM.CONST>
0

>  <SCORE.SYSTEM.DIHEDRAL>
3.1136

>  <SCORE.SYSTEM.VDW>
0.186805

>  <SCORE.SYSTEM.norm>
0.0697442

>  <SCORE.heavy>
25

>  <SCORE.norm>
-0.587278

>  <SMILES>
CC(=O)N[C@H]1[C@@H](O)O[C@H](CO[P@@](=O)([O-])OCC[N+](C)(C)C)[C@H](O)[C@@H]1O

>  <UniqueID>
52

$$$$
45266741
  rDOCK(R)          3D
libRbt.so/2013.1/901 2013/11/27
 19 19  0  0  0  0  0  0  0  0999 V2000
   86.4957   19.3036 -103.0948 N   0  3  0  0  0  0
   86.2648   17.8542 -103.0092 C   0  0  0  0  0  0
   84.8182   17.5546 -102.5548 C   0  0  0  0  0  0
   84.6129   18.1029 -101.2810 O   0  0  0  0  0  0
   84.6068   16.1550 -102.4839 O   0  0  0  0  0  0
   84.6799   15.5700 -103.7727 C   0  0  0  0  0  0
   84.2511   14.0982 -103.6465 C   0  0  0  0  0  0
   82.8907   13.9895 -103.3230 O   0  0  0  0  0  0
   86.1192   15.6979 -104.3291 C   0  0  0  0  0  0
   86.1874   15.1712 -105.6309 O   0  0  0  0  0  0
   86.5299   17.1806 -104.3723 C   0  0  0  0  0  0
   87.8954   17.2851 -104.6865 O   0  0  0  0  0  0
   85.8682   19.7245 -103.8177 H   0  0  0  0  0  0
   86.3112   19.7615 -102.1724 H   0  0  0  0  0  0
   87.4835   19.4934 -103.3802 H   0  0  0  0  0  0
   83.6373   18.0488 -101.1059 H   0  0  0  0  0  0
   82.3829   14.2826 -104.1243 H   0  0  0  0  0  0
   86.2161   14.1824 -105.5476 H   0  0  0  0  0  0
   88.0184   16.8733 -105.5814 H   0  0  0  0  0  0
  1  2  1  0  0  0
  1 13  1  0  0  0
  1 14  1  0  0  0
  1 15  1  0  0  0
  2  3  1  0  0  0
  3  4  1  0  0  0
  3  5  1  0  0  0
  4 16  1  0  0  0
  5  6  1  0  0  0
  6  7  1  0  0  0
  6  9  1  0  0  0
  7  8  1  0  0  0
  8 17  1  0  0  0
  9 10  1  0  0  0
  9 11  1  0  0  0
 10 18  1  0  0  0
 11 12  1  0  0  0
 11  2  1  0  0  0
 12 19  1  0  0  0
M  END
>  <CHROM.0>
-179.73393330,152.97207333,50.18261614

>  <CHROM.1>
-62.74211307,169.02013176,67.52849870,69.64389997,-77.84549774,-177.86823472
85.43796347,16.50793546,-103.51725857,0.81129564,0.64588670,0.62275369

>  <Energy>
22.933556962543324

>  <Genealogy>
[NH3+][C@H]1[C@H](O)O[C@H](CO)[C@@H](O)[C@@H]1O (chirality)
[NH3+][C@H]1[C@H](O)O[C@H](CO)[C@@H](O)[C@@H]1O (3D coordinates assigned)
[NH3+][C@H]1[C@H](O)O[C@H](CO)[C@@H](O)[C@@H]1O (nonaromatic ring conformer: 22.933556962543324 kcal/mol)

>  <Name>
45266741

>  <RI>
3.95439e+07

>  <Rbt.Current_Directory>
/home/edward/Documentos/Virtual_Screening/rDock/2

>  <Rbt.Executable>
rbdock ($Id: //depot/dev/client3/rdock/2013.1/src/exe/rbdock.cxx#4 $)

>  <Rbt.Library>
libRbt.so (2013.1, Build901 2013/11/27)

>  <Rbt.Parameter_File>
/home/edward/anaconda3/envs/MD/share/rdock-2013.1-1/data/scripts/dock.prm

>  <Rbt.Receptor>
parameters.prm

>  <SCORE>
-23.1619

>  <SCORE.INTER>
-22.6166

>  <SCORE.INTER.CONST>
1

>  <SCORE.INTER.POLAR>
-5.45955

>  <SCORE.INTER.REPUL>
0.00156595

>  <SCORE.INTER.ROT>
1

>  <SCORE.INTER.VDW>
-10.4619

>  <SCORE.INTER.norm>
-1.88472

>  <SCORE.INTRA>
-2.93834

>  <SCORE.INTRA.DIHEDRAL>
-6.43303

>  <SCORE.INTRA.DIHEDRAL.0>
9.16861

>  <SCORE.INTRA.POLAR>
0

>  <SCORE.INTRA.POLAR.0>
0

>  <SCORE.INTRA.REPUL>
0

>  <SCORE.INTRA.REPUL.0>
0

>  <SCORE.INTRA.VDW>
0.278175

>  <SCORE.INTRA.VDW.0>
-1.02208

>  <SCORE.INTRA.norm>
-0.244862

>  <SCORE.RESTR>
0

>  <SCORE.RESTR.CAVITY>
0

>  <SCORE.RESTR.norm>
0

>  <SCORE.SYSTEM>
2.39301

>  <SCORE.SYSTEM.CONST>
0

>  <SCORE.SYSTEM.DIHEDRAL>
3.33633

>  <SCORE.SYSTEM.VDW>
0.724845

>  <SCORE.SYSTEM.norm>
0.199417

>  <SCORE.heavy>
12

>  <SCORE.norm>
-1.93016

>  <SMILES>
[NH3+][C@H]1[C@H](O)O[C@H](CO)[C@@H](O)[C@@H]1O

>  <UniqueID>
54

$$$$
44630437
  rDOCK(R)          3D
libRbt.so/2013.1/901 2013/11/27
 21 21  0  0  0  0  0  0  0  0999 V2000
   91.5805   14.9814 -105.5438 C   0  0  0  0  0  0
   90.6867   13.8162 -105.1341 C   0  0  0  0  0  0
   89.6066   14.2883 -104.2090 C   0  0  0  0  0  0
   89.5791   13.8651 -103.0207 O   0  0  0  0  0  0
   88.6471   15.2546 -104.6604 N   0  0  0  0  0  0
   87.7448   15.9553 -103.7412 C   0  0  0  0  0  0
   88.3406   17.3335 -103.3526 C   0  0  0  0  0  0
   88.8298   18.0759 -104.4472 O   0  0  0  0  0  0
   87.4507   18.1047 -102.5613 O   0  0  0  0  0  0
   86.2117   18.3346 -103.2145 C   0  0  0  0  0  0
   85.3741   19.2736 -102.3354 C   0  0  0  0  0  0
   85.8694   20.5828 -102.4041 O   0  0  0  0  0  0
   85.4701   17.0042 -103.4844 C   0  0  0  0  0  0
   84.2546   17.2660 -104.1403 O   0  0  0  0  0  0
   86.3445   16.0942 -104.3635 C   0  0  0  0  0  0
   85.7606   14.8189 -104.4611 O   0  0  0  0  0  0
   88.7146   15.5918 -105.6488 H   0  0  0  0  0  0
   88.1033   18.1912 -105.1091 H   0  0  0  0  0  0
   85.8734   20.8274 -103.3644 H   0  0  0  0  0  0
   84.4757   17.7644 -104.9698 H   0  0  0  0  0  0
   86.3272   14.2869 -105.0792 H   0  0  0  0  0  0
  1  2  1  0  0  0
  2  3  1  0  0  0
  3  4  2  0  0  0
  3  5  1  0  0  0
  5  6  1  0  0  0
  5 17  1  0  0  0
  6  7  1  0  0  0
  7  8  1  0  0  0
  7  9  1  0  0  0
  8 18  1  0  0  0
  9 10  1  0  0  0
 10 11  1  0  0  0
 10 13  1  0  0  0
 11 12  1  0  0  0
 12 19  1  0  0  0
 13 14  1  0  0  0
 13 15  1  0  0  0
 14 20  1  0  0  0
 15 16  1  0  0  0
 15  6  1  0  0  0
 16 21  1  0  0  0
M  END
>  <CHROM.0>
-178.48261751,154.33585571,-62.87564087

>  <CHROM.1>
-115.48009532,95.62602473,56.35321615,74.08795764,55.89819523,57.03255308
-63.01045505,87.57378346,16.61457526,-103.83116730,-0.79469200,0.04999808
0.30656952

>  <Energy>
28.04225041368164

>  <Genealogy>
CCC(=O)N[C@H]1[C@@H](O)O[C@H](CO)[C@@H](O)[C@@H]1O (chirality)
CCC(=O)N[C@H]1[C@@H](O)O[C@H](CO)[C@@H](O)[C@@H]1O (3D coordinates assigned)
CCC(=O)N[C@H]1[C@@H](O)O[C@H](CO)[C@@H](O)[C@@H]1O (nonaromatic ring conformer: 28.04225041368164 kcal/mol)

>  <Name>
44630437

>  <RI>
3.95439e+07

>  <Rbt.Current_Directory>
/home/edward/Documentos/Virtual_Screening/rDock/2

>  <Rbt.Executable>
rbdock ($Id: //depot/dev/client3/rdock/2013.1/src/exe/rbdock.cxx#4 $)

>  <Rbt.Library>
libRbt.so (2013.1, Build901 2013/11/27)

>  <Rbt.Parameter_File>
/home/edward/anaconda3/envs/MD/share/rdock-2013.1-1/data/scripts/dock.prm

>  <Rbt.Receptor>
parameters.prm

>  <SCORE>
-17.3935

>  <SCORE.INTER>
-16.3355

>  <SCORE.INTER.CONST>
1

>  <SCORE.INTER.POLAR>
-3.14341

>  <SCORE.INTER.REPUL>
0.0137801

>  <SCORE.INTER.ROT>
3

>  <SCORE.INTER.VDW>
-14.1168

>  <SCORE.INTER.norm>
-1.02097

>  <SCORE.INTRA>
-2.82363

>  <SCORE.INTRA.DIHEDRAL>
-6.63774

>  <SCORE.INTRA.DIHEDRAL.0>
9.81054

>  <SCORE.INTRA.POLAR>
0

>  <SCORE.INTRA.POLAR.0>
0

>  <SCORE.INTRA.REPUL>
0

>  <SCORE.INTRA.REPUL.0>
0

>  <SCORE.INTRA.VDW>
0.495236

>  <SCORE.INTRA.VDW.0>
-2.01839

>  <SCORE.INTRA.norm>
-0.176477

>  <SCORE.RESTR>
0

>  <SCORE.RESTR.CAVITY>
0

>  <SCORE.RESTR.norm>
0

>  <SCORE.SYSTEM>
1.76561

>  <SCORE.SYSTEM.CONST>
0

>  <SCORE.SYSTEM.DIHEDRAL>
3.17542

>  <SCORE.SYSTEM.VDW>
0.177899

>  <SCORE.SYSTEM.norm>
0.110351

>  <SCORE.heavy>
16

>  <SCORE.norm>
-1.0871

>  <SMILES>
CCC(=O)N[C@H]1[C@@H](O)O[C@H](CO)[C@@H](O)[C@@H]1O

>  <UniqueID>
55

$$$$
44341508
  rDOCK(R)          3D
libRbt.so/2013.1/901 2013/11/27
 31 33  0  0  0  0  0  0  0  0999 V2000
   81.4293   19.5682 -106.0110 H   0  0  0  0  0  0
   82.1128   18.8474 -105.8125 O   0  0  0  0  0  0
   83.0616   18.9970 -104.8041 C   0  0  0  0  0  0
   83.8160   17.9759 -104.5134 N   0  0  0  0  0  0
   84.8549   17.8936 -103.4782 C   0  0  0  0  0  0
   84.2117   17.6691 -102.0891 C   0  0  0  0  0  0
   85.1931   17.6948 -101.0429 O   0  0  0  0  0  0
   85.9608   18.8033 -100.6506 C   0  0  0  0  0  0
   86.8698   18.6319  -99.6002 C   0  0  0  0  0  0
   87.6683   19.6924  -99.1653 C   0  0  0  0  0  0
   87.5650   20.9492  -99.7772 C   0  0  0  0  0  0
   88.3636   22.0210  -99.3504 C   0  0  0  0  0  0
   88.2581   23.2763  -99.9614 C   0  0  0  0  0  0
   89.0806   24.3132  -99.4961 O   0  0  0  0  0  0
   90.4837   24.1940  -99.2854 C   0  0  0  0  0  0
   87.3393   23.4572 -101.0130 C   0  0  0  0  0  0
   86.5394   22.3955 -101.4443 C   0  0  0  0  0  0
   86.6447   21.1376 -100.8336 C   0  0  0  0  0  0
   85.8454   20.0663 -101.2610 C   0  0  0  0  0  0
   83.5004   16.4411 -102.0635 O   0  0  0  0  0  0
   84.3623   15.3265 -102.2516 C   0  0  0  0  0  0
   83.5373   14.0403 -102.0815 C   0  0  0  0  0  0
   82.5275   13.9508 -103.0516 O   0  0  0  0  0  0
   82.9813   13.8586 -103.9296 H   0  0  0  0  0  0
   85.0536   15.3801 -103.6373 C   0  0  0  0  0  0
   85.9811   14.3306 -103.7576 O   0  0  0  0  0  0
   86.3280   14.3513 -104.6875 H   0  0  0  0  0  0
   85.7954   16.7160 -103.7954 C   0  0  0  0  0  0
   86.2908   16.8241 -105.1053 O   0  0  0  0  0  0
   86.7718   17.6911 -105.1586 H   0  0  0  0  0  0
   83.1703   20.3158 -104.0886 C   0  0  0  0  0  0
  1  2  1  0  0  0
  2  3  1  0  0  0
  3  4  2  0  0  0
  3 31  1  0  0  0
  4  5  1  0  0  0
  5  6  1  0  0  0
  6  7  1  0  0  0
  6 20  1  0  0  0
  7  8  1  0  0  0
  8  9  2  0  0  0
  9 10  1  0  0  0
 10 11  2  0  0  0
 11 12  1  0  0  0
 12 13  2  0  0  0
 13 14  1  0  0  0
 13 16  1  0  0  0
 14 15  1  0  0  0
 16 17  2  0  0  0
 17 18  1  0  0  0
 18 19  2  0  0  0
 18 11  1  0  0  0
 19  8  1  0  0  0
 20 21  1  0  0  0
 21 22  1  0  0  0
 21 25  1  0  0  0
 22 23  1  0  0  0
 23 24  1  0  0  0
 25 26  1  0  0  0
 25 28  1  0  0  0
 26 27  1  0  0  0
 28 29  1  0  0  0
 28  5  1  0  0  0
 29 30  1  0  0  0
M  END
>  <CHROM.0>
-179.87739146,154.09188771,-69.46945123

>  <CHROM.1>
172.94907070,79.25084767,65.68841384,179.84809614,48.50146201,62.39858527
65.48698073,174.39508195,59.07451455,85.64450446,18.82796771,-102.07522769
2.41296211,0.85275820,2.93746175

>  <Energy>
54.86279735570546

>  <Genealogy>
COc1ccc2cc(OC3OC(CO)C(O)C(O)C3N=C(C)O)ccc2c1 (tautomer)
COc1ccc2cc(O[C@@H]3O[C@@H](CO)[C@H](O)[C@@H](O)[C@H]3N=C(C)O)ccc2c1 (chirality)
COc1ccc2cc(O[C@@H]3O[C@@H](CO)[C@H](O)[C@@H](O)[C@H]3/N=C(\C)O)ccc2c1 (cis-trans isomerization)
COc1ccc2cc(O[C@@H]3O[C@@H](CO)[C@H](O)[C@@H](O)[C@H]3/N=C(\C)O)ccc2c1 (3D coordinates assigned)
COc1ccc2cc(O[C@@H]3O[C@@H](CO)[C@H](O)[C@@H](O)[C@H]3/N=C(\C)O)ccc2c1 (nonaromatic ring conformer: 54.86279735570546 kcal/mol)

>  <Name>
44341508

>  <RI>
3.95439e+07

>  <Rbt.Current_Directory>
/home/edward/Documentos/Virtual_Screening/rDock/2

>  <Rbt.Executable>
rbdock ($Id: //depot/dev/client3/rdock/2013.1/src/exe/rbdock.cxx#4 $)

>  <Rbt.Library>
libRbt.so (2013.1, Build901 2013/11/27)

>  <Rbt.Parameter_File>
/home/edward/anaconda3/envs/MD/share/rdock-2013.1-1/data/scripts/dock.prm

>  <Rbt.Receptor>
parameters.prm

>  <SCORE>
-15.5415

>  <SCORE.INTER>
-15.5092

>  <SCORE.INTER.CONST>
1

>  <SCORE.INTER.POLAR>
-2.31274

>  <SCORE.INTER.REPUL>
0.0529002

>  <SCORE.INTER.ROT>
5

>  <SCORE.INTER.VDW>
-18.3104

>  <SCORE.INTER.norm>
-0.574415

>  <SCORE.INTRA>
-1.77618

>  <SCORE.INTRA.DIHEDRAL>
-3.51007

>  <SCORE.INTRA.DIHEDRAL.0>
8.9163

>  <SCORE.INTRA.POLAR>
0

>  <SCORE.INTRA.POLAR.0>
0

>  <SCORE.INTRA.REPUL>
0

>  <SCORE.INTRA.REPUL.0>
0

>  <SCORE.INTRA.VDW>
-0.0211479

>  <SCORE.INTRA.VDW.0>
-1.42168

>  <SCORE.INTRA.norm>
-0.0657846

>  <SCORE.RESTR>
0

>  <SCORE.RESTR.CAVITY>
0

>  <SCORE.RESTR.norm>
0

>  <SCORE.SYSTEM>
1.74395

>  <SCORE.SYSTEM.CONST>
0

>  <SCORE.SYSTEM.DIHEDRAL>
3.12847

>  <SCORE.SYSTEM.VDW>
0.179714

>  <SCORE.SYSTEM.norm>
0.0645906

>  <SCORE.heavy>
27

>  <SCORE.norm>
-0.575609

>  <SMILES>
COc1ccc2cc(O[C@@H]3O[C@@H](CO)[C@H](O)[C@@H](O)[C@H]3/N=C(\C)O)ccc2c1

>  <UniqueID>
58

$$$$
44229083
  rDOCK(R)          3D
libRbt.so/2013.1/901 2013/11/27
 23 23  0  0  0  0  0  0  0  0999 V2000
   89.8847   18.1872 -107.9160 H   0  0  0  0  0  0
   89.9831   19.1943 -107.8707 O   0  0  0  0  0  0
   89.9408   19.8695 -106.6512 C   0  0  0  0  0  0
   89.9912   19.2157 -105.5292 N   0  0  0  0  0  0
   90.0905   17.7566 -105.4196 C   0  0  0  0  0  0
   91.4146   17.3810 -104.6859 C   0  0  0  0  0  0
   92.0613   16.3685 -105.4097 O   0  0  0  0  0  0
   92.8885   16.1455 -104.9079 H   0  0  0  0  0  0
   91.2013   16.9191 -103.3569 O   0  0  0  0  0  0
   90.3438   17.7982 -102.6520 C   0  0  0  0  0  0
   90.4722   17.5349 -101.1442 C   0  0  0  0  0  0
   89.7070   18.4741 -100.4242 O   0  0  0  0  0  0
   90.6729   19.8504 -100.1461 P   0  0  0  0  0  0
   89.9426   20.7822  -99.2070 O   0  0  0  0  0  0
   90.9681   20.6566 -101.6041 O   0  5  0  0  0  0
   92.1440   19.3992  -99.4421 O   0  5  0  0  0  0
   88.8845   17.6742 -103.1835 C   0  0  0  0  0  0
   88.1159   16.8065 -102.3870 O   0  0  0  0  0  0
   87.1985   16.8053 -102.7670 H   0  0  0  0  0  0
   88.8727   17.1940 -104.6582 C   0  0  0  0  0  0
   88.9154   15.7887 -104.7190 O   0  0  0  0  0  0
   89.7542   15.5012 -104.2721 H   0  0  0  0  0  0
   89.8087   21.3580 -106.6301 C   0  0  0  0  0  0
  1  2  1  0  0  0
  2  3  1  0  0  0
  3  4  2  0  0  0
  3 23  1  0  0  0
  4  5  1  0  0  0
  5  6  1  0  0  0
  6  7  1  0  0  0
  6  9  1  0  0  0
  7  8  1  0  0  0
  9 10  1  0  0  0
 10 11  1  0  0  0
 10 17  1  0  0  0
 11 12  1  0  0  0
 12 13  1  0  0  0
 13 14  2  0  0  0
 13 15  1  0  0  0
 13 16  1  0  0  0
 17 18  1  0  0  0
 17 20  1  0  0  0
 18 19  1  0  0  0
 20 21  1  0  0  0
 20  5  1  0  0  0
 21 22  1  0  0  0
M  END
>  <CHROM.0>
179.18381520,153.87239081,-65.55211572

>  <CHROM.1>
11.21110447,118.59550172,-179.09243349,175.26391702,-87.54920081,-171.85286639
178.02273504,61.40811549,90.22384467,18.48463330,-103.19715305,-2.19191900
1.41837760,1.98205258

>  <Energy>
36.17263244537255

>  <Genealogy>
CC(O)=N[C@H]1C(O)O[C@H](COP(=O)([O-])[O-])[C@H](O)[C@@H]1O (tautomer)
CC(O)=N[C@H]1[C@H](O)O[C@H](COP(=O)([O-])[O-])[C@H](O)[C@@H]1O (chirality)
C/C(O)=N/[C@H]1[C@H](O)O[C@H](COP(=O)([O-])[O-])[C@H](O)[C@@H]1O (cis-trans isomerization)
C/C(O)=N/[C@H]1[C@H](O)O[C@H](COP(=O)([O-])[O-])[C@H](O)[C@@H]1O (3D coordinates assigned)
C/C(O)=N/[C@H]1[C@H](O)O[C@H](COP(=O)([O-])[O-])[C@H](O)[C@@H]1O (nonaromatic ring conformer: 36.17263244537255 kcal/mol)

>  <Name>
44229083

>  <RI>
3.95439e+07

>  <Rbt.Current_Directory>
/home/edward/Documentos/Virtual_Screening/rDock/2

>  <Rbt.Executable>
rbdock ($Id: //depot/dev/client3/rdock/2013.1/src/exe/rbdock.cxx#4 $)

>  <Rbt.Library>
libRbt.so (2013.1, Build901 2013/11/27)

>  <Rbt.Parameter_File>
/home/edward/anaconda3/envs/MD/share/rdock-2013.1-1/data/scripts/dock.prm

>  <Rbt.Receptor>
parameters.prm

>  <SCORE>
-16.6924

>  <SCORE.INTER>
-17.2408

>  <SCORE.INTER.CONST>
1

>  <SCORE.INTER.POLAR>
-2.98119

>  <SCORE.INTER.REPUL>
0.051532

>  <SCORE.INTER.ROT>
4

>  <SCORE.INTER.VDW>
-16.7624

>  <SCORE.INTER.norm>
-0.907409

>  <SCORE.INTRA>
-1.18746

>  <SCORE.INTRA.DIHEDRAL>
-2.39165

>  <SCORE.INTRA.DIHEDRAL.0>
6.85696

>  <SCORE.INTRA.POLAR>
-0.151561

>  <SCORE.INTRA.POLAR.0>
0

>  <SCORE.INTRA.REPUL>
0.0492236

>  <SCORE.INTRA.REPUL.0>
0

>  <SCORE.INTRA.VDW>
0.27755

>  <SCORE.INTRA.VDW.0>
-2.03471

>  <SCORE.INTRA.norm>
-0.0624979

>  <SCORE.RESTR>
0

>  <SCORE.RESTR.CAVITY>
0

>  <SCORE.RESTR.norm>
0

>  <SCORE.SYSTEM>
1.7358

>  <SCORE.SYSTEM.CONST>
0

>  <SCORE.SYSTEM.DIHEDRAL>
3.1985

>  <SCORE.SYSTEM.VDW>
0.13655

>  <SCORE.SYSTEM.norm>
0.0913578

>  <SCORE.heavy>
19

>  <SCORE.norm>
-0.878549

>  <SMILES>
C/C(O)=N/[C@H]1[C@H](O)O[C@H](COP(=O)([O-])[O-])[C@H](O)[C@@H]1O

>  <UniqueID>
60

$$$$
44119773
  rDOCK(R)          3D
libRbt.so/2013.1/901 2013/11/27
 20 20  0  0  0  0  0  0  0  0999 V2000
   82.8579    3.3551 -101.7805 H   0  0  0  0  0  0
   83.2173    2.5264 -101.3221 O   0  0  0  0  0  0
   84.1445    2.6202 -100.2846 C   0  0  0  0  0  0
   84.6231    3.7737  -99.9257 N   0  0  0  0  0  0
   84.2565    5.0498 -100.5449 C   0  0  0  0  0  0
   85.5331    5.8233 -100.9383 C   0  0  0  0  0  0
   86.2581    5.0797 -101.8829 O   0  0  0  0  0  0
   85.6855    4.9927 -102.6895 H   0  0  0  0  0  0
   85.1892    7.0637 -101.5290 O   0  0  0  0  0  0
   84.5502    7.9123 -100.5886 C   0  0  0  0  0  0
   84.3557    9.2929 -101.2330 C   0  0  0  0  0  0
   83.9760   10.2345 -100.2651 O   0  0  0  0  0  0
   83.1884    9.8584  -99.7919 H   0  0  0  0  0  0
   83.1916    7.3041 -100.1629 C   0  0  0  0  0  0
   82.5644    8.1172  -99.2021 O   0  0  0  0  0  0
   81.6628    7.7361  -99.0371 H   0  0  0  0  0  0
   83.4086    5.8974  -99.5757 C   0  0  0  0  0  0
   84.0576    5.9815  -98.3296 O   0  0  0  0  0  0
   84.2270    5.0515  -98.0262 H   0  0  0  0  0  0
   84.5747    1.3865  -99.5587 C   0  0  0  0  0  0
  1  2  1  0  0  0
  2  3  1  0  0  0
  3  4  2  0  0  0
  3 20  1  0  0  0
  4  5  1  0  0  0
  5  6  1  0  0  0
  6  7  1  0  0  0
  6  9  1  0  0  0
  7  8  1  0  0  0
  9 10  1  0  0  0
 10 11  1  0  0  0
 10 14  1  0  0  0
 11 12  1  0  0  0
 12 13  1  0  0  0
 14 15  1  0  0  0
 14 17  1  0  0  0
 15 16  1  0  0  0
 17 18  1  0  0  0
 17  5  1  0  0  0
 18 19  1  0  0  0
M  END
>  <CHROM.0>
-178.89574963,152.99987944,-65.74093411

>  <CHROM.1>
-3.56666194,-128.96251580,62.77553245,-168.24738967,-52.94140604,174.11899882
-55.10735545,84.24470961,5.90943590,-100.35458632,1.47611633,-0.81322743
3.07663735

>  <Energy>
24.70408582433976

>  <Genealogy>
CC(O)=N[C@@H]1[C@@H](O)OC(CO)[C@H](O)[C@@H]1O (tautomer)
CC(O)=N[C@@H]1[C@@H](O)O[C@@H](CO)[C@H](O)[C@@H]1O (chirality)
C/C(O)=N/[C@@H]1[C@@H](O)O[C@@H](CO)[C@H](O)[C@@H]1O (cis-trans isomerization)
C/C(O)=N/[C@@H]1[C@@H](O)O[C@@H](CO)[C@H](O)[C@@H]1O (3D coordinates assigned)
C/C(O)=N/[C@@H]1[C@@H](O)O[C@@H](CO)[C@H](O)[C@@H]1O (nonaromatic ring conformer: 24.70408582433976 kcal/mol)

>  <Name>
44119773

>  <RI>
3.95439e+07

>  <Rbt.Current_Directory>
/home/edward/Documentos/Virtual_Screening/rDock/2

>  <Rbt.Executable>
rbdock ($Id: //depot/dev/client3/rdock/2013.1/src/exe/rbdock.cxx#4 $)

>  <Rbt.Library>
libRbt.so (2013.1, Build901 2013/11/27)

>  <Rbt.Parameter_File>
/home/edward/anaconda3/envs/MD/share/rdock-2013.1-1/data/scripts/dock.prm

>  <Rbt.Receptor>
parameters.prm

>  <SCORE>
-21.7687

>  <SCORE.INTER>
-15.5787

>  <SCORE.INTER.CONST>
1

>  <SCORE.INTER.POLAR>
-4.38247

>  <SCORE.INTER.REPUL>
0.238846

>  <SCORE.INTER.ROT>
2

>  <SCORE.INTER.VDW>
-9.27253

>  <SCORE.INTER.norm>
-1.03858

>  <SCORE.INTRA>
-8.4942

>  <SCORE.INTRA.DIHEDRAL>
-12.3528

>  <SCORE.INTRA.DIHEDRAL.0>
13.674

>  <SCORE.INTRA.POLAR>
-0.839006

>  <SCORE.INTRA.POLAR.0>
0

>  <SCORE.INTRA.REPUL>
0

>  <SCORE.INTRA.REPUL.0>
0

>  <SCORE.INTRA.VDW>
0.534823

>  <SCORE.INTRA.VDW.0>
-1.43609

>  <SCORE.INTRA.norm>
-0.56628

>  <SCORE.RESTR>
0.562658

>  <SCORE.RESTR.CAVITY>
0.562658

>  <SCORE.RESTR.norm>
0.0375105

>  <SCORE.SYSTEM>
1.74155

>  <SCORE.SYSTEM.CONST>
0

>  <SCORE.SYSTEM.DIHEDRAL>
3.35985

>  <SCORE.SYSTEM.VDW>
0.0616215

>  <SCORE.SYSTEM.norm>
0.116103

>  <SCORE.heavy>
15

>  <SCORE.norm>
-1.45125

>  <SMILES>
C/C(O)=N/[C@@H]1[C@@H](O)O[C@@H](CO)[C@H](O)[C@@H]1O

>  <UniqueID>
61

$$$$
42612215
  rDOCK(R)          3D
libRbt.so/2013.1/901 2013/11/27
 24 24  0  0  0  0  0  0  0  0999 V2000
   85.9097    5.5236 -102.8903 H   0  0  0  0  0  0
   86.4109    5.1618 -102.0868 O   0  0  0  0  0  0
   86.5950    5.9146 -100.9252 C   0  0  0  0  0  0
   87.1211    5.3318  -99.8396 C   0  0  0  0  0  0
   87.3313    6.0616  -98.6302 N   0  0  0  0  0  0
   87.0181    7.2493  -98.5528 N   0  3  0  0  0  0
   86.7053    8.4362  -98.4749 N   0  5  0  0  0  0
   86.2154    7.3029 -100.9134 N   0  0  0  0  0  0
   86.2809    7.8475 -100.0234 H   0  0  0  0  0  0
   85.5957    7.9544 -102.0755 C   0  0  0  0  0  0
   86.1524    9.3795 -102.2538 C   0  0  0  0  0  0
   87.5494    9.3170 -102.3538 O   0  0  0  0  0  0
   87.8558   10.2344 -102.5777 H   0  0  0  0  0  0
   85.8013   10.1912 -101.1458 O   0  0  0  0  0  0
   84.3976   10.3906 -101.0953 C   0  0  0  0  0  0
   84.1067   11.4098  -99.9848 C   0  0  0  0  0  0
   82.7258   11.5985  -99.8407 O   0  0  0  0  0  0
   82.6156   12.3482  -99.1999 H   0  0  0  0  0  0
   83.6702    9.0471 -100.8332 C   0  0  0  0  0  0
   82.2795    9.2451 -100.8627 O   0  0  0  0  0  0
   82.0623    9.8781 -100.1293 H   0  0  0  0  0  0
   84.0634    8.0207 -101.9124 C   0  0  0  0  0  0
   83.5478    6.7587 -101.5742 O   0  0  0  0  0  0
   83.9538    6.5083 -100.7034 H   0  0  0  0  0  0
  1  2  1  0  0  0
  2  3  1  0  0  0
  3  4  2  0  0  0
  3  8  1  0  0  0
  4  5  1  0  0  0
  5  6  2  0  0  0
  6  7  2  0  0  0
  8  9  1  0  0  0
  8 10  1  0  0  0
 10 11  1  0  0  0
 11 12  1  0  0  0
 11 14  1  0  0  0
 12 13  1  0  0  0
 14 15  1  0  0  0
 15 16  1  0  0  0
 15 19  1  0  0  0
 16 17  1  0  0  0
 17 18  1  0  0  0
 19 20  1  0  0  0
 19 22  1  0  0  0
 20 21  1  0  0  0
 22 23  1  0  0  0
 22 10  1  0  0  0
 23 24  1  0  0  0
M  END
>  <CHROM.0>
179.73696115,154.73968214,-63.84617652

>  <CHROM.1>
171.96109909,0.77326068,-140.28508398,173.24080518,-177.02656694,-172.67958748
-61.92896523,61.66491210,85.35536962,8.31211357,-100.75714410,0.75383162
0.60850125,-2.64876403

>  <Energy>
25.297540234277573

>  <Genealogy>
[N-]=[N+]=NC=C(O)N[C@@H]1C(O)O[C@H](CO)[C@@H](O)[C@@H]1O (tautomer)
[N-]=[N+]=NC=C(O)N[C@@H]1[C@H](O)O[C@H](CO)[C@@H](O)[C@@H]1O (chirality)
[N-]=[N+]=N/C=C(/O)N[C@@H]1[C@H](O)O[C@H](CO)[C@@H](O)[C@@H]1O (cis-trans isomerization)
[N-]=[N+]=N/C=C(/O)N[C@@H]1[C@H](O)O[C@H](CO)[C@@H](O)[C@@H]1O (3D coordinates assigned)
[N-]=[N+]=N/C=C(/O)N[C@@H]1[C@H](O)O[C@H](CO)[C@@H](O)[C@@H]1O (nonaromatic ring conformer: 25.297540234277573 kcal/mol)

>  <Name>
42612215

>  <RI>
3.95439e+07

>  <Rbt.Current_Directory>
/home/edward/Documentos/Virtual_Screening/rDock/2

>  <Rbt.Executable>
rbdock ($Id: //depot/dev/client3/rdock/2013.1/src/exe/rbdock.cxx#4 $)

>  <Rbt.Library>
libRbt.so (2013.1, Build901 2013/11/27)

>  <Rbt.Parameter_File>
/home/edward/anaconda3/envs/MD/share/rdock-2013.1-1/data/scripts/dock.prm

>  <Rbt.Receptor>
parameters.prm

>  <SCORE>
-18.7278

>  <SCORE.INTER>
-16.6087

>  <SCORE.INTER.CONST>
1

>  <SCORE.INTER.POLAR>
-4.31091

>  <SCORE.INTER.REPUL>
0.0206831

>  <SCORE.INTER.ROT>
3

>  <SCORE.INTER.VDW>
-10.455

>  <SCORE.INTER.norm>
-0.922704

>  <SCORE.INTRA>
-3.88598

>  <SCORE.INTRA.DIHEDRAL>
-2.38396

>  <SCORE.INTRA.DIHEDRAL.0>
6.14627

>  <SCORE.INTRA.POLAR>
-1.05851

>  <SCORE.INTRA.POLAR.0>
0

>  <SCORE.INTRA.REPUL>
0.000599572

>  <SCORE.INTRA.REPUL.0>
0

>  <SCORE.INTRA.VDW>
0.901948

>  <SCORE.INTRA.VDW.0>
-2.07405

>  <SCORE.INTRA.norm>
-0.215888

>  <SCORE.RESTR>
0

>  <SCORE.RESTR.CAVITY>
0

>  <SCORE.RESTR.norm>
0

>  <SCORE.SYSTEM>
1.76683

>  <SCORE.SYSTEM.CONST>
0

>  <SCORE.SYSTEM.DIHEDRAL>
3.06776

>  <SCORE.SYSTEM.VDW>
0.232947

>  <SCORE.SYSTEM.norm>
0.098157

>  <SCORE.heavy>
18

>  <SCORE.norm>
-1.04043

>  <SMILES>
[N-]=[N+]=N/C=C(/O)N[C@@H]1[C@H](O)O[C@H](CO)[C@@H](O)[C@@H]1O

>  <UniqueID>
63

$$$$
25243963
  rDOCK(R)          3D
libRbt.so/2013.1/901 2013/11/27
 23 23  0  0  0  0  0  0  0  0999 V2000
   91.7583   23.7871 -106.3455 C   0  0  0  0  0  0
   90.8876   22.9466 -105.4696 C   0  0  0  0  0  0
   90.3797   23.4503 -104.4315 O   0  0  0  0  0  0
   90.6660   21.5675 -105.7956 N   0  0  0  0  0  0
   89.9112   20.6578 -104.9256 C   0  0  0  0  0  0
   89.7618   19.2588 -105.5776 C   0  0  0  0  0  0
   89.5736   19.3652 -106.9665 O   0  0  0  0  0  0
   90.8925   18.4511 -105.2932 O   0  0  0  0  0  0
   90.9555   18.0813 -103.9164 C   0  0  0  0  0  0
   90.2701   16.7244 -103.6971 C   0  0  0  0  0  0
   88.8884   16.8608 -103.9331 O   0  0  0  0  0  0
   88.2718   15.3412 -104.3985 P   0  0  0  0  0  0
   88.0191   14.5127 -103.1603 O   0  0  0  0  0  0
   89.3896   14.5368 -105.3819 O   0  5  0  0  0  0
   86.8162   15.5347 -105.2395 O   0  5  0  0  0  0
   90.4188   19.1690 -102.9342 C   0  0  0  0  0  0
   91.1060   19.0976 -101.7107 O   0  0  0  0  0  0
   90.6177   20.5620 -103.5521 C   0  0  0  0  0  0
   90.1033   21.5512 -102.6966 O   0  0  0  0  0  0
   91.1998   21.1601 -106.5973 H   0  0  0  0  0  0
   89.3949   18.4545 -107.3185 H   0  0  0  0  0  0
   90.9470   18.1895 -101.3434 H   0  0  0  0  0  0
   90.2420   22.4254 -103.1462 H   0  0  0  0  0  0
  1  2  1  0  0  0
  2  3  2  0  0  0
  2  4  1  0  0  0
  4  5  1  0  0  0
  4 20  1  0  0  0
  5  6  1  0  0  0
  6  7  1  0  0  0
  6  8  1  0  0  0
  7 21  1  0  0  0
  8  9  1  0  0  0
  9 10  1  0  0  0
  9 16  1  0  0  0
 10 11  1  0  0  0
 11 12  1  0  0  0
 12 13  2  0  0  0
 12 14  1  0  0  0
 12 15  1  0  0  0
 16 17  1  0  0  0
 16 18  1  0  0  0
 17 22  1  0  0  0
 18 19  1  0  0  0
 18  5  1  0  0  0
 19 23  1  0  0  0
M  END
>  <CHROM.0>
-75.46483236,152.23345153,-63.29561545

>  <CHROM.1>
176.49482976,-174.50255518,-67.14666198,154.11713550,81.75912528,-59.95959130
-57.17737620,89.80899924,18.75817185,-104.48597871,0.60734172,-1.17365749
-1.00915230

>  <Energy>
35.2355897704292

>  <Genealogy>
CC(=O)N[C@H]1[C@@H](O)O[C@H](COP(=O)([O-])[O-])[C@@H](O)[C@@H]1O (chirality)
CC(=O)N[C@H]1[C@@H](O)O[C@H](COP(=O)([O-])[O-])[C@@H](O)[C@@H]1O (3D coordinates assigned)
CC(=O)N[C@H]1[C@@H](O)O[C@H](COP(=O)([O-])[O-])[C@@H](O)[C@@H]1O (nonaromatic ring conformer: 35.2355897704292 kcal/mol)

>  <Name>
25243963

>  <RI>
3.95439e+07

>  <Rbt.Current_Directory>
/home/edward/Documentos/Virtual_Screening/rDock/2

>  <Rbt.Executable>
rbdock ($Id: //depot/dev/client3/rdock/2013.1/src/exe/rbdock.cxx#4 $)

>  <Rbt.Library>
libRbt.so (2013.1, Build901 2013/11/27)

>  <Rbt.Parameter_File>
/home/edward/anaconda3/envs/MD/share/rdock-2013.1-1/data/scripts/dock.prm

>  <Rbt.Receptor>
parameters.prm

>  <SCORE>
-16.8427

>  <SCORE.INTER>
-17.1487

>  <SCORE.INTER.CONST>
1

>  <SCORE.INTER.POLAR>
-2.69408

>  <SCORE.INTER.REPUL>
0.117793

>  <SCORE.INTER.ROT>
4

>  <SCORE.INTER.VDW>
-17.9778

>  <SCORE.INTER.norm>
-0.902565

>  <SCORE.INTRA>
-2.95828

>  <SCORE.INTRA.DIHEDRAL>
-2.91875

>  <SCORE.INTRA.DIHEDRAL.0>
8.08999

>  <SCORE.INTRA.POLAR>
-0.716441

>  <SCORE.INTRA.POLAR.0>
0

>  <SCORE.INTRA.REPUL>
0

>  <SCORE.INTRA.REPUL.0>
0

>  <SCORE.INTRA.VDW>
0.936995

>  <SCORE.INTRA.VDW.0>
-2.38717

>  <SCORE.INTRA.norm>
-0.155699

>  <SCORE.RESTR>
0

>  <SCORE.RESTR.CAVITY>
0

>  <SCORE.RESTR.norm>
0

>  <SCORE.SYSTEM>
3.26428

>  <SCORE.SYSTEM.CONST>
0

>  <SCORE.SYSTEM.DIHEDRAL>
4.66

>  <SCORE.SYSTEM.VDW>
0.934281

>  <SCORE.SYSTEM.norm>
0.171804

>  <SCORE.heavy>
19

>  <SCORE.norm>
-0.88646

>  <SMILES>
CC(=O)N[C@H]1[C@@H](O)O[C@H](COP(=O)([O-])[O-])[C@@H](O)[C@@H]1O

>  <UniqueID>
66

$$$$
25243937
  rDOCK(R)          3D
libRbt.so/2013.1/901 2013/11/27
 23 23  0  0  0  0  0  0  0  0999 V2000
   91.9602   22.1044 -107.3257 H   0  0  0  0  0  0
   91.6184   21.6022 -106.5152 O   0  0  0  0  0  0
   90.6472   22.1538 -105.6803 C   0  0  0  0  0  0
   90.2595   21.5282 -104.6094 N   0  0  0  0  0  0
   90.7422   20.2069 -104.1951 C   0  0  0  0  0  0
   90.4847   20.0080 -102.6822 C   0  0  0  0  0  0
   90.7173   21.2255 -102.0034 O   0  0  0  0  0  0
   90.5190   20.9904 -100.3224 P   0  0  0  0  0  0
   89.1559   20.4033 -100.0331 O   0  0  0  0  0  0
   90.6463   22.4867  -99.5460 O   0  5  0  0  0  0
   91.7184   19.9596  -99.7196 O   0  5  0  0  0  0
   89.1435   19.5928 -102.4835 O   0  0  0  0  0  0
   88.9274   18.2540 -102.9241 C   0  0  0  0  0  0
   89.1420   17.2680 -101.7626 C   0  0  0  0  0  0
   88.2577   17.5476 -100.7112 O   0  0  0  0  0  0
   88.4336   18.4842 -100.4331 H   0  0  0  0  0  0
   89.7594   17.8572 -104.1819 C   0  0  0  0  0  0
   89.0573   16.9158 -104.9533 O   0  0  0  0  0  0
   89.5925   16.7602 -105.7744 H   0  0  0  0  0  0
   90.0351   19.1052 -105.0321 C   0  0  0  0  0  0
   90.8345   18.7465 -106.1307 O   0  0  0  0  0  0
   91.0781   19.5861 -106.6003 H   0  0  0  0  0  0
   90.0770   23.4996 -105.9920 C   0  0  0  0  0  0
  1  2  1  0  0  0
  2  3  1  0  0  0
  3  4  2  0  0  0
  3 23  1  0  0  0
  4  5  1  0  0  0
  5  6  1  0  0  0
  6  7  1  0  0  0
  6 12  1  0  0  0
  7  8  1  0  0  0
  8  9  2  0  0  0
  8 10  1  0  0  0
  8 11  1  0  0  0
 12 13  1  0  0  0
 13 14  1  0  0  0
 13 17  1  0  0  0
 14 15  1  0  0  0
 15 16  1  0  0  0
 17 18  1  0  0  0
 17 20  1  0  0  0
 18 19  1  0  0  0
 20 21  1  0  0  0
 20  5  1  0  0  0
 21 22  1  0  0  0
M  END
>  <CHROM.0>
-179.32209985,154.09545143,-67.04392039

>  <CHROM.1>
-176.83649820,159.51305902,-176.87699441,-55.01061723,59.55240078,-58.50655022
175.15945850,-51.61142984,90.11831736,20.01790381,-102.93796244,-1.30166888
1.22908663,1.39423228

>  <Energy>
35.51331594931614

>  <Genealogy>
CC(O)=N[C@H]1[C@@H](OP(=O)([O-])[O-])O[C@H](CO)[C@@H](O)[C@@H]1O (tautomer)
C/C(O)=N\[C@H]1[C@@H](OP(=O)([O-])[O-])O[C@H](CO)[C@@H](O)[C@@H]1O (cis-trans isomerization)
C/C(O)=N\[C@H]1[C@@H](OP(=O)([O-])[O-])O[C@H](CO)[C@@H](O)[C@@H]1O (3D coordinates assigned)
C/C(O)=N\[C@H]1[C@@H](OP(=O)([O-])[O-])O[C@H](CO)[C@@H](O)[C@@H]1O (nonaromatic ring conformer: 35.51331594931614 kcal/mol)

>  <Name>
25243937

>  <RI>
3.95439e+07

>  <Rbt.Current_Directory>
/home/edward/Documentos/Virtual_Screening/rDock/2

>  <Rbt.Executable>
rbdock ($Id: //depot/dev/client3/rdock/2013.1/src/exe/rbdock.cxx#4 $)

>  <Rbt.Library>
libRbt.so (2013.1, Build901 2013/11/27)

>  <Rbt.Parameter_File>
/home/edward/anaconda3/envs/MD/share/rdock-2013.1-1/data/scripts/dock.prm

>  <Rbt.Receptor>
parameters.prm

>  <SCORE>
-22.7978

>  <SCORE.INTER>
-14.06

>  <SCORE.INTER.CONST>
1

>  <SCORE.INTER.POLAR>
-2.95696

>  <SCORE.INTER.REPUL>
0.0413593

>  <SCORE.INTER.ROT>
4

>  <SCORE.INTER.VDW>
-13.6131

>  <SCORE.INTER.norm>
-0.739998

>  <SCORE.INTRA>
-10.4709

>  <SCORE.INTRA.DIHEDRAL>
-6.58931

>  <SCORE.INTRA.DIHEDRAL.0>
9.14062

>  <SCORE.INTRA.POLAR>
-2.3705

>  <SCORE.INTRA.POLAR.0>
0

>  <SCORE.INTRA.REPUL>
0

>  <SCORE.INTRA.REPUL.0>
0

>  <SCORE.INTRA.VDW>
0.883491

>  <SCORE.INTRA.VDW.0>
-3.06425

>  <SCORE.INTRA.norm>
-0.551098

>  <SCORE.RESTR>
0

>  <SCORE.RESTR.CAVITY>
0

>  <SCORE.RESTR.norm>
0

>  <SCORE.SYSTEM>
1.73306

>  <SCORE.SYSTEM.CONST>
0

>  <SCORE.SYSTEM.DIHEDRAL>
3.13894

>  <SCORE.SYSTEM.VDW>
0.163594

>  <SCORE.SYSTEM.norm>
0.0912139

>  <SCORE.heavy>
19

>  <SCORE.norm>
-1.19988

>  <SMILES>
C/C(O)=N\[C@H]1[C@@H](OP(=O)([O-])[O-])O[C@H](CO)[C@@H](O)[C@@H]1O

>  <UniqueID>
68

$$$$
24847493
  rDOCK(R)          3D
libRbt.so/2013.1/901 2013/11/27
 25 25  0  0  0  0  0  0  0  0999 V2000
   90.5293   22.1012 -103.2256 H   0  0  0  0  0  0
   89.7567   22.6614 -103.5620 O   0  0  0  0  0  0
   89.6201   22.9943 -104.9110 C   0  0  0  0  0  0
   88.6166   23.7219 -105.3042 N   0  0  0  0  0  0
   87.5777   24.2645 -104.4258 C   0  0  0  0  0  0
   87.9680   25.6679 -103.9236 C   0  0  0  0  0  0
   89.0820   25.5862 -103.0712 O   0  0  0  0  0  0
   88.8171   25.0230 -102.2977 H   0  0  0  0  0  0
   86.7924   26.2902 -103.1524 C   0  0  0  0  0  0
   87.0875   27.6296 -102.8457 O   0  0  0  0  0  0
   87.1527   28.1158 -103.7087 H   0  0  0  0  0  0
   85.5081   26.2251 -104.0099 C   0  0  0  0  0  0
   84.3094   26.7783 -103.2300 C   0  0  0  0  0  0
   83.9535   25.8816 -102.2142 O   0  0  0  0  0  0
   83.1190   26.2379 -101.8121 H   0  0  0  0  0  0
   85.2172   24.8857 -104.3830 O   0  0  0  0  0  0
   86.2412   24.3323 -105.1937 C   0  0  0  0  0  0
   86.3669   25.0565 -106.3957 O   0  0  0  0  0  0
   87.0776   24.6155 -106.9305 H   0  0  0  0  0  0
   90.6002   22.5569 -105.8729 N   0  0  0  0  0  0
   91.2683   21.3273 -105.7318 N   0  0  0  0  0  0
   91.0107   20.5448 -104.7937 O   0  0  0  0  0  0
   90.9724   23.4227 -106.9940 C   0  0  0  0  0  0
   92.0666   24.3983 -106.5695 C   0  0  0  0  0  0
   91.4706   25.4612 -105.2703 Cl  0  0  0  0  0  0
  1  2  1  0  0  0
  2  3  1  0  0  0
  3  4  2  0  0  0
  3 20  1  0  0  0
  4  5  1  0  0  0
  5  6  1  0  0  0
  6  7  1  0  0  0
  6  9  1  0  0  0
  7  8  1  0  0  0
  9 10  1  0  0  0
  9 12  1  0  0  0
 10 11  1  0  0  0
 12 13  1  0  0  0
 12 16  1  0  0  0
 13 14  1  0  0  0
 14 15  1  0  0  0
 16 17  1  0  0  0
 17 18  1  0  0  0
 17  5  1  0  0  0
 18 19  1  0  0  0
 20 21  1  0  0  0
 20 23  1  0  0  0
 21 22  2  0  0  0
 23 24  1  0  0  0
 24 25  1  0  0  0
M  END
>  <CHROM.0>
179.46761105,153.04324721,56.41160294

>  <CHROM.1>
-179.66758420,90.97294873,-61.21322895,64.69385761,-71.28471651,-173.85749141
57.20965041,2.34550330,85.24152240,-62.23167594,88.45773803,24.56418631,-104.59727252
0.54213074,-0.23668083,-2.91440976

>  <Energy>
32.865848877792

>  <Genealogy>
O=NN(CCCl)C(O)=N[C@@H]1C(O)O[C@@H](CO)[C@H](O)[C@H]1O (tautomer)
O=NN(CCCl)C(O)=N[C@H]1[C@H](O)[C@@H](O)[C@H](CO)O[C@H]1O (chirality)
O=NN(CCCl)/C(O)=N\[C@H]1[C@H](O)[C@@H](O)[C@H](CO)O[C@H]1O (cis-trans isomerization)
O=NN(CCCl)/C(O)=N\[C@H]1[C@H](O)[C@@H](O)[C@H](CO)O[C@H]1O (3D coordinates assigned)
O=NN(CCCl)/C(O)=N\[C@H]1[C@H](O)[C@@H](O)[C@H](CO)O[C@H]1O (nonaromatic ring conformer: 32.865848877792 kcal/mol)

>  <Name>
24847493

>  <RI>
3.95439e+07

>  <Rbt.Current_Directory>
/home/edward/Documentos/Virtual_Screening/rDock/2

>  <Rbt.Executable>
rbdock ($Id: //depot/dev/client3/rdock/2013.1/src/exe/rbdock.cxx#4 $)

>  <Rbt.Library>
libRbt.so (2013.1, Build901 2013/11/27)

>  <Rbt.Parameter_File>
/home/edward/anaconda3/envs/MD/share/rdock-2013.1-1/data/scripts/dock.prm

>  <Rbt.Receptor>
parameters.prm

>  <SCORE>
-18.6783

>  <SCORE.INTER>
-16.9679

>  <SCORE.INTER.CONST>
1

>  <SCORE.INTER.POLAR>
-3.92928

>  <SCORE.INTER.REPUL>
0

>  <SCORE.INTER.ROT>
5

>  <SCORE.INTER.VDW>
-14.0083

>  <SCORE.INTER.norm>
-0.848393

>  <SCORE.INTRA>
-4.14962

>  <SCORE.INTRA.DIHEDRAL>
-7.7794

>  <SCORE.INTRA.DIHEDRAL.0>
12.3823

>  <SCORE.INTRA.POLAR>
-0.0395298

>  <SCORE.INTRA.POLAR.0>
0

>  <SCORE.INTRA.REPUL>
0

>  <SCORE.INTRA.REPUL.0>
0

>  <SCORE.INTRA.VDW>
-0.125513

>  <SCORE.INTRA.VDW.0>
-2.71795

>  <SCORE.INTRA.norm>
-0.207481

>  <SCORE.RESTR>
0

>  <SCORE.RESTR.CAVITY>
0

>  <SCORE.RESTR.norm>
0

>  <SCORE.SYSTEM>
2.43916

>  <SCORE.SYSTEM.CONST>
0

>  <SCORE.SYSTEM.DIHEDRAL>
3.38671

>  <SCORE.SYSTEM.VDW>
0.745804

>  <SCORE.SYSTEM.norm>
0.121958

>  <SCORE.heavy>
20

>  <SCORE.norm>
-0.933915

>  <SMILES>
O=NN(CCCl)/C(O)=N\[C@H]1[C@H](O)[C@@H](O)[C@H](CO)O[C@H]1O

>  <UniqueID>
69

$$$$
24779679
  rDOCK(R)          3D
libRbt.so/2013.1/901 2013/11/27
 26 26  0  0  0  0  0  0  0  0999 V2000
   85.4451   14.6864 -105.3157 H   0  0  0  0  0  0
   86.3355   15.1429 -105.1581 O   0  0  0  0  0  0
   86.8339   15.3276 -103.8687 C   0  0  0  0  0  0
   87.9857   15.8988 -103.6791 N   0  0  0  0  0  0
   88.8361   16.4236 -104.7500 C   0  0  0  0  0  0
   89.2095   17.8950 -104.4742 C   0  0  0  0  0  0
   89.7784   18.0395 -103.1695 O   0  0  0  0  0  0
   90.1634   19.2739 -102.6381 C   0  0  0  0  0  0
   90.5685   19.3597 -101.4460 O   0  0  0  0  0  0
   90.0900   20.4416 -103.4606 N   0  0  0  0  0  0
   89.7621   20.3267 -104.4463 H   0  0  0  0  0  0
   90.4738   21.7604 -102.9551 C   0  0  0  0  0  0
   89.2459   22.6226 -102.6353 C   0  0  0  0  0  0
   89.6349   24.0153 -102.1416 C   0  0  0  0  0  0
   90.0788   18.3995 -105.4771 O   0  0  0  0  0  0
   91.3141   17.7002 -105.5057 C   0  0  0  0  0  0
   92.2184   18.3896 -106.5413 C   0  0  0  0  0  0
   92.3847   19.7510 -106.2482 O   0  0  0  0  0  0
   92.7851   19.8000 -105.3410 H   0  0  0  0  0  0
   91.0848   16.2073 -105.8602 C   0  0  0  0  0  0
   92.2959   15.4922 -105.8852 O   0  0  0  0  0  0
   92.8655   15.8900 -106.5949 H   0  0  0  0  0  0
   90.1052   15.5680 -104.8567 C   0  0  0  0  0  0
   89.7570   14.2754 -105.2823 O   0  0  0  0  0  0
   89.1979   13.8768 -104.5652 H   0  0  0  0  0  0
   86.0578   14.8289 -102.6929 C   0  0  0  0  0  0
  1  2  1  0  0  0
  2  3  1  0  0  0
  3  4  2  0  0  0
  3 26  1  0  0  0
  4  5  1  0  0  0
  5  6  1  0  0  0
  6  7  1  0  0  0
  6 15  1  0  0  0
  7  8  1  0  0  0
  8  9  2  0  0  0
  8 10  1  0  0  0
 10 11  1  0  0  0
 10 12  1  0  0  0
 12 13  1  0  0  0
 13 14  1  0  0  0
 15 16  1  0  0  0
 16 17  1  0  0  0
 16 20  1  0  0  0
 17 18  1  0  0  0
 18 19  1  0  0  0
 20 21  1  0  0  0
 20 23  1  0  0  0
 21 22  1  0  0  0
 23 24  1  0  0  0
 23  5  1  0  0  0
 24 25  1  0  0  0
M  END
>  <CHROM.0>
-178.12853082,153.22217061,52.97022052

>  <CHROM.1>
179.08908222,126.66080461,-177.62617355,174.75450620,-103.67112389,-178.48353688
56.47510916,58.94024904,-61.90083692,-64.59208768,89.75777352,17.93108479
-104.24862130,1.87702784,-0.55699907,-2.72318788

>  <Energy>
29.194772262382738

>  <Genealogy>
CCCNC(=O)O[C@H]1O[C@H](CO)[C@@H](O)[C@H](O)[C@H]1N=C(C)O (tautomer)
CCCNC(=O)O[C@H]1O[C@H](CO)[C@@H](O)[C@H](O)[C@H]1/N=C(\C)O (cis-trans isomerization)
CCCNC(=O)O[C@H]1O[C@H](CO)[C@@H](O)[C@H](O)[C@H]1/N=C(\C)O (3D coordinates assigned)
CCCNC(=O)O[C@H]1O[C@H](CO)[C@@H](O)[C@H](O)[C@H]1/N=C(\C)O (nonaromatic ring conformer: 29.194772262382738 kcal/mol)

>  <Name>
24779679

>  <RI>
3.95439e+07

>  <Rbt.Current_Directory>
/home/edward/Documentos/Virtual_Screening/rDock/2

>  <Rbt.Executable>
rbdock ($Id: //depot/dev/client3/rdock/2013.1/src/exe/rbdock.cxx#4 $)

>  <Rbt.Library>
libRbt.so (2013.1, Build901 2013/11/27)

>  <Rbt.Parameter_File>
/home/edward/anaconda3/envs/MD/share/rdock-2013.1-1/data/scripts/dock.prm

>  <Rbt.Receptor>
parameters.prm

>  <SCORE>
-15.7194

>  <SCORE.INTER>
-13.9891

>  <SCORE.INTER.CONST>
1

>  <SCORE.INTER.POLAR>
-2.88234

>  <SCORE.INTER.REPUL>
0.0924654

>  <SCORE.INTER.ROT>
6

>  <SCORE.INTER.VDW>
-16.0515

>  <SCORE.INTER.norm>
-0.666146

>  <SCORE.INTRA>
-4.13174

>  <SCORE.INTRA.DIHEDRAL>
-5.29629

>  <SCORE.INTRA.DIHEDRAL.0>
7.08163

>  <SCORE.INTRA.POLAR>
-0.275365

>  <SCORE.INTRA.POLAR.0>
0

>  <SCORE.INTRA.REPUL>
0

>  <SCORE.INTRA.REPUL.0>
0

>  <SCORE.INTRA.VDW>
-0.547353

>  <SCORE.INTRA.VDW.0>
-1.92311

>  <SCORE.INTRA.norm>
-0.19675

>  <SCORE.RESTR>
0

>  <SCORE.RESTR.CAVITY>
0

>  <SCORE.RESTR.norm>
0

>  <SCORE.SYSTEM>
2.40137

>  <SCORE.SYSTEM.CONST>
0

>  <SCORE.SYSTEM.DIHEDRAL>
3.3152

>  <SCORE.SYSTEM.VDW>
0.74377

>  <SCORE.SYSTEM.norm>
0.114351

>  <SCORE.heavy>
21

>  <SCORE.norm>
-0.748545

>  <SMILES>
CCCNC(=O)O[C@H]1O[C@H](CO)[C@@H](O)[C@H](O)[C@H]1/N=C(\C)O

>  <UniqueID>
72

$$$$
22833605
  rDOCK(R)          3D
libRbt.so/2013.1/901 2013/11/27
 23 23  0  0  0  0  0  0  0  0999 V2000
   90.5665   20.4809 -103.2096 C   0  0  0  0  0  0
   89.9173   19.2779 -102.5216 C   0  0  0  0  0  0
   90.3989   18.0707 -103.0899 O   0  0  0  0  0  0
   89.9683   17.8937 -104.4343 C   0  0  0  0  0  0
   88.4992   17.4236 -104.4598 C   0  0  0  0  0  0
   87.7051   18.3177 -103.7209 O   0  0  0  0  0  0
   88.3934   15.9929 -103.8719 C   0  0  0  0  0  0
   86.9463   15.4741 -103.8917 C   0  0  0  0  0  0
   86.4824   15.3092 -105.2057 O   0  0  0  0  0  0
   89.2042   15.0925 -104.6085 O   0  0  0  0  0  0
   90.5759   15.4338 -104.4879 C   0  0  0  0  0  0
   91.3501   14.4504 -105.1232 O   0  0  0  0  0  0
   90.8509   16.8239 -105.1169 C   0  0  0  0  0  0
   92.2748   17.1756 -105.0272 N   0  3  0  0  0  0
   90.2616   19.2899 -101.0625 C   0  0  0  0  0  0
   91.3232   18.7485 -100.6537 O   0  0  0  0  0  0
   89.4282   19.9343 -100.1568 O   0  5  0  0  0  0
   87.7150   19.1863 -104.2013 H   0  0  0  0  0  0
   86.9279   14.4991 -105.5669 H   0  0  0  0  0  0
   91.3497   13.6513 -104.5335 H   0  0  0  0  0  0
   92.4761   17.6089 -104.0971 H   0  0  0  0  0  0
   92.8592   16.3126 -105.1110 H   0  0  0  0  0  0
   92.5417   17.8499 -105.7809 H   0  0  0  0  0  0
  1  2  1  0  0  0
  2  3  1  0  0  0
  2 15  1  0  0  0
  3  4  1  0  0  0
  4  5  1  0  0  0
  5  6  1  0  0  0
  5  7  1  0  0  0
  6 18  1  0  0  0
  7  8  1  0  0  0
  7 10  1  0  0  0
  8  9  1  0  0  0
  9 19  1  0  0  0
 10 11  1  0  0  0
 11 12  1  0  0  0
 11 13  1  0  0  0
 12 20  1  0  0  0
 13 14  1  0  0  0
 13  4  1  0  0  0
 14 21  1  0  0  0
 14 22  1  0  0  0
 14 23  1  0  0  0
 15 16  2  0  0  0
 15 17  1  0  0  0
M  END
>  <CHROM.0>
-175.49449375,152.58318486,-66.97265563

>  <CHROM.1>
-67.62894471,-86.99663209,-77.50922885,65.88344852,65.51218255,73.93059197
-74.61017297,37.86829627,89.66365103,17.33340457,-103.58443914,-1.30583883
-0.09476917,-2.44173959

>  <Energy>
32.414199419992485

>  <Genealogy>
C[C@@H](O[C@@H]1[C@H](O)[C@@H](CO)O[C@@H](O)[C@@H]1[NH3+])C(=O)[O-] (protonated)
C[C@@H](O[C@@H]1[C@H](O)[C@@H](CO)O[C@@H](O)[C@@H]1[NH3+])C(=O)[O-] (3D coordinates assigned)
C[C@@H](O[C@@H]1[C@H](O)[C@@H](CO)O[C@@H](O)[C@@H]1[NH3+])C(=O)[O-] (nonaromatic ring conformer: 32.414199419992485 kcal/mol)

>  <Name>
22833605

>  <RI>
3.95439e+07

>  <Rbt.Current_Directory>
/home/edward/Documentos/Virtual_Screening/rDock/2

>  <Rbt.Executable>
rbdock ($Id: //depot/dev/client3/rdock/2013.1/src/exe/rbdock.cxx#4 $)

>  <Rbt.Library>
libRbt.so (2013.1, Build901 2013/11/27)

>  <Rbt.Parameter_File>
/home/edward/anaconda3/envs/MD/share/rdock-2013.1-1/data/scripts/dock.prm

>  <Rbt.Receptor>
parameters.prm

>  <SCORE>
-21.8807

>  <SCORE.INTER>
-20.5796

>  <SCORE.INTER.CONST>
1

>  <SCORE.INTER.POLAR>
-4.93786

>  <SCORE.INTER.REPUL>
0.361462

>  <SCORE.INTER.ROT>
4

>  <SCORE.INTER.VDW>
-14.9982

>  <SCORE.INTER.norm>
-1.21056

>  <SCORE.INTRA>
-3.09289

>  <SCORE.INTRA.DIHEDRAL>
-10.3563

>  <SCORE.INTRA.DIHEDRAL.0>
16.43

>  <SCORE.INTRA.POLAR>
-0.0873617

>  <SCORE.INTRA.POLAR.0>
0

>  <SCORE.INTRA.REPUL>
0

>  <SCORE.INTRA.REPUL.0>
0

>  <SCORE.INTRA.VDW>
2.38229

>  <SCORE.INTRA.VDW.0>
-2.37801

>  <SCORE.INTRA.norm>
-0.181935

>  <SCORE.RESTR>
0

>  <SCORE.RESTR.CAVITY>
0

>  <SCORE.RESTR.norm>
0

>  <SCORE.SYSTEM>
1.79172

>  <SCORE.SYSTEM.CONST>
0

>  <SCORE.SYSTEM.DIHEDRAL>
3.51687

>  <SCORE.SYSTEM.VDW>
0.0332833

>  <SCORE.SYSTEM.norm>
0.105395

>  <SCORE.heavy>
17

>  <SCORE.norm>
-1.2871

>  <SMILES>
C[C@@H](O[C@@H]1[C@H](O)[C@@H](CO)O[C@@H](O)[C@@H]1[NH3+])C(=O)[O-]

>  <UniqueID>
74

$$$$
16738680
  rDOCK(R)          3D
libRbt.so/2013.1/901 2013/11/27
 24 24  0  0  0  0  0  0  0  0999 V2000
   85.8550   19.9826 -103.3565 H   0  0  0  0  0  0
   86.0126   19.5073 -102.4756 O   0  0  0  0  0  0
   86.8986   18.4377 -102.3840 C   0  0  0  0  0  0
   87.5820   18.0906 -103.4382 N   0  0  0  0  0  0
   88.5531   16.9959 -103.5408 C   0  0  0  0  0  0
   88.1620   16.0580 -104.6993 C   0  0  0  0  0  0
   86.9084   15.4921 -104.4316 O   0  0  0  0  0  0
   86.8051   14.7290 -105.0581 H   0  0  0  0  0  0
   89.1142   15.0162 -104.8286 O   0  0  0  0  0  0
   90.3734   15.5369 -105.2210 C   0  0  0  0  0  0
   91.3151   14.3610 -105.5054 C   0  0  0  0  0  0
   92.4799   14.8297 -106.1267 O   0  0  0  0  0  0
   92.9152   14.0349 -106.5317 H   0  0  0  0  0  0
   90.9444   16.4466 -104.1067 C   0  0  0  0  0  0
   92.1660   17.0095 -104.5163 O   0  0  0  0  0  0
   92.7735   16.2587 -104.7455 H   0  0  0  0  0  0
   89.9536   17.5819 -103.8016 C   0  0  0  0  0  0
   90.4020   18.2687 -102.6416 O   0  0  0  0  0  0
   89.8210   19.5562 -102.5180 C   0  0  0  0  0  0
   90.1089   20.0747 -101.1413 C   0  0  0  0  0  0
   89.2416   20.7454 -100.5216 O   0  0  0  0  0  0
   91.3474   19.8459 -100.5535 O   0  5  0  0  0  0
   90.4242   20.5039 -103.5572 C   0  0  0  0  0  0
   87.0462   17.7460 -101.0609 C   0  0  0  0  0  0
  1  2  1  0  0  0
  2  3  1  0  0  0
  3  4  2  0  0  0
  3 24  1  0  0  0
  4  5  1  0  0  0
  5  6  1  0  0  0
  6  7  1  0  0  0
  6  9  1  0  0  0
  7  8  1  0  0  0
  9 10  1  0  0  0
 10 11  1  0  0  0
 10 14  1  0  0  0
 11 12  1  0  0  0
 12 13  1  0  0  0
 14 15  1  0  0  0
 14 17  1  0  0  0
 15 16  1  0  0  0
 17 18  1  0  0  0
 17  5  1  0  0  0
 18 19  1  0  0  0
 19 20  1  0  0  0
 19 23  1  0  0  0
 20 21  2  0  0  0
 20 22  1  0  0  0
M  END
>  <CHROM.0>
-177.87710544,154.07431662,52.26632115

>  <CHROM.1>
3.42360541,125.21139990,-165.18636433,169.21776594,-163.14721098,-57.03583321
-78.85721989,167.79111894,-142.43142712,89.46333311,17.58527248,-103.37194304
1.91777143,0.11170226,0.65259784

>  <Energy>
33.798908469328566

>  <Genealogy>
CC(O)=N[C@H]1C(O)O[C@H](CO)[C@@H](O)[C@@H]1O[C@H](C)C(=O)[O-] (tautomer)
CC(O)=N[C@H]1[C@H](O)O[C@H](CO)[C@@H](O)[C@@H]1O[C@H](C)C(=O)[O-] (chirality)
C/C(O)=N\[C@H]1[C@H](O)O[C@H](CO)[C@@H](O)[C@@H]1O[C@H](C)C(=O)[O-] (cis-trans isomerization)
C/C(O)=N\[C@H]1[C@H](O)O[C@H](CO)[C@@H](O)[C@@H]1O[C@H](C)C(=O)[O-] (3D coordinates assigned)
C/C(O)=N\[C@H]1[C@H](O)O[C@H](CO)[C@@H](O)[C@@H]1O[C@H](C)C(=O)[O-] (nonaromatic ring conformer: 33.798908469328566 kcal/mol)

>  <Name>
16738680

>  <RI>
3.95439e+07

>  <Rbt.Current_Directory>
/home/edward/Documentos/Virtual_Screening/rDock/2

>  <Rbt.Executable>
rbdock ($Id: //depot/dev/client3/rdock/2013.1/src/exe/rbdock.cxx#4 $)

>  <Rbt.Library>
libRbt.so (2013.1, Build901 2013/11/27)

>  <Rbt.Parameter_File>
/home/edward/anaconda3/envs/MD/share/rdock-2013.1-1/data/scripts/dock.prm

>  <Rbt.Receptor>
parameters.prm

>  <SCORE>
-21.1071

>  <SCORE.INTER>
-18.4615

>  <SCORE.INTER.CONST>
1

>  <SCORE.INTER.POLAR>
-3.90832

>  <SCORE.INTER.REPUL>
0.151274

>  <SCORE.INTER.ROT>
5

>  <SCORE.INTER.VDW>
-16.3296

>  <SCORE.INTER.norm>
-0.923077

>  <SCORE.INTRA>
-5.10878

>  <SCORE.INTRA.DIHEDRAL>
-9.67043

>  <SCORE.INTRA.DIHEDRAL.0>
15.9241

>  <SCORE.INTRA.POLAR>
-0.547863

>  <SCORE.INTRA.POLAR.0>
0

>  <SCORE.INTRA.REPUL>
0

>  <SCORE.INTRA.REPUL.0>
0

>  <SCORE.INTRA.VDW>
1.58917

>  <SCORE.INTRA.VDW.0>
-3.21006

>  <SCORE.INTRA.norm>
-0.255439

>  <SCORE.RESTR>
0.0651646

>  <SCORE.RESTR.CAVITY>
0.0651646

>  <SCORE.RESTR.norm>
0.00325823

>  <SCORE.SYSTEM>
2.39805

>  <SCORE.SYSTEM.CONST>
0

>  <SCORE.SYSTEM.DIHEDRAL>
3.15776

>  <SCORE.SYSTEM.VDW>
0.819174

>  <SCORE.SYSTEM.norm>
0.119903

>  <SCORE.heavy>
20

>  <SCORE.norm>
-1.05535

>  <SMILES>
C/C(O)=N\[C@H]1[C@H](O)O[C@H](CO)[C@@H](O)[C@@H]1O[C@H](C)C(=O)[O-]

>  <UniqueID>
76

$$$$
12917651
  rDOCK(R)          3D
libRbt.so/2013.1/901 2013/11/27
 24 24  0  0  0  0  0  0  0  0999 V2000
   90.4594   16.0827 -103.9733 C   0  0  0  0  0  0
   91.1461   17.3450 -104.3837 C   0  0  0  0  0  0
   92.4431   17.2894 -104.8905 O   0  0  0  0  0  0
   90.5032   18.4738 -104.2999 N   0  0  0  0  0  0
   90.9953   19.8069 -104.6720 C   0  0  0  0  0  0
   90.8159   20.0909 -106.1819 C   0  0  0  0  0  0
   91.4436   19.0885 -106.9378 O   0  0  0  0  0  0
   91.3766   21.3499 -106.5151 O   0  0  0  0  0  0
   90.6753   22.3961 -105.8617 C   0  0  0  0  0  0
   91.2097   23.7349 -106.3839 C   0  0  0  0  0  0
   90.3866   24.7770 -105.9378 O   0  0  0  0  0  0
   90.8581   22.2933 -104.3279 C   0  0  0  0  0  0
   90.1401   23.3230 -103.6967 O   0  0  0  0  0  0
   90.3532   20.9263 -103.8243 C   0  0  0  0  0  0
   90.7451   20.7724 -102.4671 O   0  0  0  0  0  0
   90.1836   19.6166 -101.8675 C   0  0  0  0  0  0
   88.7481   19.8989 -101.4181 C   0  0  0  0  0  0
   91.0160   19.2498 -100.6762 C   0  0  0  0  0  0
   91.2419   18.0402 -100.4080 O   0  0  0  0  0  0
   91.5147   20.2418  -99.8404 O   0  5  0  0  0  0
   92.9657   16.4219 -104.9030 H   0  0  0  0  0  0
   91.3707   19.3516 -107.8927 H   0  0  0  0  0  0
   90.3159   24.6703 -104.9537 H   0  0  0  0  0  0
   90.3433   23.2635 -102.7268 H   0  0  0  0  0  0
  1  2  1  0  0  0
  2  3  1  0  0  0
  2  4  2  0  0  0
  3 21  1  0  0  0
  4  5  1  0  0  0
  5  6  1  0  0  0
  6  7  1  0  0  0
  6  8  1  0  0  0
  7 22  1  0  0  0
  8  9  1  0  0  0
  9 10  1  0  0  0
  9 12  1  0  0  0
 10 11  1  0  0  0
 11 23  1  0  0  0
 12 13  1  0  0  0
 12 14  1  0  0  0
 13 24  1  0  0  0
 14 15  1  0  0  0
 14  5  1  0  0  0
 15 16  1  0  0  0
 16 17  1  0  0  0
 16 18  1  0  0  0
 18 19  2  0  0  0
 18 20  1  0  0  0
M  END
>  <CHROM.0>
-178.47448802,160.26198404,-66.25954176

>  <CHROM.1>
-6.04590752,84.29005215,-175.24162416,169.77197290,52.56946216,-175.56137059
-68.39088941,-81.35273168,-141.66179387,90.82904548,20.26803289,-103.93951891
-1.45597048,1.38994334,-0.79301016

>  <Energy>
33.394224934245315

>  <Genealogy>
CC(=O)N[C@H]1[C@H](O)O[C@H](CO)[C@@H](O)[C@@H]1O[C@H](C)C(=O)[O-] (protonated)
CC(O)=N[C@H]1[C@H](O)O[C@H](CO)[C@@H](O)[C@@H]1O[C@H](C)C(=O)[O-] (tautomer)
CC(O)=N[C@H]1[C@H](O)O[C@H](CO)[C@@H](O)[C@@H]1O[C@H](C)C(=O)[O-] (3D coordinates assigned)
CC(O)=N[C@H]1[C@H](O)O[C@H](CO)[C@@H](O)[C@@H]1O[C@H](C)C(=O)[O-] (nonaromatic ring conformer: 33.394224934245315 kcal/mol)

>  <Name>
12917651

>  <RI>
3.95439e+07

>  <Rbt.Current_Directory>
/home/edward/Documentos/Virtual_Screening/rDock/2

>  <Rbt.Executable>
rbdock ($Id: //depot/dev/client3/rdock/2013.1/src/exe/rbdock.cxx#4 $)

>  <Rbt.Library>
libRbt.so (2013.1, Build901 2013/11/27)

>  <Rbt.Parameter_File>
/home/edward/anaconda3/envs/MD/share/rdock-2013.1-1/data/scripts/dock.prm

>  <Rbt.Receptor>
parameters.prm

>  <SCORE>
-16.8111

>  <SCORE.INTER>
-13.3761

>  <SCORE.INTER.CONST>
1

>  <SCORE.INTER.POLAR>
-2.84376

>  <SCORE.INTER.REPUL>
0.119507

>  <SCORE.INTER.ROT>
5

>  <SCORE.INTER.VDW>
-14.7049

>  <SCORE.INTER.norm>
-0.668806

>  <SCORE.INTRA>
-5.41456

>  <SCORE.INTRA.DIHEDRAL>
-9.80238

>  <SCORE.INTRA.DIHEDRAL.0>
15.7784

>  <SCORE.INTRA.POLAR>
-0.78648

>  <SCORE.INTRA.POLAR.0>
0

>  <SCORE.INTRA.REPUL>
0

>  <SCORE.INTRA.REPUL.0>
0

>  <SCORE.INTRA.VDW>
2.16066

>  <SCORE.INTRA.VDW.0>
-3.07339

>  <SCORE.INTRA.norm>
-0.270728

>  <SCORE.RESTR>
0

>  <SCORE.RESTR.CAVITY>
0

>  <SCORE.RESTR.norm>
0

>  <SCORE.SYSTEM>
1.97961

>  <SCORE.SYSTEM.CONST>
0

>  <SCORE.SYSTEM.DIHEDRAL>
2.08269

>  <SCORE.SYSTEM.VDW>
0.938266

>  <SCORE.SYSTEM.norm>
0.0989804

>  <SCORE.heavy>
20

>  <SCORE.norm>
-0.840554

>  <SMILES>
CC(O)=N[C@H]1[C@H](O)O[C@H](CO)[C@@H](O)[C@@H]1O[C@H](C)C(=O)[O-]

>  <UniqueID>
78

$$$$
12600646
  rDOCK(R)          3D
libRbt.so/2013.1/901 2013/11/27
 26 26  0  0  0  0  0  0  0  0999 V2000
   92.7860   19.7869 -105.5475 H   0  0  0  0  0  0
   91.8599   20.1879 -105.6229 O   0  0  0  0  0  0
   90.8303   19.6929 -104.8530 N   0  0  0  0  0  0
   90.2580   18.5805 -105.1135 N   0  3  0  0  0  0
   89.1805   18.1548 -104.2538 C   0  0  0  0  0  0
   89.0279   18.7162 -103.1334 O   0  0  0  0  0  0
   88.2691   17.1155 -104.6532 N   0  0  0  0  0  0
   88.2465   16.8088 -105.6504 H   0  0  0  0  0  0
   87.2168   16.6161 -103.7619 C   0  0  0  0  0  0
   85.9690   16.2192 -104.5751 C   0  0  0  0  0  0
   86.3019   15.3158 -105.6004 O   0  0  0  0  0  0
   86.6224   14.4905 -105.1520 H   0  0  0  0  0  0
   84.9535   15.6910 -103.7333 O   0  0  0  0  0  0
   85.3784   14.5077 -103.0710 C   0  0  0  0  0  0
   84.1831   13.9309 -102.3009 C   0  0  0  0  0  0
   83.6502   14.8926 -101.4317 O   0  0  0  0  0  0
   83.3737   15.6560 -102.0022 H   0  0  0  0  0  0
   86.5755   14.7981 -102.1317 C   0  0  0  0  0  0
   87.0266   13.6086 -101.5337 O   0  0  0  0  0  0
   87.3044   12.9994 -102.2667 H   0  0  0  0  0  0
   87.7255   15.4097 -102.9491 C   0  0  0  0  0  0
   88.7946   15.7804 -102.1133 O   0  0  0  0  0  0
   89.0801   14.9733 -101.6101 H   0  0  0  0  0  0
   90.6863   17.7702 -106.2657 C   0  0  0  0  0  0
   91.5839   16.6211 -105.8090 C   0  0  0  0  0  0
   90.6050   15.3472 -105.0399 Cl  0  0  0  0  0  0
  1  2  1  0  0  0
  2  3  1  0  0  0
  3  4  2  0  0  0
  4  5  1  0  0  0
  4 24  1  0  0  0
  5  6  2  0  0  0
  5  7  1  0  0  0
  7  8  1  0  0  0
  7  9  1  0  0  0
  9 10  1  0  0  0
 10 11  1  0  0  0
 10 13  1  0  0  0
 11 12  1  0  0  0
 13 14  1  0  0  0
 14 15  1  0  0  0
 14 18  1  0  0  0
 15 16  1  0  0  0
 16 17  1  0  0  0
 18 19  1  0  0  0
 18 21  1  0  0  0
 19 20  1  0  0  0
 21 22  1  0  0  0
 21  9  1  0  0  0
 22 23  1  0  0  0
 24 25  1  0  0  0
 25 26  1  0  0  0
M  END
>  <CHROM.0>
-178.16863880,156.19015290,-66.10388500

>  <CHROM.1>
-75.23840407,100.88321798,146.25879794,64.44627522,-55.35003126,59.45102618
59.93220491,179.64802280,75.17816107,88.16630974,16.35796115,-103.95276793
0.58646156,0.34908758,-0.17744348

>  <Energy>
32.661275582121945

>  <Genealogy>
O=N[NH+](CCCl)C(=O)N[C@H]1C(O)O[C@H](CO)[C@@H](O)[C@@H]1O (protonated)
O=C(N[C@H]1C(O)O[C@H](CO)[C@@H](O)[C@@H]1O)[N+](CCCl)=NO (tautomer)
O=C(N[C@H]1[C@@H](O)O[C@H](CO)[C@@H](O)[C@@H]1O)[N+](CCCl)=NO (chirality)
O=C(N[C@H]1[C@@H](O)O[C@H](CO)[C@@H](O)[C@@H]1O)/[N+](CCCl)=N\O (cis-trans isomerization)
O=C(N[C@H]1[C@@H](O)O[C@H](CO)[C@@H](O)[C@@H]1O)/[N+](CCCl)=N\O (3D coordinates assigned)
O=C(N[C@H]1[C@@H](O)O[C@H](CO)[C@@H](O)[C@@H]1O)/[N+](CCCl)=N\O (nonaromatic ring conformer: 32.661275582121945 kcal/mol)

>  <Name>
12600646

>  <RI>
3.95439e+07

>  <Rbt.Current_Directory>
/home/edward/Documentos/Virtual_Screening/rDock/2

>  <Rbt.Executable>
rbdock ($Id: //depot/dev/client3/rdock/2013.1/src/exe/rbdock.cxx#4 $)

>  <Rbt.Library>
libRbt.so (2013.1, Build901 2013/11/27)

>  <Rbt.Parameter_File>
/home/edward/anaconda3/envs/MD/share/rdock-2013.1-1/data/scripts/dock.prm

>  <Rbt.Receptor>
parameters.prm

>  <SCORE>
-25.8674

>  <SCORE.INTER>
-23.1876

>  <SCORE.INTER.CONST>
1

>  <SCORE.INTER.POLAR>
-5.33478

>  <SCORE.INTER.REPUL>
0.00929853

>  <SCORE.INTER.ROT>
4

>  <SCORE.INTER.VDW>
-14.4958

>  <SCORE.INTER.norm>
-1.15938

>  <SCORE.INTRA>
-4.47771

>  <SCORE.INTRA.DIHEDRAL>
-4.98931

>  <SCORE.INTRA.DIHEDRAL.0>
10.1012

>  <SCORE.INTRA.POLAR>
-0.451583

>  <SCORE.INTRA.POLAR.0>
0

>  <SCORE.INTRA.REPUL>
0

>  <SCORE.INTRA.REPUL.0>
0

>  <SCORE.INTRA.VDW>
-0.447667

>  <SCORE.INTRA.VDW.0>
-2.33703

>  <SCORE.INTRA.norm>
-0.223885

>  <SCORE.RESTR>
0

>  <SCORE.RESTR.CAVITY>
0

>  <SCORE.RESTR.norm>
0

>  <SCORE.SYSTEM>
1.79789

>  <SCORE.SYSTEM.CONST>
0

>  <SCORE.SYSTEM.DIHEDRAL>
2.78382

>  <SCORE.SYSTEM.VDW>
0.405979

>  <SCORE.SYSTEM.norm>
0.0898945

>  <SCORE.heavy>
20

>  <SCORE.norm>
-1.29337

>  <SMILES>
O=C(N[C@H]1[C@@H](O)O[C@H](CO)[C@@H](O)[C@@H]1O)/[N+](CCCl)=N\O

>  <UniqueID>
79

$$$$
12302999
  rDOCK(R)          3D
libRbt.so/2013.1/901 2013/11/27
 19 19  0  0  0  0  0  0  0  0999 V2000
   92.6483   17.1775 -104.7275 N   0  3  0  0  0  0
   91.7008   17.2416 -105.8525 C   0  0  0  0  0  0
   90.6393   18.3416 -105.6039 C   0  0  0  0  0  0
   89.9012   18.6124 -106.7714 O   0  0  0  0  0  0
   89.7750   17.9909 -104.5338 O   0  0  0  0  0  0
   89.0221   16.8216 -104.8235 C   0  0  0  0  0  0
   88.0411   16.5797 -103.6668 C   0  0  0  0  0  0
   87.0423   15.6743 -104.0527 O   0  0  0  0  0  0
   89.9523   15.5961 -105.0112 C   0  0  0  0  0  0
   89.2121   14.4433 -105.3326 O   0  0  0  0  0  0
   91.0015   15.8860 -106.1044 C   0  0  0  0  0  0
   91.9510   14.8519 -106.1602 O   0  0  0  0  0  0
   92.1206   17.0583 -103.8324 H   0  0  0  0  0  0
   93.3099   16.3754 -104.8326 H   0  0  0  0  0  0
   93.1909   18.0679 -104.6557 H   0  0  0  0  0  0
   89.5044   17.7519 -107.0678 H   0  0  0  0  0  0
   87.5069   14.8840 -104.4340 H   0  0  0  0  0  0
   89.8141   13.6598 -105.2332 H   0  0  0  0  0  0
   92.5580   15.0566 -106.9187 H   0  0  0  0  0  0
  1  2  1  0  0  0
  1 13  1  0  0  0
  1 14  1  0  0  0
  1 15  1  0  0  0
  2  3  1  0  0  0
  3  4  1  0  0  0
  3  5  1  0  0  0
  4 16  1  0  0  0
  5  6  1  0  0  0
  6  7  1  0  0  0
  6  9  1  0  0  0
  7  8  1  0  0  0
  8 17  1  0  0  0
  9 10  1  0  0  0
  9 11  1  0  0  0
 10 18  1  0  0  0
 11 12  1  0  0  0
 11  2  1  0  0  0
 12 19  1  0  0  0
M  END
>  <CHROM.0>
-73.30514250,153.83152147,-67.97661940

>  <CHROM.1>
54.00847129,56.28134461,164.05588965,51.17124791,-166.99728833,-61.08668209
90.07739536,16.56193376,-105.22349608,-0.27020531,-0.35659848,3.11828397

>  <Energy>
25.94777900450287

>  <Genealogy>
[NH3+][C@@H]1[C@@H](O)O[C@H](CO)[C@@H](O)[C@@H]1O (protonated)
[NH3+][C@@H]1[C@@H](O)O[C@H](CO)[C@@H](O)[C@@H]1O (3D coordinates assigned)
[NH3+][C@@H]1[C@@H](O)O[C@H](CO)[C@@H](O)[C@@H]1O (nonaromatic ring conformer: 25.94777900450287 kcal/mol)

>  <Name>
12302999

>  <RI>
3.95439e+07

>  <Rbt.Current_Directory>
/home/edward/Documentos/Virtual_Screening/rDock/2

>  <Rbt.Executable>
rbdock ($Id: //depot/dev/client3/rdock/2013.1/src/exe/rbdock.cxx#4 $)

>  <Rbt.Library>
libRbt.so (2013.1, Build901 2013/11/27)

>  <Rbt.Parameter_File>
/home/edward/anaconda3/envs/MD/share/rdock-2013.1-1/data/scripts/dock.prm

>  <Rbt.Receptor>
parameters.prm

>  <SCORE>
-16.8338

>  <SCORE.INTER>
-17.4018

>  <SCORE.INTER.CONST>
1

>  <SCORE.INTER.POLAR>
-3.9756

>  <SCORE.INTER.REPUL>
0.118439

>  <SCORE.INTER.ROT>
1

>  <SCORE.INTER.VDW>
-10.877

>  <SCORE.INTER.norm>
-1.45015

>  <SCORE.INTRA>
-2.71578

>  <SCORE.INTRA.DIHEDRAL>
-1.42431

>  <SCORE.INTRA.DIHEDRAL.0>
3.7498

>  <SCORE.INTRA.POLAR>
-0.781445

>  <SCORE.INTRA.POLAR.0>
0

>  <SCORE.INTRA.REPUL>
0

>  <SCORE.INTRA.REPUL.0>
0

>  <SCORE.INTRA.VDW>
0.653284

>  <SCORE.INTRA.VDW.0>
-0.995224

>  <SCORE.INTRA.norm>
-0.226315

>  <SCORE.RESTR>
0.0196421

>  <SCORE.RESTR.CAVITY>
0.0196421

>  <SCORE.RESTR.norm>
0.00163685

>  <SCORE.SYSTEM>
3.26414

>  <SCORE.SYSTEM.CONST>
0

>  <SCORE.SYSTEM.DIHEDRAL>
4.01774

>  <SCORE.SYSTEM.VDW>
1.25527

>  <SCORE.SYSTEM.norm>
0.272012

>  <SCORE.heavy>
12

>  <SCORE.norm>
-1.40282

>  <SMILES>
[NH3+][C@@H]1[C@@H](O)O[C@H](CO)[C@@H](O)[C@@H]1O

>  <UniqueID>
82

$$$$
11908605
  rDOCK(R)          3D
libRbt.so/2013.1/901 2013/11/27
 20 20  0  0  0  0  0  0  0  0999 V2000
   90.1881   17.5986 -104.6391 C   0  0  0  0  0  0
   89.1609   16.7996 -103.9058 C   0  0  0  0  0  0
   89.5188   15.8021 -103.2225 O   0  0  0  0  0  0
   87.7739   17.1496 -104.0108 N   0  0  0  0  0  0
   86.7220   16.4187 -103.2911 C   0  0  0  0  0  0
   86.2830   17.2036 -102.0397 C   0  0  0  0  0  0
   85.5065   16.3638 -101.2205 O   0  0  0  0  0  0
   85.4753   18.4515 -102.4492 C   0  0  0  0  0  0
   84.9319   19.0515 -101.2992 O   0  0  0  0  0  0
   84.3509   18.0550 -103.4381 C   0  0  0  0  0  0
   83.5804   19.2945 -103.9172 C   0  0  0  0  0  0
   82.6639   18.9445 -104.9192 O   0  0  0  0  0  0
   84.9004   17.4048 -104.5734 O   0  0  0  0  0  0
   85.4983   16.1743 -104.2065 C   0  0  0  0  0  0
   85.9030   15.5116 -105.3753 O   0  0  0  0  0  0
   87.5139   17.9432 -104.6400 H   0  0  0  0  0  0
   84.7301   16.0639 -101.7619 H   0  0  0  0  0  0
   84.5056   19.9016 -101.5840 H   0  0  0  0  0  0
   82.1221   19.7555 -105.1048 H   0  0  0  0  0  0
   86.2703   14.6323 -105.0959 H   0  0  0  0  0  0
  1  2  1  0  0  0
  2  3  2  0  0  0
  2  4  1  0  0  0
  4  5  1  0  0  0
  4 16  1  0  0  0
  5  6  1  0  0  0
  6  7  1  0  0  0
  6  8  1  0  0  0
  7 17  1  0  0  0
  8  9  1  0  0  0
  8 10  1  0  0  0
  9 18  1  0  0  0
 10 11  1  0  0  0
 10 13  1  0  0  0
 11 12  1  0  0  0
 12 19  1  0  0  0
 13 14  1  0  0  0
 14 15  1  0  0  0
 14  5  1  0  0  0
 15 20  1  0  0  0
M  END
>  <CHROM.0>
-179.90570468,154.40599437,54.72079653

>  <CHROM.1>
101.21369435,-58.66119687,173.87115959,173.57558050,173.04058628,62.36485521
86.10843579,17.35445625,-103.51102078,0.13704140,0.34916156,-1.80634670

>  <Energy>
24.42759481269387

>  <Genealogy>
CC(=O)N[C@H]1[C@H](O)[C@H](O)[C@@H](CO)O[C@H]1O (3D coordinates assigned)
CC(=O)N[C@H]1[C@H](O)[C@H](O)[C@@H](CO)O[C@H]1O (nonaromatic ring conformer: 24.42759481269387 kcal/mol)

>  <Name>
11908605

>  <RI>
3.95439e+07

>  <Rbt.Current_Directory>
/home/edward/Documentos/Virtual_Screening/rDock/2

>  <Rbt.Executable>
rbdock ($Id: //depot/dev/client3/rdock/2013.1/src/exe/rbdock.cxx#4 $)

>  <Rbt.Library>
libRbt.so (2013.1, Build901 2013/11/27)

>  <Rbt.Parameter_File>
/home/edward/anaconda3/envs/MD/share/rdock-2013.1-1/data/scripts/dock.prm

>  <Rbt.Receptor>
parameters.prm

>  <SCORE>
-18.6778

>  <SCORE.INTER>
-17.6383

>  <SCORE.INTER.CONST>
1

>  <SCORE.INTER.POLAR>
-4.45582

>  <SCORE.INTER.REPUL>
0

>  <SCORE.INTER.ROT>
2

>  <SCORE.INTER.VDW>
-9.88856

>  <SCORE.INTER.norm>
-1.17589

>  <SCORE.INTRA>
-3.44593

>  <SCORE.INTRA.DIHEDRAL>
-8.39153

>  <SCORE.INTRA.DIHEDRAL.0>
10.2423

>  <SCORE.INTRA.POLAR>
0

>  <SCORE.INTRA.POLAR.0>
0

>  <SCORE.INTRA.REPUL>
0

>  <SCORE.INTRA.REPUL.0>
0

>  <SCORE.INTRA.VDW>
0.749836

>  <SCORE.INTRA.VDW.0>
-1.59862

>  <SCORE.INTRA.norm>
-0.229729

>  <SCORE.RESTR>
0

>  <SCORE.RESTR.CAVITY>
0

>  <SCORE.RESTR.norm>
0

>  <SCORE.SYSTEM>
2.40651

>  <SCORE.SYSTEM.CONST>
0

>  <SCORE.SYSTEM.DIHEDRAL>
3.10148

>  <SCORE.SYSTEM.VDW>
0.85577

>  <SCORE.SYSTEM.norm>
0.160434

>  <SCORE.heavy>
15

>  <SCORE.norm>
-1.24518

>  <SMILES>
CC(=O)N[C@H]1[C@H](O)[C@H](O)[C@@H](CO)O[C@H]1O

>  <UniqueID>
83

$$$$
11096158
  rDOCK(R)          3D
libRbt.so/2013.1/901 2013/11/27
 20 20  0  0  0  0  0  0  0  0999 V2000
   86.2454   15.4654 -104.4159 C   0  0  0  0  0  0
   87.5458   15.5992 -103.6931 C   0  0  0  0  0  0
   87.5695   15.5173 -102.4352 O   0  0  0  0  0  0
   88.7586   15.7893 -104.4353 N   0  0  0  0  0  0
   90.0811   15.8419 -103.7973 C   0  0  0  0  0  0
   90.4500   17.2955 -103.4444 C   0  0  0  0  0  0
   89.4400   17.8433 -102.6413 O   0  0  0  0  0  0
   90.5819   18.0744 -104.6221 O   0  0  0  0  0  0
   91.6851   17.6283 -105.3951 C   0  0  0  0  0  0
   91.8827   18.6036 -106.5613 C   0  0  0  0  0  0
   92.1741   19.8804 -106.0638 O   0  0  0  0  0  0
   91.4356   16.1898 -105.9133 C   0  0  0  0  0  0
   92.5647   15.7211 -106.6080 O   0  0  0  0  0  0
   91.1611   15.2509 -104.7272 C   0  0  0  0  0  0
   90.7674   13.9910 -105.2070 O   0  0  0  0  0  0
   88.7006   15.7834 -105.4792 H   0  0  0  0  0  0
   89.4169   17.3003 -101.8106 H   0  0  0  0  0  0
   92.9422   19.7667 -105.4457 H   0  0  0  0  0  0
   93.3480   15.8397 -106.0097 H   0  0  0  0  0  0
   90.8638   13.3548 -104.4509 H   0  0  0  0  0  0
  1  2  1  0  0  0
  2  3  2  0  0  0
  2  4  1  0  0  0
  4  5  1  0  0  0
  4 16  1  0  0  0
  5  6  1  0  0  0
  6  7  1  0  0  0
  6  8  1  0  0  0
  7 17  1  0  0  0
  8  9  1  0  0  0
  9 10  1  0  0  0
  9 12  1  0  0  0
 10 11  1  0  0  0
 11 18  1  0  0  0
 12 13  1  0  0  0
 12 14  1  0  0  0
 13 19  1  0  0  0
 14 15  1  0  0  0
 14  5  1  0  0  0
 15 20  1  0  0  0
M  END
>  <CHROM.0>
179.18303064,152.30759966,-65.69242426

>  <CHROM.1>
-91.47570971,62.21955687,61.67753791,53.32212621,52.80686823,-73.98545951
90.18366423,16.59644284,-104.66776344,2.80698200,-0.59509239,-2.94152636

>  <Energy>
23.309873386510723

>  <Genealogy>
CC(=O)N[C@@H]1[C@H](O)O[C@H](CO)[C@@H](O)[C@@H]1O (3D coordinates assigned)
CC(=O)N[C@@H]1[C@H](O)O[C@H](CO)[C@@H](O)[C@@H]1O (nonaromatic ring conformer: 23.309873386510723 kcal/mol)

>  <Name>
11096158

>  <RI>
3.95439e+07

>  <Rbt.Current_Directory>
/home/edward/Documentos/Virtual_Screening/rDock/2

>  <Rbt.Executable>
rbdock ($Id: //depot/dev/client3/rdock/2013.1/src/exe/rbdock.cxx#4 $)

>  <Rbt.Library>
libRbt.so (2013.1, Build901 2013/11/27)

>  <Rbt.Parameter_File>
/home/edward/anaconda3/envs/MD/share/rdock-2013.1-1/data/scripts/dock.prm

>  <Rbt.Receptor>
parameters.prm

>  <SCORE>
-18.1013

>  <SCORE.INTER>
-18.7465

>  <SCORE.INTER.CONST>
1

>  <SCORE.INTER.POLAR>
-3.78606

>  <SCORE.INTER.REPUL>
0.0922399

>  <SCORE.INTER.ROT>
2

>  <SCORE.INTER.VDW>
-13.7351

>  <SCORE.INTER.norm>
-1.24976

>  <SCORE.INTRA>
-1.1219

>  <SCORE.INTRA.DIHEDRAL>
-3.67367

>  <SCORE.INTRA.DIHEDRAL.0>
6.53945

>  <SCORE.INTRA.POLAR>
0

>  <SCORE.INTRA.POLAR.0>
0

>  <SCORE.INTRA.REPUL>
0

>  <SCORE.INTRA.REPUL.0>
0

>  <SCORE.INTRA.VDW>
0.71494

>  <SCORE.INTRA.VDW.0>
-2.02149

>  <SCORE.INTRA.norm>
-0.0747932

>  <SCORE.RESTR>
0.0203851

>  <SCORE.RESTR.CAVITY>
0.0203851

>  <SCORE.RESTR.norm>
0.00135901

>  <SCORE.SYSTEM>
1.74663

>  <SCORE.SYSTEM.CONST>
0

>  <SCORE.SYSTEM.DIHEDRAL>
3.48668

>  <SCORE.SYSTEM.VDW>
0.00328707

>  <SCORE.SYSTEM.norm>
0.116442

>  <SCORE.heavy>
15

>  <SCORE.norm>
-1.20676

>  <SMILES>
CC(=O)N[C@@H]1[C@H](O)O[C@H](CO)[C@@H](O)[C@@H]1O

>  <UniqueID>
85

$$$$
9816401
  rDOCK(R)          3D
libRbt.so/2013.1/901 2013/11/27
 22 22  0  0  0  0  0  0  0  0999 V2000
   88.2445   19.0940 -101.6408 C   0  0  0  0  0  0
   89.5620   19.0489 -102.4109 C   0  0  0  0  0  0
   89.2918   19.2698 -103.7851 O   0  0  0  0  0  0
   90.4341   19.0364 -104.5981 C   0  0  0  0  0  0
   90.5346   17.5331 -104.9168 C   0  0  0  0  0  0
   90.8324   16.8292 -103.7371 O   0  0  0  0  0  0
   91.6443   17.2937 -105.9693 C   0  0  0  0  0  0
   91.7589   15.8095 -106.3422 C   0  0  0  0  0  0
   92.1433   15.0524 -105.2271 O   0  0  0  0  0  0
   91.3859   18.0314 -107.1539 O   0  0  0  0  0  0
   91.3871   19.4300 -106.9107 C   0  0  0  0  0  0
   92.6469   19.8696 -106.4659 O   0  0  0  0  0  0
   90.2787   19.8269 -105.9119 C   0  0  0  0  0  0
   90.3268   21.2676 -105.6491 N   0  0  0  0  0  0
   90.4911   20.1109 -101.8938 C   0  0  0  0  0  0
   91.1468   19.9173 -100.8366 O   0  0  0  0  0  0
   90.6382   21.3092 -102.5824 O   0  5  0  0  0  0
   91.6554   17.2312 -103.3542 H   0  0  0  0  0  0
   91.4406   15.1962 -104.5414 H   0  0  0  0  0  0
   92.8027   19.4303 -105.5895 H   0  0  0  0  0  0
   90.1461   21.4226 -104.6311 H   0  0  0  0  0  0
   89.5269   21.7220 -106.1471 H   0  0  0  0  0  0
  1  2  1  0  0  0
  2  3  1  0  0  0
  2 15  1  0  0  0
  3  4  1  0  0  0
  4  5  1  0  0  0
  5  6  1  0  0  0
  5  7  1  0  0  0
  6 18  1  0  0  0
  7  8  1  0  0  0
  7 10  1  0  0  0
  8  9  1  0  0  0
  9 19  1  0  0  0
 10 11  1  0  0  0
 11 12  1  0  0  0
 11 13  1  0  0  0
 12 20  1  0  0  0
 13 14  1  0  0  0
 13  4  1  0  0  0
 14 21  1  0  0  0
 14 22  1  0  0  0
 15 16  2  0  0  0
 15 17  1  0  0  0
M  END
>  <CHROM.0>
-178.46928672,153.56694500,53.55977926

>  <CHROM.1>
-170.77926577,80.09779545,84.20022734,-54.90532144,-63.43319611,59.42675572
-64.37144872,-18.01552558,90.77423132,18.73781340,-104.46176106,2.94170686
1.22366379,-0.39698469

>  <Energy>
30.58300685588751

>  <Genealogy>
C[C@@H](O[C@H]1[C@H](O)[C@@H](CO)O[C@H](O)[C@@H]1N)C(=O)[O-] (protonated)
C[C@@H](O[C@H]1[C@H](O)[C@@H](CO)O[C@H](O)[C@@H]1N)C(=O)[O-] (3D coordinates assigned)
C[C@@H](O[C@H]1[C@H](O)[C@@H](CO)O[C@H](O)[C@@H]1N)C(=O)[O-] (nonaromatic ring conformer: 30.58300685588751 kcal/mol)

>  <Name>
9816401

>  <RI>
3.95439e+07

>  <Rbt.Current_Directory>
/home/edward/Documentos/Virtual_Screening/rDock/2

>  <Rbt.Executable>
rbdock ($Id: //depot/dev/client3/rdock/2013.1/src/exe/rbdock.cxx#4 $)

>  <Rbt.Library>
libRbt.so (2013.1, Build901 2013/11/27)

>  <Rbt.Parameter_File>
/home/edward/anaconda3/envs/MD/share/rdock-2013.1-1/data/scripts/dock.prm

>  <Rbt.Receptor>
parameters.prm

>  <SCORE>
-16.0348

>  <SCORE.INTER>
-10.7236

>  <SCORE.INTER.CONST>
1

>  <SCORE.INTER.POLAR>
-2.46029

>  <SCORE.INTER.REPUL>
0.0686378

>  <SCORE.INTER.ROT>
5

>  <SCORE.INTER.VDW>
-13.1018

>  <SCORE.INTER.norm>
-0.630801

>  <SCORE.INTRA>
-7.71196

>  <SCORE.INTRA.DIHEDRAL>
-8.34201

>  <SCORE.INTRA.DIHEDRAL.0>
14.6985

>  <SCORE.INTRA.POLAR>
-1.66121

>  <SCORE.INTRA.POLAR.0>
0

>  <SCORE.INTRA.REPUL>
0

>  <SCORE.INTRA.REPUL.0>
0

>  <SCORE.INTRA.VDW>
2.10717

>  <SCORE.INTRA.VDW.0>
-2.56078

>  <SCORE.INTRA.norm>
-0.453644

>  <SCORE.RESTR>
0

>  <SCORE.RESTR.CAVITY>
0

>  <SCORE.RESTR.norm>
0

>  <SCORE.SYSTEM>
2.40082

>  <SCORE.SYSTEM.CONST>
0

>  <SCORE.SYSTEM.DIHEDRAL>
3.25157

>  <SCORE.SYSTEM.VDW>
0.775036

>  <SCORE.SYSTEM.norm>
0.141225

>  <SCORE.heavy>
17

>  <SCORE.norm>
-0.943221

>  <SMILES>
C[C@@H](O[C@H]1[C@H](O)[C@@H](CO)O[C@H](O)[C@@H]1N)C(=O)[O-]

>  <UniqueID>
87

$$$$
7067772
  rDOCK(R)          3D
libRbt.so/2013.1/901 2013/11/27
 24 24  0  0  0  0  0  0  0  0999 V2000
   90.9760   20.0001 -104.0938 H   0  0  0  0  0  0
   90.7985   19.0169 -103.9376 O   0  0  0  0  0  0
   91.3732   18.0135 -104.7220 C   0  0  0  0  0  0
   91.1584   16.6314 -104.3656 N   0  0  0  0  0  0
   91.8959   15.9229 -104.5790 H   0  0  0  0  0  0
   89.9361   16.1510 -103.7121 C   0  0  0  0  0  0
   89.4065   17.2181 -102.7303 C   0  0  0  0  0  0
   90.3559   17.4352 -101.7196 O   0  0  0  0  0  0
   91.1767   17.7808 -102.1578 H   0  0  0  0  0  0
   88.2127   16.7648 -102.1188 O   0  0  0  0  0  0
   87.1742   16.6359 -103.0761 C   0  0  0  0  0  0
   85.8678   16.3084 -102.3374 C   0  0  0  0  0  0
   84.7883   16.3046 -103.2328 O   0  0  0  0  0  0
   83.9738   16.1102 -102.6997 H   0  0  0  0  0  0
   87.5197   15.5247 -104.0937 C   0  0  0  0  0  0
   86.5077   15.4442 -105.0656 O   0  0  0  0  0  0
   86.6663   14.6102 -105.5801 H   0  0  0  0  0  0
   88.8650   15.8443 -104.7727 C   0  0  0  0  0  0
   89.2816   14.7520 -105.5513 O   0  0  0  0  0  0
   90.1375   15.0123 -105.9819 H   0  0  0  0  0  0
   92.1106   18.3348 -105.7650 N   0  3  0  0  0  0
   92.3786   19.6751 -106.1201 N   0  0  0  0  0  0
   91.7882   20.6498 -105.6092 O   0  0  0  0  0  0
   92.7066   17.3066 -106.6227 C   0  0  0  0  0  0
  1  2  1  0  0  0
  2  3  1  0  0  0
  3  4  1  0  0  0
  3 21  2  0  0  0
  4  5  1  0  0  0
  4  6  1  0  0  0
  6  7  1  0  0  0
  7  8  1  0  0  0
  7 10  1  0  0  0
  8  9  1  0  0  0
 10 11  1  0  0  0
 11 12  1  0  0  0
 11 15  1  0  0  0
 12 13  1  0  0  0
 13 14  1  0  0  0
 15 16  1  0  0  0
 15 18  1  0  0  0
 16 17  1  0  0  0
 18 19  1  0  0  0
 18  6  1  0  0  0
 19 20  1  0  0  0
 21 22  1  0  0  0
 21 24  1  0  0  0
 22 23  2  0  0  0
M  END
>  <CHROM.0>
-178.93741567,153.58969473,-68.09149694

>  <CHROM.1>
174.88113144,-35.29879385,62.06424925,174.09163050,-178.66857527,-168.49152247
-60.07432692,-11.05750460,89.43069101,17.11334002,-104.19589504,0.02621924
0.56528246,0.86481684

>  <Energy>
35.84846761146365

>  <Genealogy>
C[NH+](N=O)C(=O)N[C@H]1[C@H](O)O[C@H](CO)[C@@H](O)[C@@H]1O (protonated)
C[N+](N=O)=C(O)N[C@H]1[C@H](O)O[C@H](CO)[C@@H](O)[C@@H]1O (tautomer)
C/[N+](N=O)=C(\O)N[C@H]1[C@H](O)O[C@H](CO)[C@@H](O)[C@@H]1O (cis-trans isomerization)
C/[N+](N=O)=C(\O)N[C@H]1[C@H](O)O[C@H](CO)[C@@H](O)[C@@H]1O (3D coordinates assigned)
C/[N+](N=O)=C(\O)N[C@H]1[C@H](O)O[C@H](CO)[C@@H](O)[C@@H]1O (nonaromatic ring conformer: 35.84846761146365 kcal/mol)

>  <Name>
7067772

>  <RI>
3.95439e+07

>  <Rbt.Current_Directory>
/home/edward/Documentos/Virtual_Screening/rDock/2

>  <Rbt.Executable>
rbdock ($Id: //depot/dev/client3/rdock/2013.1/src/exe/rbdock.cxx#4 $)

>  <Rbt.Library>
libRbt.so (2013.1, Build901 2013/11/27)

>  <Rbt.Parameter_File>
/home/edward/anaconda3/envs/MD/share/rdock-2013.1-1/data/scripts/dock.prm

>  <Rbt.Receptor>
parameters.prm

>  <SCORE>
-21.8329

>  <SCORE.INTER>
-20.9797

>  <SCORE.INTER.CONST>
1

>  <SCORE.INTER.POLAR>
-4.59151

>  <SCORE.INTER.REPUL>
0

>  <SCORE.INTER.ROT>
3

>  <SCORE.INTER.VDW>
-13.7685

>  <SCORE.INTER.norm>
-1.16554

>  <SCORE.INTRA>
-2.75535

>  <SCORE.INTRA.DIHEDRAL>
-8.82797

>  <SCORE.INTRA.DIHEDRAL.0>
12.6747

>  <SCORE.INTRA.POLAR>
-0.244506

>  <SCORE.INTRA.POLAR.0>
0

>  <SCORE.INTRA.REPUL>
0.0455762

>  <SCORE.INTRA.REPUL.0>
0

>  <SCORE.INTRA.VDW>
2.26207

>  <SCORE.INTRA.VDW.0>
-1.87843

>  <SCORE.INTRA.norm>
-0.153075

>  <SCORE.RESTR>
0.163652

>  <SCORE.RESTR.CAVITY>
0.163652

>  <SCORE.RESTR.norm>
0.00909179

>  <SCORE.SYSTEM>
1.73847

>  <SCORE.SYSTEM.CONST>
0

>  <SCORE.SYSTEM.DIHEDRAL>
3.22855

>  <SCORE.SYSTEM.VDW>
0.124193

>  <SCORE.SYSTEM.norm>
0.0965816

>  <SCORE.heavy>
18

>  <SCORE.norm>
-1.21294

>  <SMILES>
C/[N+](N=O)=C(\O)N[C@H]1[C@H](O)O[C@H](CO)[C@@H](O)[C@@H]1O

>  <UniqueID>
90

$$$$
6971258
  rDOCK(R)          3D
libRbt.so/2013.1/901 2013/11/27
 20 20  0  0  0  0  0  0  0  0999 V2000
   85.7584   13.7926 -105.1833 H   0  0  0  0  0  0
   84.8742   13.9967 -104.7334 O   0  0  0  0  0  0
   84.8101   14.8140 -103.6054 C   0  0  0  0  0  0
   85.8944   15.2667 -103.0505 N   0  0  0  0  0  0
   87.2560   14.9810 -103.5168 C   0  0  0  0  0  0
   87.8114   16.2054 -104.2696 C   0  0  0  0  0  0
   86.9943   16.5028 -105.3726 O   0  0  0  0  0  0
   87.3192   17.3551 -105.7648 H   0  0  0  0  0  0
   87.9026   17.3439 -103.4221 O   0  0  0  0  0  0
   88.7899   17.1396 -102.3278 C   0  0  0  0  0  0
   90.2740   17.1370 -102.7643 C   0  0  0  0  0  0
   90.7153   18.4437 -103.0172 O   0  0  0  0  0  0
   91.6999   18.3931 -103.1346 H   0  0  0  0  0  0
   88.3829   15.9181 -101.4643 C   0  0  0  0  0  0
   89.3527   15.6832 -100.4744 O   0  0  0  0  0  0
   89.3728   16.4866  -99.8916 H   0  0  0  0  0  0
   88.1879   14.6617 -102.3310 C   0  0  0  0  0  0
   87.6563   13.6262 -101.5455 O   0  0  0  0  0  0
   87.4299   12.8843 -102.1653 H   0  0  0  0  0  0
   83.4821   15.1558 -103.0109 C   0  0  0  0  0  0
  1  2  1  0  0  0
  2  3  1  0  0  0
  3  4  2  0  0  0
  3 20  1  0  0  0
  4  5  1  0  0  0
  5  6  1  0  0  0
  6  7  1  0  0  0
  6  9  1  0  0  0
  7  8  1  0  0  0
  9 10  1  0  0  0
 10 11  1  0  0  0
 10 14  1  0  0  0
 11 12  1  0  0  0
 12 13  1  0  0  0
 14 15  1  0  0  0
 14 17  1  0  0  0
 15 16  1  0  0  0
 17 18  1  0  0  0
 17  5  1  0  0  0
 18 19  1  0  0  0
M  END
>  <CHROM.0>
-76.60048060,153.25299462,53.38911509

>  <CHROM.1>
-4.43536068,103.28326035,173.34665521,75.94715540,170.31198571,62.40585390
50.85368153,87.52650027,15.80535112,-103.00375503,3.07582986,0.52422742,2.22931457

>  <Energy>
29.437824735680547

>  <Genealogy>
CC(O)=N[C@H]1[C@@H](O)O[C@H](CO)[C@H](O)[C@H]1O (tautomer)
C/C(O)=N/[C@H]1[C@@H](O)O[C@H](CO)[C@H](O)[C@H]1O (cis-trans isomerization)
C/C(O)=N/[C@H]1[C@@H](O)O[C@H](CO)[C@H](O)[C@H]1O (3D coordinates assigned)
C/C(O)=N/[C@H]1[C@@H](O)O[C@H](CO)[C@H](O)[C@H]1O (nonaromatic ring conformer: 29.437824735680547 kcal/mol)

>  <Name>
6971258

>  <RI>
3.95439e+07

>  <Rbt.Current_Directory>
/home/edward/Documentos/Virtual_Screening/rDock/2

>  <Rbt.Executable>
rbdock ($Id: //depot/dev/client3/rdock/2013.1/src/exe/rbdock.cxx#4 $)

>  <Rbt.Library>
libRbt.so (2013.1, Build901 2013/11/27)

>  <Rbt.Parameter_File>
/home/edward/anaconda3/envs/MD/share/rdock-2013.1-1/data/scripts/dock.prm

>  <Rbt.Receptor>
parameters.prm

>  <SCORE>
-14.7378

>  <SCORE.INTER>
-16.2724

>  <SCORE.INTER.CONST>
1

>  <SCORE.INTER.POLAR>
-3.83238

>  <SCORE.INTER.REPUL>
0.0124065

>  <SCORE.INTER.ROT>
2

>  <SCORE.INTER.VDW>
-10.7043

>  <SCORE.INTER.norm>
-1.08483

>  <SCORE.INTRA>
-2.3579

>  <SCORE.INTRA.DIHEDRAL>
-5.13193

>  <SCORE.INTRA.DIHEDRAL.0>
7.80688

>  <SCORE.INTRA.POLAR>
0

>  <SCORE.INTRA.POLAR.0>
0

>  <SCORE.INTRA.REPUL>
0

>  <SCORE.INTRA.REPUL.0>
0

>  <SCORE.INTRA.VDW>
0.208069

>  <SCORE.INTRA.VDW.0>
-1.81585

>  <SCORE.INTRA.norm>
-0.157193

>  <SCORE.RESTR>
0

>  <SCORE.RESTR.CAVITY>
0

>  <SCORE.RESTR.norm>
0

>  <SCORE.SYSTEM>
3.8925

>  <SCORE.SYSTEM.CONST>
0

>  <SCORE.SYSTEM.DIHEDRAL>
4.57267

>  <SCORE.SYSTEM.VDW>
1.60616

>  <SCORE.SYSTEM.norm>
0.2595

>  <SCORE.heavy>
15

>  <SCORE.norm>
-0.982519

>  <SMILES>
C/C(O)=N/[C@H]1[C@@H](O)O[C@H](CO)[C@H](O)[C@H]1O

>  <UniqueID>
92

$$$$
6713972
  rDOCK(R)          3D
libRbt.so/2013.1/901 2013/11/27
 24 24  0  0  0  0  0  0  0  0999 V2000
   91.0599   19.4358 -103.5773 H   0  0  0  0  0  0
   91.2880   18.6800 -104.2117 O   0  0  0  0  0  0
   90.8568   17.3766 -103.9611 C   0  0  0  0  0  0
   90.1742   17.1124 -102.7208 N   0  0  0  0  0  0
   90.5116   17.6469 -101.8885 H   0  0  0  0  0  0
   88.8789   16.4155 -102.6324 C   0  0  0  0  0  0
   87.8550   17.2501 -101.8284 C   0  0  0  0  0  0
   87.7059   18.5395 -102.3705 O   0  0  0  0  0  0
   87.5939   18.4198 -103.3495 H   0  0  0  0  0  0
   86.6044   16.5829 -101.7422 O   0  0  0  0  0  0
   86.0204   16.3930 -103.0232 C   0  0  0  0  0  0
   84.6279   15.7727 -102.8331 C   0  0  0  0  0  0
   84.7287   14.5397 -102.1720 O   0  0  0  0  0  0
   85.1885   14.7131 -101.3095 H   0  0  0  0  0  0
   86.9092   15.4782 -103.8969 C   0  0  0  0  0  0
   86.3316   15.3168 -105.1676 O   0  0  0  0  0  0
   86.7591   14.5192 -105.5763 H   0  0  0  0  0  0
   88.3212   16.0812 -104.0305 C   0  0  0  0  0  0
   88.2886   17.2432 -104.8233 O   0  0  0  0  0  0
   88.0227   16.9636 -105.7379 H   0  0  0  0  0  0
   91.0965   16.4289 -104.8331 N   0  3  0  0  0  0
   90.8384   15.0871 -104.4957 N   0  0  0  0  0  0
   91.0580   14.1526 -105.2942 O   0  0  0  0  0  0
   91.7681   16.7445 -106.1018 C   0  0  0  0  0  0
  1  2  1  0  0  0
  2  3  1  0  0  0
  3  4  1  0  0  0
  3 21  2  0  0  0
  4  5  1  0  0  0
  4  6  1  0  0  0
  6  7  1  0  0  0
  7  8  1  0  0  0
  7 10  1  0  0  0
  8  9  1  0  0  0
 10 11  1  0  0  0
 11 12  1  0  0  0
 11 15  1  0  0  0
 12 13  1  0  0  0
 13 14  1  0  0  0
 15 16  1  0  0  0
 15 18  1  0  0  0
 16 17  1  0  0  0
 18 19  1  0  0  0
 18  6  1  0  0  0
 19 20  1  0  0  0
 21 22  1  0  0  0
 21 24  1  0  0  0
 22 23  2  0  0  0
M  END
>  <CHROM.0>
-74.82192875,153.43294569,-66.91781933

>  <CHROM.1>
-5.08671574,-126.67624762,47.31464267,-59.85779262,57.38764961,-162.23730985
173.74380441,-179.67298226,88.49670840,16.40950578,-103.69067118,-0.09851657
0.37488501,0.64020014

>  <Energy>
38.163014993226

>  <Genealogy>
C[NH+](N=O)C(=O)NC1[C@@H](O)OC(CO)[C@@H](O)[C@H]1O (protonated)
C[N+](N=O)=C(O)NC1[C@@H](O)OC(CO)[C@@H](O)[C@H]1O (tautomer)
C[N+](N=O)=C(O)N[C@H]1[C@@H](O)O[C@H](CO)[C@@H](O)[C@H]1O (chirality)
C/[N+](N=O)=C(\O)N[C@H]1[C@@H](O)O[C@H](CO)[C@@H](O)[C@H]1O (cis-trans isomerization)
C/[N+](N=O)=C(\O)N[C@H]1[C@@H](O)O[C@H](CO)[C@@H](O)[C@H]1O (3D coordinates assigned)
C/[N+](N=O)=C(\O)N[C@H]1[C@@H](O)O[C@H](CO)[C@@H](O)[C@H]1O (nonaromatic ring conformer: 38.163014993226 kcal/mol)

>  <Name>
6713972

>  <RI>
3.95439e+07

>  <Rbt.Current_Directory>
/home/edward/Documentos/Virtual_Screening/rDock/2

>  <Rbt.Executable>
rbdock ($Id: //depot/dev/client3/rdock/2013.1/src/exe/rbdock.cxx#4 $)

>  <Rbt.Library>
libRbt.so (2013.1, Build901 2013/11/27)

>  <Rbt.Parameter_File>
/home/edward/anaconda3/envs/MD/share/rdock-2013.1-1/data/scripts/dock.prm

>  <Rbt.Receptor>
parameters.prm

>  <SCORE>
-20.0841

>  <SCORE.INTER>
-18.5025

>  <SCORE.INTER.CONST>
1

>  <SCORE.INTER.POLAR>
-4.06223

>  <SCORE.INTER.REPUL>
0.0346961

>  <SCORE.INTER.ROT>
3

>  <SCORE.INTER.VDW>
-13.2644

>  <SCORE.INTER.norm>
-1.02792

>  <SCORE.INTRA>
-4.81796

>  <SCORE.INTRA.DIHEDRAL>
-4.31682

>  <SCORE.INTRA.DIHEDRAL.0>
9.02077

>  <SCORE.INTRA.POLAR>
-1.17129

>  <SCORE.INTRA.POLAR.0>
0

>  <SCORE.INTRA.REPUL>
-0.00112877

>  <SCORE.INTRA.REPUL.0>
0.00112877

>  <SCORE.INTRA.VDW>
1.32849

>  <SCORE.INTRA.VDW.0>
-1.24919

>  <SCORE.INTRA.norm>
-0.267665

>  <SCORE.RESTR>
0

>  <SCORE.RESTR.CAVITY>
0

>  <SCORE.RESTR.norm>
0

>  <SCORE.SYSTEM>
3.2364

>  <SCORE.SYSTEM.CONST>
0

>  <SCORE.SYSTEM.DIHEDRAL>
4.29071

>  <SCORE.SYSTEM.VDW>
1.09105

>  <SCORE.SYSTEM.norm>
0.1798

>  <SCORE.heavy>
18

>  <SCORE.norm>
-1.11578

>  <SMILES>
C/[N+](N=O)=C(\O)N[C@H]1[C@@H](O)O[C@H](CO)[C@@H](O)[C@H]1O

>  <UniqueID>
93

$$$$
6420074
  rDOCK(R)          3D
libRbt.so/2013.1/901 2013/11/27
 23 23  0  0  0  0  0  0  0  0999 V2000
   90.2657   21.5430 -100.8138 C   0  0  0  0  0  0
   90.6816   20.1484 -100.6320 N   0  0  0  0  0  0
   91.5081   19.8068  -99.5463 N   0  0  0  0  0  0
   91.9337   18.6427  -99.3925 O   0  0  0  0  0  0
   90.1966   19.1061 -101.5006 C   0  0  0  0  0  0
   89.3128   19.3705 -102.3600 O   0  0  0  0  0  0
   90.7247   17.7696 -101.3948 N   0  0  0  0  0  0
   90.3194   16.6269 -102.2277 C   0  0  0  0  0  0
   90.3520   16.9731 -103.7306 C   0  0  0  0  0  0
   91.6228   17.4580 -104.0781 O   0  0  0  0  0  0
   90.0612   15.8315 -104.5212 O   0  0  0  0  0  0
   88.7572   15.3115 -104.2841 C   0  0  0  0  0  0
   87.6465   16.1428 -104.9711 C   0  0  0  0  0  0
   86.4507   15.4245 -105.1208 O   0  0  0  0  0  0
   88.4902   14.9666 -102.7879 C   0  0  0  0  0  0
   89.1052   13.7463 -102.4446 O   0  0  0  0  0  0
   88.9355   16.0940 -101.8267 C   0  0  0  0  0  0
   88.9843   15.6193 -100.5054 O   0  0  0  0  0  0
   91.4680   17.5848 -100.6849 H   0  0  0  0  0  0
   91.7533   18.3151 -103.5931 H   0  0  0  0  0  0
   86.6777   14.5740 -105.5802 H   0  0  0  0  0  0
   88.8940   13.5522 -101.4947 H   0  0  0  0  0  0
   88.0653   15.3250 -100.2721 H   0  0  0  0  0  0
  1  2  1  0  0  0
  2  3  1  0  0  0
  2  5  1  0  0  0
  3  4  2  0  0  0
  5  6  2  0  0  0
  5  7  1  0  0  0
  7  8  1  0  0  0
  7 19  1  0  0  0
  8  9  1  0  0  0
  9 10  1  0  0  0
  9 11  1  0  0  0
 10 20  1  0  0  0
 11 12  1  0  0  0
 12 13  1  0  0  0
 12 15  1  0  0  0
 13 14  1  0  0  0
 14 21  1  0  0  0
 15 16  1  0  0  0
 15 17  1  0  0  0
 16 22  1  0  0  0
 17 18  1  0  0  0
 17  8  1  0  0  0
 18 23  1  0  0  0
M  END
>  <CHROM.0>
-88.13709675,154.11266252,51.31995538

>  <CHROM.1>
-176.64634683,50.03746354,-65.05797149,160.24186773,-53.01497617,-178.64104899
177.40671450,89.73447526,17.21905808,-102.34485929,0.33152885,-1.11254840
-0.54250279

>  <Energy>
38.33038997481526

>  <Genealogy>
CN(N=O)C(=O)N[C@@H]1[C@@H](O)O[C@H](CO)[C@@H](O)[C@H]1O (chirality)
CN(N=O)C(=O)N[C@@H]1[C@@H](O)O[C@H](CO)[C@@H](O)[C@H]1O (3D coordinates assigned)
CN(N=O)C(=O)N[C@@H]1[C@@H](O)O[C@H](CO)[C@@H](O)[C@H]1O (nonaromatic ring conformer: 38.33038997481526 kcal/mol)

>  <Name>
6420074

>  <RI>
3.95439e+07

>  <Rbt.Current_Directory>
/home/edward/Documentos/Virtual_Screening/rDock/2

>  <Rbt.Executable>
rbdock ($Id: //depot/dev/client3/rdock/2013.1/src/exe/rbdock.cxx#4 $)

>  <Rbt.Library>
libRbt.so (2013.1, Build901 2013/11/27)

>  <Rbt.Parameter_File>
/home/edward/anaconda3/envs/MD/share/rdock-2013.1-1/data/scripts/dock.prm

>  <Rbt.Receptor>
parameters.prm

>  <SCORE>
-16.7966

>  <SCORE.INTER>
-17.283

>  <SCORE.INTER.CONST>
1

>  <SCORE.INTER.POLAR>
-2.93311

>  <SCORE.INTER.REPUL>
0

>  <SCORE.INTER.ROT>
3

>  <SCORE.INTER.VDW>
-15.7104

>  <SCORE.INTER.norm>
-0.960166

>  <SCORE.INTRA>
-3.81641

>  <SCORE.INTRA.DIHEDRAL>
-5.39973

>  <SCORE.INTRA.DIHEDRAL.0>
8.73367

>  <SCORE.INTRA.POLAR>
0

>  <SCORE.INTRA.POLAR.0>
0

>  <SCORE.INTRA.REPUL>
-0.287007

>  <SCORE.INTRA.REPUL.0>
0.287007

>  <SCORE.INTRA.VDW>
0.318494

>  <SCORE.INTRA.VDW.0>
-1.34402

>  <SCORE.INTRA.norm>
-0.212023

>  <SCORE.RESTR>
0

>  <SCORE.RESTR.CAVITY>
0

>  <SCORE.RESTR.norm>
0

>  <SCORE.SYSTEM>
4.30283

>  <SCORE.SYSTEM.CONST>
0

>  <SCORE.SYSTEM.DIHEDRAL>
6.37422

>  <SCORE.SYSTEM.VDW>
1.11572

>  <SCORE.SYSTEM.norm>
0.239046

>  <SCORE.heavy>
18

>  <SCORE.norm>
-0.933143

>  <SMILES>
CN(N=O)C(=O)N[C@@H]1[C@@H](O)O[C@H](CO)[C@@H](O)[C@H]1O

>  <UniqueID>
96

$$$$
6323218
  rDOCK(R)          3D
libRbt.so/2013.1/901 2013/11/27
 24 24  0  0  0  0  0  0  0  0999 V2000
   89.5942   23.8391 -105.6939 C   0  0  0  0  0  0
   89.6864   22.4331 -106.1894 C   0  0  0  0  0  0
   89.3418   22.1667 -107.3727 O   0  0  0  0  0  0
   90.1715   21.4008 -105.3190 N   0  0  0  0  0  0
   90.1686   19.9813 -105.6893 C   0  0  0  0  0  0
   91.2645   19.6983 -106.7360 C   0  0  0  0  0  0
   92.5257   20.1265 -106.2837 O   0  0  0  0  0  0
   91.2866   18.3233 -107.0891 O   0  0  0  0  0  0
   91.5949   17.4984 -105.9744 C   0  0  0  0  0  0
   91.7085   16.0505 -106.4815 C   0  0  0  0  0  0
   92.1176   15.1820 -105.4589 O   0  0  0  0  0  0
   90.5056   17.6311 -104.8800 C   0  0  0  0  0  0
   90.8465   16.8580 -103.7560 O   0  0  0  0  0  0
   90.3745   19.0990 -104.4451 C   0  0  0  0  0  0
   89.2464   19.2150 -103.5891 O   0  0  0  0  0  0
   89.5586   18.9075 -102.2399 C   0  0  0  0  0  0
   88.2854   18.9040 -101.3894 C   0  0  0  0  0  0
   90.5052   19.9461 -101.7171 C   0  0  0  0  0  0
   90.6381   21.0467 -102.3155 O   0  0  0  0  0  0
   91.2106   19.7154 -100.5425 O   0  5  0  0  0  0
   90.3980   21.6604 -104.3319 H   0  0  0  0  0  0
   92.6845   19.6636 -105.4201 H   0  0  0  0  0  0
   92.9748   15.5388 -105.1075 H   0  0  0  0  0  0
   91.7195   17.1918 -103.4214 H   0  0  0  0  0  0
  1  2  1  0  0  0
  2  3  2  0  0  0
  2  4  1  0  0  0
  4  5  1  0  0  0
  4 21  1  0  0  0
  5  6  1  0  0  0
  6  7  1  0  0  0
  6  8  1  0  0  0
  7 22  1  0  0  0
  8  9  1  0  0  0
  9 10  1  0  0  0
  9 12  1  0  0  0
 10 11  1  0  0  0
 11 23  1  0  0  0
 12 13  1  0  0  0
 12 14  1  0  0  0
 13 24  1  0  0  0
 14 15  1  0  0  0
 14  5  1  0  0  0
 15 16  1  0  0  0
 16 17  1  0  0  0
 16 18  1  0  0  0
 18 19  2  0  0  0
 18 20  1  0  0  0
M  END
>  <CHROM.0>
-178.01292492,154.28720594,-62.52603371

>  <CHROM.1>
73.17552646,56.49521654,175.25981249,-56.24869155,59.48079749,-155.86476768
-174.07833388,17.28156977,90.56513126,19.37267033,-104.64613415,-2.54718627
-1.22042542,2.18946834

>  <Energy>
33.3367848860941

>  <Genealogy>
CC(=O)N[C@H]1[C@@H](O)O[C@H](CO)[C@@H](O)[C@@H]1O[C@H](C)C(=O)[O-] (protonated)
CC(=O)N[C@H]1[C@@H](O)O[C@H](CO)[C@@H](O)[C@@H]1O[C@H](C)C(=O)[O-] (3D coordinates assigned)
CC(=O)N[C@H]1[C@@H](O)O[C@H](CO)[C@@H](O)[C@@H]1O[C@H](C)C(=O)[O-] (nonaromatic ring conformer: 33.3367848860941 kcal/mol)

>  <Name>
6323218

>  <RI>
3.95439e+07

>  <Rbt.Current_Directory>
/home/edward/Documentos/Virtual_Screening/rDock/2

>  <Rbt.Executable>
rbdock ($Id: //depot/dev/client3/rdock/2013.1/src/exe/rbdock.cxx#4 $)

>  <Rbt.Library>
libRbt.so (2013.1, Build901 2013/11/27)

>  <Rbt.Parameter_File>
/home/edward/anaconda3/envs/MD/share/rdock-2013.1-1/data/scripts/dock.prm

>  <Rbt.Receptor>
parameters.prm

>  <SCORE>
-20.5875

>  <SCORE.INTER>
-13.768

>  <SCORE.INTER.CONST>
1

>  <SCORE.INTER.POLAR>
-3.07379

>  <SCORE.INTER.REPUL>
0.142461

>  <SCORE.INTER.ROT>
5

>  <SCORE.INTER.VDW>
-14.4294

>  <SCORE.INTER.norm>
-0.688398

>  <SCORE.INTRA>
-8.5943

>  <SCORE.INTRA.DIHEDRAL>
-13.5613

>  <SCORE.INTRA.DIHEDRAL.0>
18.8664

>  <SCORE.INTRA.POLAR>
-1.20568

>  <SCORE.INTRA.POLAR.0>
0

>  <SCORE.INTRA.REPUL>
0

>  <SCORE.INTRA.REPUL.0>
0

>  <SCORE.INTRA.VDW>
2.28567

>  <SCORE.INTRA.VDW.0>
-3.64388

>  <SCORE.INTRA.norm>
-0.429715

>  <SCORE.RESTR>
0

>  <SCORE.RESTR.CAVITY>
0

>  <SCORE.RESTR.norm>
0

>  <SCORE.SYSTEM>
1.77476

>  <SCORE.SYSTEM.CONST>
0

>  <SCORE.SYSTEM.DIHEDRAL>
3.20159

>  <SCORE.SYSTEM.VDW>
0.17396

>  <SCORE.SYSTEM.norm>
0.0887378

>  <SCORE.heavy>
20

>  <SCORE.norm>
-1.02937

>  <SMILES>
CC(=O)N[C@H]1[C@@H](O)O[C@H](CO)[C@@H](O)[C@@H]1O[C@H](C)C(=O)[O-]

>  <UniqueID>
98

$$$$
5462244
  rDOCK(R)          3D
libRbt.so/2013.1/901 2013/11/27
 24 24  0  0  0  0  0  0  0  0999 V2000
   87.4056   17.9652 -101.0463 C   0  0  0  0  0  0
   87.0981   18.5614 -102.3929 C   0  0  0  0  0  0
   86.1547   19.5812 -102.4889 O   0  0  0  0  0  0
   87.7009   18.1743 -103.4804 N   0  0  0  0  0  0
   88.7176   17.1236 -103.6034 C   0  0  0  0  0  0
   88.2826   16.0911 -104.6656 C   0  0  0  0  0  0
   87.0983   15.4595 -104.2564 O   0  0  0  0  0  0
   89.2792   15.0966 -104.8125 O   0  0  0  0  0  0
   90.4698   15.6504 -105.3473 C   0  0  0  0  0  0
   91.4380   14.4912 -105.6392 C   0  0  0  0  0  0
   92.5236   14.9168 -106.4186 O   0  0  0  0  0  0
   91.0820   16.6604 -104.3468 C   0  0  0  0  0  0
   92.2333   17.2440 -104.9017 O   0  0  0  0  0  0
   90.0563   17.7617 -104.0195 C   0  0  0  0  0  0
   90.5598   18.5414 -102.9438 O   0  0  0  0  0  0
   89.9237   19.8054 -102.8488 C   0  0  0  0  0  0
   90.3763   20.7089 -103.9984 C   0  0  0  0  0  0
   90.2968   20.4311 -101.5386 C   0  0  0  0  0  0
   91.1862   19.9104 -100.8141 O   0  0  0  0  0  0
   89.6823   21.6083 -101.1301 O   0  5  0  0  0  0
   85.8797   19.9688 -103.3834 H   0  0  0  0  0  0
   87.3016   14.9699 -103.4168 H   0  0  0  0  0  0
   92.9785   15.6346 -105.9053 H   0  0  0  0  0  0
   92.6806   17.7492 -104.1735 H   0  0  0  0  0  0
  1  2  1  0  0  0
  2  3  1  0  0  0
  2  4  2  0  0  0
  3 21  1  0  0  0
  4  5  1  0  0  0
  5  6  1  0  0  0
  6  7  1  0  0  0
  6  8  1  0  0  0
  7 22  1  0  0  0
  8  9  1  0  0  0
  9 10  1  0  0  0
  9 12  1  0  0  0
 10 11  1  0  0  0
 11 23  1  0  0  0
 12 13  1  0  0  0
 12 14  1  0  0  0
 13 24  1  0  0  0
 14 15  1  0  0  0
 14  5  1  0  0  0
 15 16  1  0  0  0
 16 17  1  0  0  0
 16 18  1  0  0  0
 18 19  2  0  0  0
 18 20  1  0  0  0
M  END
>  <CHROM.0>
-176.22468216,154.72729596,-64.78610603

>  <CHROM.1>
-176.22838242,125.65473905,-62.88990602,167.81456800,59.04874108,-169.77221645
-79.11908604,-71.84607995,8.87093426,89.59807112,17.77933931,-103.54284351
1.90202624,0.21969198,0.57729662

>  <Energy>
35.32900434380098

>  <Genealogy>
CC(=O)N[C@H]1C(O)O[C@H](CO)[C@@H](O)[C@@H]1O[C@H](C)C(=O)[O-] (protonated)
CC(O)=N[C@H]1C(O)O[C@H](CO)[C@@H](O)[C@@H]1O[C@H](C)C(=O)[O-] (tautomer)
CC(O)=N[C@H]1[C@H](O)O[C@H](CO)[C@@H](O)[C@@H]1O[C@H](C)C(=O)[O-] (chirality)
CC(O)=N[C@H]1[C@H](O)O[C@H](CO)[C@@H](O)[C@@H]1O[C@H](C)C(=O)[O-] (3D coordinates assigned)
CC(O)=N[C@H]1[C@H](O)O[C@H](CO)[C@@H](O)[C@@H]1O[C@H](C)C(=O)[O-] (nonaromatic ring conformer: 35.32900434380098 kcal/mol)

>  <Name>
5462244

>  <RI>
3.95439e+07

>  <Rbt.Current_Directory>
/home/edward/Documentos/Virtual_Screening/rDock/2

>  <Rbt.Executable>
rbdock ($Id: //depot/dev/client3/rdock/2013.1/src/exe/rbdock.cxx#4 $)

>  <Rbt.Library>
libRbt.so (2013.1, Build901 2013/11/27)

>  <Rbt.Parameter_File>
/home/edward/anaconda3/envs/MD/share/rdock-2013.1-1/data/scripts/dock.prm

>  <Rbt.Receptor>
parameters.prm

>  <SCORE>
-17.1685

>  <SCORE.INTER>
-12.0517

>  <SCORE.INTER.CONST>
1

>  <SCORE.INTER.POLAR>
-2.43222

>  <SCORE.INTER.REPUL>
0.276289

>  <SCORE.INTER.ROT>
5

>  <SCORE.INTER.VDW>
-15.5636

>  <SCORE.INTER.norm>
-0.602585

>  <SCORE.INTRA>
-6.91649

>  <SCORE.INTRA.DIHEDRAL>
-12.1757

>  <SCORE.INTRA.DIHEDRAL.0>
16.7993

>  <SCORE.INTRA.POLAR>
-0.62302

>  <SCORE.INTRA.POLAR.0>
0

>  <SCORE.INTRA.REPUL>
0

>  <SCORE.INTRA.REPUL.0>
0

>  <SCORE.INTRA.VDW>
1.2896

>  <SCORE.INTRA.VDW.0>
-2.94769

>  <SCORE.INTRA.norm>
-0.345825

>  <SCORE.RESTR>
0.00445209

>  <SCORE.RESTR.CAVITY>
0.00445209

>  <SCORE.RESTR.norm>
0.000222605

>  <SCORE.SYSTEM>
1.79526

>  <SCORE.SYSTEM.CONST>
0

>  <SCORE.SYSTEM.DIHEDRAL>
3.1212

>  <SCORE.SYSTEM.VDW>
0.234656

>  <SCORE.SYSTEM.norm>
0.0897628

>  <SCORE.heavy>
20

>  <SCORE.norm>
-0.858425

>  <SMILES>
CC(O)=N[C@H]1[C@H](O)O[C@H](CO)[C@@H](O)[C@@H]1O[C@H](C)C(=O)[O-]

>  <UniqueID>
99

$$$$
5317448
  rDOCK(R)          3D
libRbt.so/2013.1/901 2013/11/27
 19 19  0  0  0  0  0  0  0  0999 V2000
   92.5144   16.9310 -105.0035 N   0  3  0  0  0  0
   91.2181   16.4605 -104.4951 C   0  0  0  0  0  0
   90.2132   17.6327 -104.3500 C   0  0  0  0  0  0
   90.0691   18.3471 -105.5558 O   0  0  0  0  0  0
   88.9505   17.1746 -103.8897 O   0  0  0  0  0  0
   88.3516   16.2760 -104.8122 C   0  0  0  0  0  0
   86.9309   15.9419 -104.3349 C   0  0  0  0  0  0
   86.2148   15.2912 -105.3498 O   0  0  0  0  0  0
   89.2017   14.9911 -104.9704 C   0  0  0  0  0  0
   89.2054   14.2090 -103.7981 O   0  0  0  0  0  0
   90.6362   15.3565 -105.4036 C   0  0  0  0  0  0
   91.4610   14.2204 -105.3572 O   0  0  0  0  0  0
   93.1668   16.1207 -105.1114 H   0  0  0  0  0  0
   92.9410   17.6022 -104.3242 H   0  0  0  0  0  0
   92.4047   17.4019 -105.9309 H   0  0  0  0  0  0
   89.7354   17.7085 -106.2388 H   0  0  0  0  0  0
   86.6902   14.4388 -105.5321 H   0  0  0  0  0  0
   89.5682   14.7600 -103.0578 H   0  0  0  0  0  0
   91.4429   13.8919 -104.4204 H   0  0  0  0  0  0
  1  2  1  0  0  0
  1 13  1  0  0  0
  1 14  1  0  0  0
  1 15  1  0  0  0
  2  3  1  0  0  0
  3  4  1  0  0  0
  3  5  1  0  0  0
  4 16  1  0  0  0
  5  6  1  0  0  0
  6  7  1  0  0  0
  6  9  1  0  0  0
  7  8  1  0  0  0
  8 17  1  0  0  0
  9 10  1  0  0  0
  9 11  1  0  0  0
 10 18  1  0  0  0
 11 12  1  0  0  0
 11  2  1  0  0  0
 12 19  1  0  0  0
M  END
>  <CHROM.0>
-178.86424967,154.19410253,54.80661802

>  <CHROM.1>
-178.81948086,60.08189629,167.60547317,62.60356278,-58.87048907,63.01068142
89.59843137,16.05195346,-104.78316804,0.22300343,0.05741853,-0.01554431

>  <Energy>
26.259733152177596

>  <Genealogy>
[NH3+][C@H]1[C@@H](O)O[C@H](CO)[C@H](O)[C@@H]1O (protonated)
[NH3+][C@H]1[C@@H](O)O[C@H](CO)[C@H](O)[C@@H]1O (3D coordinates assigned)
[NH3+][C@H]1[C@@H](O)O[C@H](CO)[C@H](O)[C@@H]1O (nonaromatic ring conformer: 26.259733152177596 kcal/mol)

>  <Name>
5317448

>  <RI>
3.95439e+07

>  <Rbt.Current_Directory>
/home/edward/Documentos/Virtual_Screening/rDock/2

>  <Rbt.Executable>
rbdock ($Id: //depot/dev/client3/rdock/2013.1/src/exe/rbdock.cxx#4 $)

>  <Rbt.Library>
libRbt.so (2013.1, Build901 2013/11/27)

>  <Rbt.Parameter_File>
/home/edward/anaconda3/envs/MD/share/rdock-2013.1-1/data/scripts/dock.prm

>  <Rbt.Receptor>
parameters.prm

>  <SCORE>
-27.7708

>  <SCORE.INTER>
-28.414

>  <SCORE.INTER.CONST>
1

>  <SCORE.INTER.POLAR>
-6.38126

>  <SCORE.INTER.REPUL>
0.0387082

>  <SCORE.INTER.ROT>
1

>  <SCORE.INTER.VDW>
-13.3113

>  <SCORE.INTER.norm>
-2.36784

>  <SCORE.INTRA>
-1.76768

>  <SCORE.INTRA.DIHEDRAL>
-5.107

>  <SCORE.INTRA.DIHEDRAL.0>
5.90734

>  <SCORE.INTRA.POLAR>
0

>  <SCORE.INTRA.POLAR.0>
0

>  <SCORE.INTRA.REPUL>
0

>  <SCORE.INTRA.REPUL.0>
0

>  <SCORE.INTRA.VDW>
0.785817

>  <SCORE.INTRA.VDW.0>
-1.04786

>  <SCORE.INTRA.norm>
-0.147307

>  <SCORE.RESTR>
0

>  <SCORE.RESTR.CAVITY>
0

>  <SCORE.RESTR.norm>
0

>  <SCORE.SYSTEM>
2.41094

>  <SCORE.SYSTEM.CONST>
0

>  <SCORE.SYSTEM.DIHEDRAL>
3.14801

>  <SCORE.SYSTEM.VDW>
0.836937

>  <SCORE.SYSTEM.norm>
0.200912

>  <SCORE.heavy>
12

>  <SCORE.norm>
-2.31423

>  <SMILES>
[NH3+][C@H]1[C@@H](O)O[C@H](CO)[C@H](O)[C@@H]1O

>  <UniqueID>
101

$$$$
5284365
  rDOCK(R)          3D
libRbt.so/2013.1/901 2013/11/27
 26 26  0  0  0  0  0  0  0  0999 V2000
   88.9627   18.6528 -103.7727 H   0  0  0  0  0  0
   88.9564   19.4356 -103.1303 O   0  0  0  0  0  0
   87.7574   19.9440 -102.6292 C   0  0  0  0  0  0
   86.5251   19.3530 -103.0704 N   0  0  0  0  0  0
   85.9415   19.9131 -103.7321 H   0  0  0  0  0  0
   86.2950   17.9046 -103.0154 C   0  0  0  0  0  0
   84.8454   17.6044 -102.5796 C   0  0  0  0  0  0
   83.9069   18.2464 -103.4113 O   0  0  0  0  0  0
   83.0042   18.0172 -103.0675 H   0  0  0  0  0  0
   84.6080   16.2065 -102.5477 O   0  0  0  0  0  0
   84.7499   15.6158 -103.8321 C   0  0  0  0  0  0
   84.3580   14.1360 -103.7120 C   0  0  0  0  0  0
   83.0347   14.0120 -103.2682 O   0  0  0  0  0  0
   82.9650   14.5696 -102.4502 H   0  0  0  0  0  0
   86.2009   15.7730 -104.3502 C   0  0  0  0  0  0
   86.3067   15.2364 -105.6445 O   0  0  0  0  0  0
   86.3240   14.2486 -105.5474 H   0  0  0  0  0  0
   86.5867   17.2611 -104.3818 C   0  0  0  0  0  0
   87.9543   17.3767 -104.6830 O   0  0  0  0  0  0
   88.0847   16.9945 -105.5896 H   0  0  0  0  0  0
   87.7655   20.9523 -101.7926 N   0  3  0  0  0  0
   86.5424   21.5286 -101.3958 N   0  0  0  0  0  0
   86.4938   22.5789 -100.7222 O   0  0  0  0  0  0
   89.0381   21.4959 -101.2816 C   0  0  0  0  0  0
   89.3362   20.9709  -99.8754 C   0  0  0  0  0  0
   90.8130   21.7148  -99.2079 Cl  0  0  0  0  0  0
  1  2  1  0  0  0
  2  3  1  0  0  0
  3  4  1  0  0  0
  3 21  2  0  0  0
  4  5  1  0  0  0
  4  6  1  0  0  0
  6  7  1  0  0  0
  7  8  1  0  0  0
  7 10  1  0  0  0
  8  9  1  0  0  0
 10 11  1  0  0  0
 11 12  1  0  0  0
 11 15  1  0  0  0
 12 13  1  0  0  0
 13 14  1  0  0  0
 15 16  1  0  0  0
 15 18  1  0  0  0
 16 17  1  0  0  0
 18 19  1  0  0  0
 18  6  1  0  0  0
 19 20  1  0  0  0
 21 22  1  0  0  0
 21 24  1  0  0  0
 22 23  2  0  0  0
 24 25  1  0  0  0
 25 26  1  0  0  0
M  END
>  <CHROM.0>
77.78209660,152.40197191,-69.69647693

>  <CHROM.1>
-1.49721950,-107.19972809,140.59266075,-179.41359041,59.64933907,-51.77906544
-76.08899952,-176.97514222,-171.89697873,-100.07061665,-175.95509557,86.85170787
18.54993467,-102.52532937,-0.99678680,-0.15004400,-2.51022281

>  <Energy>
37.87978064239549

>  <Genealogy>
O=N[NH+](CCCl)C(=O)N[C@H]1[C@@H](O)O[C@H](CO)[C@@H](O)[C@@H]1O (protonated)
O=N[N+](CCCl)=C(O)N[C@H]1[C@@H](O)O[C@H](CO)[C@@H](O)[C@@H]1O (tautomer)
O=N/[N+](CCCl)=C(/O)N[C@H]1[C@@H](O)O[C@H](CO)[C@@H](O)[C@@H]1O (cis-trans isomerization)
O=N/[N+](CCCl)=C(/O)N[C@H]1[C@@H](O)O[C@H](CO)[C@@H](O)[C@@H]1O (3D coordinates assigned)
O=N/[N+](CCCl)=C(/O)N[C@H]1[C@@H](O)O[C@H](CO)[C@@H](O)[C@@H]1O (nonaromatic ring conformer: 37.87978064239549 kcal/mol)

>  <Name>
5284365

>  <RI>
3.95439e+07

>  <Rbt.Current_Directory>
/home/edward/Documentos/Virtual_Screening/rDock/2

>  <Rbt.Executable>
rbdock ($Id: //depot/dev/client3/rdock/2013.1/src/exe/rbdock.cxx#4 $)

>  <Rbt.Library>
libRbt.so (2013.1, Build901 2013/11/27)

>  <Rbt.Parameter_File>
/home/edward/anaconda3/envs/MD/share/rdock-2013.1-1/data/scripts/dock.prm

>  <Rbt.Receptor>
parameters.prm

>  <SCORE>
-17.823

>  <SCORE.INTER>
-15.4579

>  <SCORE.INTER.CONST>
1

>  <SCORE.INTER.POLAR>
-3.85314

>  <SCORE.INTER.REPUL>
0.12254

>  <SCORE.INTER.ROT>
6

>  <SCORE.INTER.VDW>
-14.3699

>  <SCORE.INTER.norm>
-0.772894

>  <SCORE.INTRA>
-5.53053

>  <SCORE.INTRA.DIHEDRAL>
-6.30598

>  <SCORE.INTRA.DIHEDRAL.0>
11.855

>  <SCORE.INTRA.POLAR>
-1.01712

>  <SCORE.INTRA.POLAR.0>
0

>  <SCORE.INTRA.REPUL>
0

>  <SCORE.INTRA.REPUL.0>
0

>  <SCORE.INTRA.VDW>
1.08069

>  <SCORE.INTRA.VDW.0>
-3.16925

>  <SCORE.INTRA.norm>
-0.276526

>  <SCORE.RESTR>
0

>  <SCORE.RESTR.CAVITY>
0

>  <SCORE.RESTR.norm>
0

>  <SCORE.SYSTEM>
3.16541

>  <SCORE.SYSTEM.CONST>
0

>  <SCORE.SYSTEM.DIHEDRAL>
4.89266

>  <SCORE.SYSTEM.VDW>
0.719077

>  <SCORE.SYSTEM.norm>
0.15827

>  <SCORE.heavy>
20

>  <SCORE.norm>
-0.89115

>  <SMILES>
O=N/[N+](CCCl)=C(/O)N[C@H]1[C@@H](O)O[C@H](CO)[C@@H](O)[C@@H]1O

>  <UniqueID>
104

$$$$
4282259
  rDOCK(R)          3D
libRbt.so/2013.1/901 2013/11/27
 25 26  0  0  0  0  0  0  0  0999 V2000
   90.1457   13.3350 -105.1779 H   0  0  0  0  0  0
   90.5871   14.2357 -105.0343 O   0  0  0  0  0  0
   89.8659   15.3205 -104.5435 C   0  0  0  0  0  0
   88.6179   15.1498 -104.2070 N   0  0  0  0  0  0
   87.7049   16.1580 -103.6556 C   0  0  0  0  0  0
   87.3946   15.8456 -102.1768 C   0  0  0  0  0  0
   88.6040   15.9027 -101.4238 O   0  0  0  0  0  0
   89.3550   17.0655 -101.1952 C   0  0  0  0  0  0
   90.4950   16.9694 -100.3868 C   0  0  0  0  0  0
   91.2781   18.0984 -100.1276 C   0  0  0  0  0  0
   90.9263   19.3345 -100.6753 C   0  0  0  0  0  0
   89.7909   19.4430 -101.4822 C   0  0  0  0  0  0
   89.0048   18.3161 -101.7435 C   0  0  0  0  0  0
   86.4846   16.8006 -101.6555 O   0  0  0  0  0  0
   85.2264   16.6885 -102.2980 C   0  0  0  0  0  0
   84.2192   17.5859 -101.5622 C   0  0  0  0  0  0
   84.5863   18.9365 -101.6551 O   0  0  0  0  0  0
   83.8115   19.4648 -101.3292 H   0  0  0  0  0  0
   85.3521   17.0741 -103.7916 C   0  0  0  0  0  0
   85.7423   18.4198 -103.9057 O   0  0  0  0  0  0
   85.1030   18.9510 -103.3626 H   0  0  0  0  0  0
   86.3986   16.1659 -104.4720 C   0  0  0  0  0  0
   85.8975   14.8566 -104.5855 O   0  0  0  0  0  0
   86.6283   14.3012 -104.9641 H   0  0  0  0  0  0
   90.5563   16.6500 -104.4501 C   0  0  0  0  0  0
  1  2  1  0  0  0
  2  3  1  0  0  0
  3  4  2  0  0  0
  3 25  1  0  0  0
  4  5  1  0  0  0
  5  6  1  0  0  0
  6  7  1  0  0  0
  6 14  1  0  0  0
  7  8  1  0  0  0
  8  9  2  0  0  0
  9 10  1  0  0  0
 10 11  2  0  0  0
 11 12  1  0  0  0
 12 13  2  0  0  0
 13  8  1  0  0  0
 14 15  1  0  0  0
 15 16  1  0  0  0
 15 19  1  0  0  0
 16 17  1  0  0  0
 17 18  1  0  0  0
 19 20  1  0  0  0
 19 22  1  0  0  0
 20 21  1  0  0  0
 22 23  1  0  0  0
 22  5  1  0  0  0
 23 24  1  0  0  0
M  END
>  <CHROM.0>
-70.73307818,152.95441417,-64.85211291

>  <CHROM.1>
3.21859358,-110.14057396,66.63629869,177.41611422,63.63431565,168.63094941
-52.75861102,-54.46065287,87.91696451,16.87693663,-102.67295643,-0.11982680
0.11916407,-2.32066766

>  <Energy>
38.7930630038899

>  <Genealogy>
CC(O)=NC1C(Oc2ccccc2)OC(CO)C(O)C1O (tautomer)
CC(O)=N[C@@H]1[C@@H](Oc2ccccc2)O[C@@H](CO)[C@@H](O)[C@@H]1O (chirality)
C/C(O)=N\[C@@H]1[C@@H](Oc2ccccc2)O[C@@H](CO)[C@@H](O)[C@@H]1O (cis-trans isomerization)
C/C(O)=N\[C@@H]1[C@@H](Oc2ccccc2)O[C@@H](CO)[C@@H](O)[C@@H]1O (3D coordinates assigned)
C/C(O)=N\[C@@H]1[C@@H](Oc2ccccc2)O[C@@H](CO)[C@@H](O)[C@@H]1O (nonaromatic ring conformer: 38.7930630038899 kcal/mol)

>  <Name>
4282259

>  <RI>
3.95439e+07

>  <Rbt.Current_Directory>
/home/edward/Documentos/Virtual_Screening/rDock/2

>  <Rbt.Executable>
rbdock ($Id: //depot/dev/client3/rdock/2013.1/src/exe/rbdock.cxx#4 $)

>  <Rbt.Library>
libRbt.so (2013.1, Build901 2013/11/27)

>  <Rbt.Parameter_File>
/home/edward/anaconda3/envs/MD/share/rdock-2013.1-1/data/scripts/dock.prm

>  <Rbt.Receptor>
parameters.prm

>  <SCORE>
-15.5438

>  <SCORE.INTER>
-15.1579

>  <SCORE.INTER.CONST>
1

>  <SCORE.INTER.POLAR>
-2.68241

>  <SCORE.INTER.REPUL>
0.0456896

>  <SCORE.INTER.ROT>
4

>  <SCORE.INTER.VDW>
-15.6662

>  <SCORE.INTER.norm>
-0.721807

>  <SCORE.INTRA>
-3.75701

>  <SCORE.INTRA.DIHEDRAL>
-3.08211

>  <SCORE.INTRA.DIHEDRAL.0>
4.65856

>  <SCORE.INTRA.POLAR>
-0.812962

>  <SCORE.INTRA.POLAR.0>
0

>  <SCORE.INTRA.REPUL>
0

>  <SCORE.INTRA.REPUL.0>
0

>  <SCORE.INTRA.VDW>
0.54812

>  <SCORE.INTRA.VDW.0>
-2.27986

>  <SCORE.INTRA.norm>
-0.178905

>  <SCORE.RESTR>
0

>  <SCORE.RESTR.CAVITY>
0

>  <SCORE.RESTR.norm>
0

>  <SCORE.SYSTEM>
3.37116

>  <SCORE.SYSTEM.CONST>
0

>  <SCORE.SYSTEM.DIHEDRAL>
3.93002

>  <SCORE.SYSTEM.VDW>
1.40615

>  <SCORE.SYSTEM.norm>
0.160531

>  <SCORE.heavy>
21

>  <SCORE.norm>
-0.74018

>  <SMILES>
C/C(O)=N\[C@@H]1[C@@H](Oc2ccccc2)O[C@@H](CO)[C@@H](O)[C@@H]1O

>  <UniqueID>
105

$$$$
3052142
  rDOCK(R)          3D
libRbt.so/2013.1/901 2013/11/27
 29 29  0  0  0  0  0  0  0  0999 V2000
   87.6814   26.7449 -102.9851 H   0  0  0  0  0  0
   86.7695   27.1481 -102.8077 O   0  0  0  0  0  0
   85.6313   26.3494 -102.7082 C   0  0  0  0  0  0
   85.7137   25.0513 -102.7571 N   0  0  0  0  0  0
   86.9329   24.2400 -102.8731 C   0  0  0  0  0  0
   87.3359   23.5734 -101.5363 C   0  0  0  0  0  0
   87.5638   24.5874 -100.5563 O   0  0  0  0  0  0
   88.5252   25.5974 -100.6796 C   0  0  0  0  0  0
   89.1904   25.7346 -101.7417 O   0  0  0  0  0  0
   88.7152   26.5664  -99.5634 C   0  0  0  0  0  0
   88.5447   22.8521 -101.7041 O   0  0  0  0  0  0
   88.3669   21.7778 -102.6135 C   0  0  0  0  0  0
   89.6206   20.8904 -102.5722 C   0  0  0  0  0  0
   89.8628   20.3916 -101.2571 O   0  0  0  0  0  0
   90.7081   19.3109 -100.9836 C   0  0  0  0  0  0
   91.1836   18.6087 -101.9168 O   0  0  0  0  0  0
   91.0836   19.0142  -99.5721 C   0  0  0  0  0  0
   88.0844   22.3209 -104.0359 C   0  0  0  0  0  0
   89.1833   23.1127 -104.5002 O   0  0  0  0  0  0
   89.3792   23.4759 -105.8376 C   0  0  0  0  0  0
   88.6002   23.0702 -106.7422 O   0  0  0  0  0  0
   90.4935   24.4016 -106.1869 C   0  0  0  0  0  0
   86.8157   23.1923 -103.9981 C   0  0  0  0  0  0
   86.6317   23.8616 -105.2472 O   0  0  0  0  0  0
   85.3762   24.1251 -105.8056 C   0  0  0  0  0  0
   84.3259   23.6617 -105.2839 O   0  0  0  0  0  0
   85.2776   25.0131 -106.9984 C   0  0  0  0  0  0
   84.2857   26.9889 -102.5720 C   0  0  0  0  0  0
   83.9347   27.9725 -104.0123 Cl  0  0  0  0  0  0
  1  2  1  0  0  0
  2  3  1  0  0  0
  3  4  2  0  0  0
  3 28  1  0  0  0
  4  5  1  0  0  0
  5  6  1  0  0  0
  6  7  1  0  0  0
  6 11  1  0  0  0
  7  8  1  0  0  0
  8  9  2  0  0  0
  8 10  1  0  0  0
 11 12  1  0  0  0
 12 13  1  0  0  0
 12 18  1  0  0  0
 13 14  1  0  0  0
 14 15  1  0  0  0
 15 16  2  0  0  0
 15 17  1  0  0  0
 18 19  1  0  0  0
 18 23  1  0  0  0
 19 20  1  0  0  0
 20 21  2  0  0  0
 20 22  1  0  0  0
 23 24  1  0  0  0
 23  5  1  0  0  0
 24 25  1  0  0  0
 25 26  2  0  0  0
 25 27  1  0  0  0
 28 29  1  0  0  0
M  END
>  <CHROM.0>
175.81398926,152.78628818,-174.48021960

>  <CHROM.1>
4.31033650,62.09326278,104.17686942,-59.86363143,5.85646391,58.33904059,163.15876055
-8.69760106,164.24241847,-2.77222402,-93.60832508,-6.97130635,87.62455217
23.88804014,-103.15652265,-3.12685011,0.90059287,-1.96695504

>  <Energy>
34.58612736177272

>  <Genealogy>
CC(=O)OC[C@H]1O[C@@H](OC(C)=O)[C@H](N=C(O)CCl)[C@@H](OC(C)=O)[C@H]1OC(C)=O (tautomer)
CC(=O)OC[C@H]1O[C@@H](OC(C)=O)[C@H](/N=C(\O)CCl)[C@@H](OC(C)=O)[C@H]1OC(C)=O (cis-trans isomerization)
CC(=O)OC[C@H]1O[C@@H](OC(C)=O)[C@H](/N=C(\O)CCl)[C@@H](OC(C)=O)[C@H]1OC(C)=O (3D coordinates assigned)
CC(=O)OC[C@H]1O[C@@H](OC(C)=O)[C@H](/N=C(\O)CCl)[C@@H](OC(C)=O)[C@H]1OC(C)=O (nonaromatic ring conformer: 34.58612736177272 kcal/mol)

>  <Name>
3052142

>  <RI>
3.95439e+07

>  <Rbt.Current_Directory>
/home/edward/Documentos/Virtual_Screening/rDock/2

>  <Rbt.Executable>
rbdock ($Id: //depot/dev/client3/rdock/2013.1/src/exe/rbdock.cxx#4 $)

>  <Rbt.Library>
libRbt.so (2013.1, Build901 2013/11/27)

>  <Rbt.Parameter_File>
/home/edward/anaconda3/envs/MD/share/rdock-2013.1-1/data/scripts/dock.prm

>  <Rbt.Receptor>
parameters.prm

>  <SCORE>
-6.44346

>  <SCORE.INTER>
-7.32296

>  <SCORE.INTER.CONST>
1

>  <SCORE.INTER.POLAR>
-1.64144

>  <SCORE.INTER.REPUL>
0

>  <SCORE.INTER.ROT>
11

>  <SCORE.INTER.VDW>
-18.1421

>  <SCORE.INTER.norm>
-0.261534

>  <SCORE.INTRA>
-2.76732

>  <SCORE.INTRA.DIHEDRAL>
-6.96464

>  <SCORE.INTRA.DIHEDRAL.0>
17.0801

>  <SCORE.INTRA.POLAR>
0

>  <SCORE.INTRA.POLAR.0>
0

>  <SCORE.INTRA.REPUL>
0.0260655

>  <SCORE.INTRA.REPUL.0>
0

>  <SCORE.INTRA.VDW>
0.58467

>  <SCORE.INTRA.VDW.0>
-6.13581

>  <SCORE.INTRA.norm>
-0.098833

>  <SCORE.RESTR>
0

>  <SCORE.RESTR.CAVITY>
0

>  <SCORE.RESTR.norm>
0

>  <SCORE.SYSTEM>
3.64682

>  <SCORE.SYSTEM.CONST>
0

>  <SCORE.SYSTEM.DIHEDRAL>
3.87917

>  <SCORE.SYSTEM.VDW>
1.70724

>  <SCORE.SYSTEM.norm>
0.130244

>  <SCORE.heavy>
28

>  <SCORE.norm>
-0.230124

>  <SMILES>
CC(=O)OC[C@H]1O[C@@H](OC(C)=O)[C@H](/N=C(\O)CCl)[C@@H](OC(C)=O)[C@H]1OC(C)=O

>  <UniqueID>
107

$$$$
2801971
  rDOCK(R)          3D
libRbt.so/2013.1/901 2013/11/27
 26 27  0  0  0  0  0  0  0  0999 V2000
   89.6563   19.4679  -98.6899 C   0  0  0  0  0  0
   89.0387   18.2397  -99.2743 C   0  0  0  0  0  0
   88.2597   17.5399  -98.5721 O   0  0  0  0  0  0
   89.3085   17.8835 -100.6370 N   0  0  0  0  0  0
   88.7589   16.6695 -101.2562 C   0  0  0  0  0  0
   87.4039   16.9647 -101.9369 C   0  0  0  0  0  0
   86.5240   17.5504 -100.9893 O   0  0  0  0  0  0
   85.2028   17.6515 -101.4879 C   0  0  0  0  0  0
   84.6215   16.2813 -101.7176 C   0  0  0  0  0  0
   84.6642   15.3073 -100.7058 C   0  0  0  0  0  0
   84.1477   14.0287 -100.9380 C   0  0  0  0  0  0
   83.5888   13.7136 -102.1797 C   0  0  0  0  0  0
   83.5471   14.6761 -103.1921 C   0  0  0  0  0  0
   84.0634   15.9556 -102.9644 C   0  0  0  0  0  0
   87.5688   17.8897 -102.9995 O   0  0  0  0  0  0
   88.3929   17.3902 -104.0457 C   0  0  0  0  0  0
   87.6822   16.3119 -104.8908 C   0  0  0  0  0  0
   87.1331   15.3335 -104.0509 O   0  0  0  0  0  0
   89.8049   16.9811 -103.5502 C   0  0  0  0  0  0
   90.5376   18.1480 -103.2715 O   0  0  0  0  0  0
   89.7455   16.0920 -102.2867 C   0  0  0  0  0  0
   89.3556   14.7844 -102.6216 O   0  0  0  0  0  0
   89.8998   18.5320 -101.2056 H   0  0  0  0  0  0
   86.8066   14.6096 -104.6462 H   0  0  0  0  0  0
   91.4507   17.8613 -103.0063 H   0  0  0  0  0  0
   88.4185   14.8360 -102.9454 H   0  0  0  0  0  0
  1  2  1  0  0  0
  2  3  2  0  0  0
  2  4  1  0  0  0
  4  5  1  0  0  0
  4 23  1  0  0  0
  5  6  1  0  0  0
  6  7  1  0  0  0
  6 15  1  0  0  0
  7  8  1  0  0  0
  8  9  1  0  0  0
  9 10  2  0  0  0
 10 11  1  0  0  0
 11 12  2  0  0  0
 12 13  1  0  0  0
 13 14  2  0  0  0
 14  9  1  0  0  0
 15 16  1  0  0  0
 16 17  1  0  0  0
 16 19  1  0  0  0
 17 18  1  0  0  0
 18 24  1  0  0  0
 19 20  1  0  0  0
 19 21  1  0  0  0
 20 25  1  0  0  0
 21 22  1  0  0  0
 21  5  1  0  0  0
 22 26  1  0  0  0
M  END
>  <CHROM.0>
-87.51431116,155.05237112,-60.35009409

>  <CHROM.1>
91.14311431,-170.70178105,64.96252442,50.86157596,-50.56005222,-172.17902313
-176.88188000,56.16261258,87.32977258,16.62058186,-101.93599149,0.36569845
0.40417517,1.18839670

>  <Energy>
46.58883820275616

>  <Genealogy>
CC(=O)N[C@H]1[C@@H](OCc2ccccc2)O[C@H](CO)[C@@H](O)[C@@H]1O (3D coordinates assigned)
CC(=O)N[C@H]1[C@@H](OCc2ccccc2)O[C@H](CO)[C@@H](O)[C@@H]1O (nonaromatic ring conformer: 46.58883820275616 kcal/mol)

>  <Name>
2801971

>  <RI>
3.95439e+07

>  <Rbt.Current_Directory>
/home/edward/Documentos/Virtual_Screening/rDock/2

>  <Rbt.Executable>
rbdock ($Id: //depot/dev/client3/rdock/2013.1/src/exe/rbdock.cxx#4 $)

>  <Rbt.Library>
libRbt.so (2013.1, Build901 2013/11/27)

>  <Rbt.Parameter_File>
/home/edward/anaconda3/envs/MD/share/rdock-2013.1-1/data/scripts/dock.prm

>  <Rbt.Receptor>
parameters.prm

>  <SCORE>
-17.2897

>  <SCORE.INTER>
-12.749

>  <SCORE.INTER.CONST>
1

>  <SCORE.INTER.POLAR>
-2.57161

>  <SCORE.INTER.REPUL>
0

>  <SCORE.INTER.ROT>
5

>  <SCORE.INTER.VDW>
-14.4056

>  <SCORE.INTER.norm>
-0.579501

>  <SCORE.INTRA>
-8.26394

>  <SCORE.INTRA.DIHEDRAL>
-9.8283

>  <SCORE.INTRA.DIHEDRAL.0>
13.1841

>  <SCORE.INTRA.POLAR>
-1.24106

>  <SCORE.INTRA.POLAR.0>
0

>  <SCORE.INTRA.REPUL>
0

>  <SCORE.INTRA.REPUL.0>
0

>  <SCORE.INTRA.VDW>
0.869812

>  <SCORE.INTRA.VDW.0>
-3.08024

>  <SCORE.INTRA.norm>
-0.375634

>  <SCORE.RESTR>
0

>  <SCORE.RESTR.CAVITY>
0

>  <SCORE.RESTR.norm>
0

>  <SCORE.SYSTEM>
3.72324

>  <SCORE.SYSTEM.CONST>
0

>  <SCORE.SYSTEM.DIHEDRAL>
6.24284

>  <SCORE.SYSTEM.VDW>
0.601823

>  <SCORE.SYSTEM.norm>
0.169238

>  <SCORE.heavy>
22

>  <SCORE.norm>
-0.785896

>  <SMILES>
CC(=O)N[C@H]1[C@@H](OCc2ccccc2)O[C@H](CO)[C@@H](O)[C@@H]1O

>  <UniqueID>
109

$$$$
2733787
  rDOCK(R)          3D
libRbt.so/2013.1/901 2013/11/27
 31 33  0  0  0  0  0  0  0  0999 V2000
   87.5269   17.3139 -105.2566 H   0  0  0  0  0  0
   87.4820   16.6537 -104.4896 O   0  0  0  0  0  0
   88.3049   16.7886 -103.3719 C   0  0  0  0  0  0
   89.1640   17.7606 -103.2929 N   0  0  0  0  0  0
   89.3660   18.7809 -104.3247 C   0  0  0  0  0  0
   89.2455   20.1743 -103.6820 C   0  0  0  0  0  0
   87.9345   20.3157 -103.1358 O   0  0  0  0  0  0
   87.4635   21.4537 -102.4627 C   0  0  0  0  0  0
   87.2314   21.4709 -101.0748 C   0  0  0  0  0  0
   86.7625   22.6292 -100.4486 C   0  0  0  0  0  0
   86.5146   23.7947 -101.1990 C   0  0  0  0  0  0
   86.0404   24.9928 -100.6181 C   0  0  0  0  0  0
   85.7641   25.1106  -99.1416 C   0  0  0  0  0  0
   85.8229   26.1014 -101.4478 C   0  0  0  0  0  0
   86.0780   25.9957 -102.8168 C   0  0  0  0  0  0
   85.8855   26.9860 -103.5697 O   0  0  0  0  0  0
   86.5232   24.8562 -103.3326 O   0  0  0  0  0  0
   86.7474   23.7733 -102.5949 C   0  0  0  0  0  0
   87.2171   22.6090 -103.2111 C   0  0  0  0  0  0
   89.4477   21.1838 -104.6566 O   0  0  0  0  0  0
   90.7831   21.1551 -105.1295 C   0  0  0  0  0  0
   91.0130   22.3798 -106.0271 C   0  0  0  0  0  0
   90.8418   23.5720 -105.3063 O   0  0  0  0  0  0
   90.9965   24.3186 -105.9419 H   0  0  0  0  0  0
   91.0538   19.8293 -105.8850 C   0  0  0  0  0  0
   92.3747   19.7764 -106.3658 O   0  0  0  0  0  0
   92.9718   19.6192 -105.5881 H   0  0  0  0  0  0
   90.7600   18.6262 -104.9649 C   0  0  0  0  0  0
   90.8094   17.4365 -105.7091 O   0  0  0  0  0  0
   90.0584   17.4708 -106.3575 H   0  0  0  0  0  0
   88.2171   15.7931 -102.2606 C   0  0  0  0  0  0
  1  2  1  0  0  0
  2  3  1  0  0  0
  3  4  2  0  0  0
  3 31  1  0  0  0
  4  5  1  0  0  0
  5  6  1  0  0  0
  6  7  1  0  0  0
  6 20  1  0  0  0
  7  8  1  0  0  0
  8  9  2  0  0  0
  9 10  1  0  0  0
 10 11  2  0  0  0
 11 12  1  0  0  0
 12 13  1  0  0  0
 12 14  2  0  0  0
 14 15  1  0  0  0
 15 16  2  0  0  0
 15 17  1  0  0  0
 17 18  1  0  0  0
 18 19  2  0  0  0
 18 11  1  0  0  0
 19  8  1  0  0  0
 20 21  1  0  0  0
 21 22  1  0  0  0
 21 25  1  0  0  0
 22 23  1  0  0  0
 23 24  1  0  0  0
 25 26  1  0  0  0
 25 28  1  0  0  0
 26 27  1  0  0  0
 28 29  1  0  0  0
 28  5  1  0  0  0
 29 30  1  0  0  0
M  END
>  <CHROM.0>
177.36083784,154.34709015,-63.73721637

>  <CHROM.1>
-0.76752167,126.76588337,179.55393945,-108.75296485,61.76132603,-179.57113872
73.56225965,55.21589098,88.40489682,21.41463651,-103.45253038,0.88070692
-0.79474106,3.02339390

>  <Energy>
51.89889767734323

>  <Genealogy>
CC(O)=N[C@H]1[C@H](Oc2ccc3c(C)cc(=O)oc3c2)O[C@H](CO)[C@@H](O)[C@@H]1O (tautomer)
C/C(O)=N\[C@H]1[C@H](Oc2ccc3c(C)cc(=O)oc3c2)O[C@H](CO)[C@@H](O)[C@@H]1O (cis-trans isomerization)
C/C(O)=N\[C@H]1[C@H](Oc2ccc3c(C)cc(=O)oc3c2)O[C@H](CO)[C@@H](O)[C@@H]1O (3D coordinates assigned)
C/C(O)=N\[C@H]1[C@H](Oc2ccc3c(C)cc(=O)oc3c2)O[C@H](CO)[C@@H](O)[C@@H]1O (nonaromatic ring conformer: 51.89889767734323 kcal/mol)

>  <Name>
2733787

>  <RI>
3.95439e+07

>  <Rbt.Current_Directory>
/home/edward/Documentos/Virtual_Screening/rDock/2

>  <Rbt.Executable>
rbdock ($Id: //depot/dev/client3/rdock/2013.1/src/exe/rbdock.cxx#4 $)

>  <Rbt.Library>
libRbt.so (2013.1, Build901 2013/11/27)

>  <Rbt.Parameter_File>
/home/edward/anaconda3/envs/MD/share/rdock-2013.1-1/data/scripts/dock.prm

>  <Rbt.Receptor>
parameters.prm

>  <SCORE>
-17.9566

>  <SCORE.INTER>
-18.5038

>  <SCORE.INTER.CONST>
1

>  <SCORE.INTER.POLAR>
-2.95986

>  <SCORE.INTER.REPUL>
0.0121568

>  <SCORE.INTER.ROT>
4

>  <SCORE.INTER.VDW>
-17.901

>  <SCORE.INTER.norm>
-0.685325

>  <SCORE.INTRA>
-1.21718

>  <SCORE.INTRA.DIHEDRAL>
-2.30462

>  <SCORE.INTRA.DIHEDRAL.0>
7.71167

>  <SCORE.INTRA.POLAR>
0

>  <SCORE.INTRA.POLAR.0>
0

>  <SCORE.INTRA.REPUL>
0

>  <SCORE.INTRA.REPUL.0>
0

>  <SCORE.INTRA.VDW>
-0.0648744

>  <SCORE.INTRA.VDW.0>
-1.94023

>  <SCORE.INTRA.norm>
-0.0450808

>  <SCORE.RESTR>
0

>  <SCORE.RESTR.CAVITY>
0

>  <SCORE.RESTR.norm>
0

>  <SCORE.SYSTEM>
1.76438

>  <SCORE.SYSTEM.CONST>
0

>  <SCORE.SYSTEM.DIHEDRAL>
3.17583

>  <SCORE.SYSTEM.VDW>
0.17646

>  <SCORE.SYSTEM.norm>
0.0653473

>  <SCORE.heavy>
27

>  <SCORE.norm>
-0.665058

>  <SMILES>
C/C(O)=N\[C@H]1[C@H](Oc2ccc3c(C)cc(=O)oc3c2)O[C@H](CO)[C@@H](O)[C@@H]1O

>  <UniqueID>
111

$$$$
2733335
  rDOCK(R)          3D
libRbt.so/2013.1/901 2013/11/27
 23 23  0  0  0  0  0  0  0  0999 V2000
   91.8261   17.6198  -99.4309 H   0  0  0  0  0  0
   91.3576   17.3758 -100.2917 O   0  0  0  0  0  0
   90.8122   18.3095 -101.1789 C   0  0  0  0  0  0
   90.2145   17.9471 -102.2805 N   0  0  0  0  0  0
   89.9726   16.5850 -102.7685 C   0  0  0  0  0  0
   88.8308   15.9158 -101.9720 C   0  0  0  0  0  0
   89.1586   15.8706 -100.6086 O   0  0  0  0  0  0
   89.9592   15.2896 -100.5200 H   0  0  0  0  0  0
   87.6236   16.6460 -102.1101 O   0  0  0  0  0  0
   87.1482   16.6744 -103.4510 C   0  0  0  0  0  0
   86.5578   15.3246 -103.9061 C   0  0  0  0  0  0
   86.4042   15.3213 -105.2985 O   0  0  0  0  0  0
   86.4343   14.3694 -105.5776 H   0  0  0  0  0  0
   88.1863   17.2628 -104.4450 C   0  0  0  0  0  0
   88.2754   18.6540 -104.2619 O   0  0  0  0  0  0
   88.7268   18.8048 -103.3904 H   0  0  0  0  0  0
   89.5885   16.6446 -104.2557 C   0  0  0  0  0  0
   89.6355   15.3510 -104.8030 O   0  0  0  0  0  0
   89.3915   15.4336 -105.7620 H   0  0  0  0  0  0
   90.9237   19.7056 -100.8582 N   0  0  0  0  0  0
   91.4558   20.0589  -99.6051 N   0  0  0  0  0  0
   91.9510   19.2061  -98.8393 O   0  0  0  0  0  0
   90.3623   20.7296 -101.7466 C   0  0  0  0  0  0
  1  2  1  0  0  0
  2  3  1  0  0  0
  3  4  2  0  0  0
  3 20  1  0  0  0
  4  5  1  0  0  0
  5  6  1  0  0  0
  6  7  1  0  0  0
  6  9  1  0  0  0
  7  8  1  0  0  0
  9 10  1  0  0  0
 10 11  1  0  0  0
 10 14  1  0  0  0
 11 12  1  0  0  0
 12 13  1  0  0  0
 14 15  1  0  0  0
 14 17  1  0  0  0
 15 16  1  0  0  0
 17 18  1  0  0  0
 17  5  1  0  0  0
 18 19  1  0  0  0
 20 21  1  0  0  0
 20 23  1  0  0  0
 21 22  2  0  0  0
M  END
>  <CHROM.0>
-178.62277962,158.19593067,-66.57034806

>  <CHROM.1>
-179.96326161,74.84427694,-63.76319531,-166.13808667,154.65167544,70.67069931
-179.42141001,7.43814859,89.35292790,17.39450397,-102.36689730,-0.13304868
0.95868238,2.63840808

>  <Energy>
36.18172706735983

>  <Genealogy>
CN(N=O)C(O)=N[C@H]1C(O)O[C@H](CO)[C@@H](O)[C@@H]1O (tautomer)
CN(N=O)C(O)=N[C@H]1[C@@H](O)O[C@H](CO)[C@@H](O)[C@@H]1O (chirality)
CN(N=O)/C(O)=N/[C@H]1[C@@H](O)O[C@H](CO)[C@@H](O)[C@@H]1O (cis-trans isomerization)
CN(N=O)/C(O)=N/[C@H]1[C@@H](O)O[C@H](CO)[C@@H](O)[C@@H]1O (3D coordinates assigned)
CN(N=O)/C(O)=N/[C@H]1[C@@H](O)O[C@H](CO)[C@@H](O)[C@@H]1O (nonaromatic ring conformer: 36.18172706735983 kcal/mol)

>  <Name>
2733335

>  <RI>
3.95439e+07

>  <Rbt.Current_Directory>
/home/edward/Documentos/Virtual_Screening/rDock/2

>  <Rbt.Executable>
rbdock ($Id: //depot/dev/client3/rdock/2013.1/src/exe/rbdock.cxx#4 $)

>  <Rbt.Library>
libRbt.so (2013.1, Build901 2013/11/27)

>  <Rbt.Parameter_File>
/home/edward/anaconda3/envs/MD/share/rdock-2013.1-1/data/scripts/dock.prm

>  <Rbt.Receptor>
parameters.prm

>  <SCORE>
-17.9076

>  <SCORE.INTER>
-17.7008

>  <SCORE.INTER.CONST>
1

>  <SCORE.INTER.POLAR>
-3.70547

>  <SCORE.INTER.REPUL>
0.22501

>  <SCORE.INTER.ROT>
3

>  <SCORE.INTER.VDW>
-14.6272

>  <SCORE.INTER.norm>
-0.983376

>  <SCORE.INTRA>
-2.07669

>  <SCORE.INTRA.DIHEDRAL>
-0.702731

>  <SCORE.INTRA.DIHEDRAL.0>
7.0195

>  <SCORE.INTRA.POLAR>
-0.76051

>  <SCORE.INTRA.POLAR.0>
0

>  <SCORE.INTRA.REPUL>
-0.0566805

>  <SCORE.INTRA.REPUL.0>
0.0566805

>  <SCORE.INTRA.VDW>
1.14381

>  <SCORE.INTRA.VDW.0>
-1.56846

>  <SCORE.INTRA.norm>
-0.115372

>  <SCORE.RESTR>
0

>  <SCORE.RESTR.CAVITY>
0

>  <SCORE.RESTR.norm>
0

>  <SCORE.SYSTEM>
1.86988

>  <SCORE.SYSTEM.CONST>
0

>  <SCORE.SYSTEM.DIHEDRAL>
2.42079

>  <SCORE.SYSTEM.VDW>
0.659481

>  <SCORE.SYSTEM.norm>
0.103882

>  <SCORE.heavy>
18

>  <SCORE.norm>
-0.994865

>  <SMILES>
CN(N=O)/C(O)=N/[C@H]1[C@@H](O)O[C@H](CO)[C@@H](O)[C@@H]1O

>  <UniqueID>
114

$$$$
644170
  rDOCK(R)          3D
libRbt.so/2013.1/901 2013/11/27
 20 20  0  0  0  0  0  0  0  0999 V2000
   85.6878    5.1448 -102.6231 H   0  0  0  0  0  0
   86.5889    5.2373 -102.1699 O   0  0  0  0  0  0
   86.7598    6.0746 -101.0680 C   0  0  0  0  0  0
   85.7626    6.7595 -100.5929 N   0  0  0  0  0  0
   84.3967    6.7310 -101.1262 C   0  0  0  0  0  0
   84.1886    7.9684 -102.0229 C   0  0  0  0  0  0
   82.9704    7.8962 -102.7239 O   0  0  0  0  0  0
   83.0365    8.5326 -103.4830 H   0  0  0  0  0  0
   84.2633    9.1679 -101.2681 O   0  0  0  0  0  0
   83.2387    9.2401 -100.2864 C   0  0  0  0  0  0
   83.3307   10.6062  -99.5896 C   0  0  0  0  0  0
   82.4630   11.5246 -100.1985 O   0  0  0  0  0  0
   82.4870   12.3505  -99.6482 H   0  0  0  0  0  0
   83.3790    8.0952  -99.2564 C   0  0  0  0  0  0
   82.3148    8.1524  -98.3402 O   0  0  0  0  0  0
   81.4801    8.0082  -98.8580 H   0  0  0  0  0  0
   83.3593    6.7404  -99.9836 C   0  0  0  0  0  0
   83.6169    5.7088  -99.0665 O   0  0  0  0  0  0
   83.5159    4.8543  -99.5621 H   0  0  0  0  0  0
   88.0978    6.1701 -100.4091 C   0  0  0  0  0  0
  1  2  1  0  0  0
  2  3  1  0  0  0
  3  4  2  0  0  0
  3 20  1  0  0  0
  4  5  1  0  0  0
  5  6  1  0  0  0
  6  7  1  0  0  0
  6  9  1  0  0  0
  7  8  1  0  0  0
  9 10  1  0  0  0
 10 11  1  0  0  0
 10 14  1  0  0  0
 11 12  1  0  0  0
 12 13  1  0  0  0
 14 15  1  0  0  0
 14 17  1  0  0  0
 15 16  1  0  0  0
 17 18  1  0  0  0
 17  5  1  0  0  0
 18 19  1  0  0  0
M  END
>  <CHROM.0>
-179.01400779,153.03705121,51.90898138

>  <CHROM.1>
0.02879244,-99.63330075,-161.31628442,94.48822522,173.70745282,62.67643293
-62.82827322,84.26668821,7.75804153,-100.54624869,-0.42507982,0.76262497
-0.70409370

>  <Energy>
26.10800706545847

>  <Genealogy>
CC(O)=N[C@@H]1[C@@H](O)O[C@H](CO)[C@@H](O)[C@@H]1O (tautomer)
C/C(O)=N/[C@@H]1[C@@H](O)O[C@H](CO)[C@@H](O)[C@@H]1O (cis-trans isomerization)
C/C(O)=N/[C@@H]1[C@@H](O)O[C@H](CO)[C@@H](O)[C@@H]1O (3D coordinates assigned)
C/C(O)=N/[C@@H]1[C@@H](O)O[C@H](CO)[C@@H](O)[C@@H]1O (nonaromatic ring conformer: 26.10800706545847 kcal/mol)

>  <Name>
644170

>  <RI>
3.95439e+07

>  <Rbt.Current_Directory>
/home/edward/Documentos/Virtual_Screening/rDock/2

>  <Rbt.Executable>
rbdock ($Id: //depot/dev/client3/rdock/2013.1/src/exe/rbdock.cxx#4 $)

>  <Rbt.Library>
libRbt.so (2013.1, Build901 2013/11/27)

>  <Rbt.Parameter_File>
/home/edward/anaconda3/envs/MD/share/rdock-2013.1-1/data/scripts/dock.prm

>  <Rbt.Receptor>
parameters.prm

>  <SCORE>
-16.5831

>  <SCORE.INTER>
-18.4209

>  <SCORE.INTER.CONST>
1

>  <SCORE.INTER.POLAR>
-3.84157

>  <SCORE.INTER.REPUL>
0

>  <SCORE.INTER.ROT>
2

>  <SCORE.INTER.VDW>
-12.7596

>  <SCORE.INTER.norm>
-1.22806

>  <SCORE.INTRA>
-0.554153

>  <SCORE.INTRA.DIHEDRAL>
-1.74468

>  <SCORE.INTRA.DIHEDRAL.0>
7.51627

>  <SCORE.INTRA.POLAR>
0

>  <SCORE.INTRA.POLAR.0>
0

>  <SCORE.INTRA.REPUL>
0

>  <SCORE.INTRA.REPUL.0>
0

>  <SCORE.INTRA.VDW>
0.318186

>  <SCORE.INTRA.VDW.0>
-1.63994

>  <SCORE.INTRA.norm>
-0.0369435

>  <SCORE.RESTR>
0

>  <SCORE.RESTR.CAVITY>
0

>  <SCORE.RESTR.norm>
0

>  <SCORE.SYSTEM>
2.392

>  <SCORE.SYSTEM.CONST>
0

>  <SCORE.SYSTEM.DIHEDRAL>
3.3301

>  <SCORE.SYSTEM.VDW>
0.726954

>  <SCORE.SYSTEM.norm>
0.159467

>  <SCORE.heavy>
15

>  <SCORE.norm>
-1.10554

>  <SMILES>
C/C(O)=N/[C@@H]1[C@@H](O)O[C@H](CO)[C@@H](O)[C@@H]1O

>  <UniqueID>
116

$$$$
449462
  rDOCK(R)          3D
libRbt.so/2013.1/901 2013/11/27
 19 19  0  0  0  0  0  0  0  0999 V2000
   92.5210   16.9234 -104.9460 N   0  3  0  0  0  0
   91.2189   16.4687 -104.4369 C   0  0  0  0  0  0
   90.2289   17.6560 -104.3291 C   0  0  0  0  0  0
   90.7313   18.5909 -103.4130 O   0  0  0  0  0  0
   88.9598   17.2139 -103.8730 O   0  0  0  0  0  0
   88.3708   16.3354 -104.8164 C   0  0  0  0  0  0
   86.9115   16.0695 -104.4216 C   0  0  0  0  0  0
   86.2597   15.3152 -105.4068 O   0  0  0  0  0  0
   89.1895   15.0296 -104.9171 C   0  0  0  0  0  0
   89.2078   14.3758 -103.6717 O   0  0  0  0  0  0
   90.6244   15.3731 -105.3551 C   0  0  0  0  0  0
   91.4165   14.2124 -105.3090 O   0  0  0  0  0  0
   92.3995   17.4076 -105.8646 H   0  0  0  0  0  0
   93.1716   16.1133 -105.0693 H   0  0  0  0  0  0
   92.9463   17.6092 -104.2816 H   0  0  0  0  0  0
   90.7802   18.1271 -102.5366 H   0  0  0  0  0  0
   86.7577   14.4593 -105.4725 H   0  0  0  0  0  0
   89.6044   13.4781 -103.8209 H   0  0  0  0  0  0
   92.2769   14.4257 -105.7559 H   0  0  0  0  0  0
  1  2  1  0  0  0
  1 13  1  0  0  0
  1 14  1  0  0  0
  1 15  1  0  0  0
  2  3  1  0  0  0
  3  4  1  0  0  0
  3  5  1  0  0  0
  4 16  1  0  0  0
  5  6  1  0  0  0
  6  7  1  0  0  0
  6  9  1  0  0  0
  7  8  1  0  0  0
  8 17  1  0  0  0
  9 10  1  0  0  0
  9 11  1  0  0  0
 10 18  1  0  0  0
 11 12  1  0  0  0
 11  2  1  0  0  0
 12 19  1  0  0  0
M  END
>  <CHROM.0>
-66.36881041,151.29167862,-65.19762525

>  <CHROM.1>
-56.12675417,-62.34291676,173.92914775,60.45234575,170.42804245,-68.98360808
89.66925793,16.11149531,-104.56032821,-0.29918504,-0.03874238,-2.82035622

>  <Energy>
23.229676877115722

>  <Genealogy>
[NH3+][C@H]1[C@H](O)O[C@H](CO)[C@H](O)[C@@H]1O (protonated)
[NH3+][C@H]1[C@H](O)O[C@H](CO)[C@H](O)[C@@H]1O (3D coordinates assigned)
[NH3+][C@H]1[C@H](O)O[C@H](CO)[C@H](O)[C@@H]1O (nonaromatic ring conformer: 23.229676877115722 kcal/mol)

>  <Name>
449462

>  <RI>
3.95439e+07

>  <Rbt.Current_Directory>
/home/edward/Documentos/Virtual_Screening/rDock/2

>  <Rbt.Executable>
rbdock ($Id: //depot/dev/client3/rdock/2013.1/src/exe/rbdock.cxx#4 $)

>  <Rbt.Library>
libRbt.so (2013.1, Build901 2013/11/27)

>  <Rbt.Parameter_File>
/home/edward/anaconda3/envs/MD/share/rdock-2013.1-1/data/scripts/dock.prm

>  <Rbt.Receptor>
parameters.prm

>  <SCORE>
-24.16

>  <SCORE.INTER>
-25.5089

>  <SCORE.INTER.CONST>
1

>  <SCORE.INTER.POLAR>
-5.29494

>  <SCORE.INTER.REPUL>
0

>  <SCORE.INTER.ROT>
1

>  <SCORE.INTER.VDW>
-13.9061

>  <SCORE.INTER.norm>
-2.12574

>  <SCORE.INTRA>
-2.3648

>  <SCORE.INTRA.DIHEDRAL>
-6.02962

>  <SCORE.INTRA.DIHEDRAL.0>
7.08469

>  <SCORE.INTRA.POLAR>
0

>  <SCORE.INTRA.POLAR.0>
0

>  <SCORE.INTRA.REPUL>
0

>  <SCORE.INTRA.REPUL.0>
0

>  <SCORE.INTRA.VDW>
0.650015

>  <SCORE.INTRA.VDW.0>
-1.1512

>  <SCORE.INTRA.norm>
-0.197066

>  <SCORE.RESTR>
0

>  <SCORE.RESTR.CAVITY>
0

>  <SCORE.RESTR.norm>
0

>  <SCORE.SYSTEM>
3.71364

>  <SCORE.SYSTEM.CONST>
0

>  <SCORE.SYSTEM.DIHEDRAL>
3.87933

>  <SCORE.SYSTEM.VDW>
1.77397

>  <SCORE.SYSTEM.norm>
0.30947

>  <SCORE.heavy>
12

>  <SCORE.norm>
-2.01334

>  <SMILES>
[NH3+][C@H]1[C@H](O)O[C@H](CO)[C@H](O)[C@@H]1O

>  <UniqueID>
118

$$$$
448882
  rDOCK(R)          3D
libRbt.so/2013.1/901 2013/11/27
 20 20  0  0  0  0  0  0  0  0999 V2000
   83.2058    3.8230 -102.0365 H   0  0  0  0  0  0
   83.4347    3.0202 -101.4628 O   0  0  0  0  0  0
   84.1896    3.1566 -100.2981 C   0  0  0  0  0  0
   84.6065    4.3247  -99.9099 N   0  0  0  0  0  0
   84.3810    5.5765 -100.6375 C   0  0  0  0  0  0
   83.7675    6.6179  -99.6769 C   0  0  0  0  0  0
   84.5648    6.7403  -98.5082 O   0  0  0  0  0  0
   83.9064    7.5443  -97.5539 C   0  0  0  0  0  0
   83.5937    7.8732 -100.3241 O   0  0  0  0  0  0
   84.8341    8.4134 -100.7550 C   0  0  0  0  0  0
   84.6167    9.8471 -101.2670 C   0  0  0  0  0  0
   85.8058   10.4036 -101.7621 O   0  0  0  0  0  0
   85.5808   11.3107 -102.0965 H   0  0  0  0  0  0
   85.4858    7.5099 -101.8247 C   0  0  0  0  0  0
   84.6575    7.4295 -102.9586 O   0  0  0  0  0  0
   85.1983    7.0209 -103.6839 H   0  0  0  0  0  0
   85.7033    6.1064 -101.2277 C   0  0  0  0  0  0
   86.1755    5.2272 -102.2154 O   0  0  0  0  0  0
   85.4511    5.1372 -102.8884 H   0  0  0  0  0  0
   84.4872    1.9547  -99.4609 C   0  0  0  0  0  0
  1  2  1  0  0  0
  2  3  1  0  0  0
  3  4  2  0  0  0
  3 20  1  0  0  0
  4  5  1  0  0  0
  5  6  1  0  0  0
  6  7  1  0  0  0
  6  9  1  0  0  0
  7  8  1  0  0  0
  9 10  1  0  0  0
 10 11  1  0  0  0
 10 14  1  0  0  0
 11 12  1  0  0  0
 12 13  1  0  0  0
 14 15  1  0  0  0
 14 17  1  0  0  0
 15 16  1  0  0  0
 17 18  1  0  0  0
 17  5  1  0  0  0
 18 19  1  0  0  0
M  END
>  <CHROM.0>
-179.37895540,153.09622116,-64.70140183

>  <CHROM.1>
0.82393079,127.97099126,-171.64558316,-177.28406758,178.31621056,167.34951500
56.53192393,84.64116253,6.39176341,-100.66042781,-1.95596982,1.24980968,0.20686986

>  <Energy>
30.958163973182206

>  <Genealogy>
CO[C@H]1O[C@H](CO)[C@H](O)[C@H](O)[C@H]1N=C(C)O (tautomer)
CO[C@H]1O[C@H](CO)[C@H](O)[C@H](O)[C@H]1/N=C(\C)O (cis-trans isomerization)
CO[C@H]1O[C@H](CO)[C@H](O)[C@H](O)[C@H]1/N=C(\C)O (3D coordinates assigned)
CO[C@H]1O[C@H](CO)[C@H](O)[C@H](O)[C@H]1/N=C(\C)O (nonaromatic ring conformer: 30.958163973182206 kcal/mol)

>  <Name>
448882

>  <RI>
3.95439e+07

>  <Rbt.Current_Directory>
/home/edward/Documentos/Virtual_Screening/rDock/2

>  <Rbt.Executable>
rbdock ($Id: //depot/dev/client3/rdock/2013.1/src/exe/rbdock.cxx#4 $)

>  <Rbt.Library>
libRbt.so (2013.1, Build901 2013/11/27)

>  <Rbt.Parameter_File>
/home/edward/anaconda3/envs/MD/share/rdock-2013.1-1/data/scripts/dock.prm

>  <Rbt.Receptor>
parameters.prm

>  <SCORE>
-15.4919

>  <SCORE.INTER>
-14.5363

>  <SCORE.INTER.CONST>
1

>  <SCORE.INTER.POLAR>
-3.96022

>  <SCORE.INTER.REPUL>
0.0644228

>  <SCORE.INTER.ROT>
3

>  <SCORE.INTER.VDW>
-9.79368

>  <SCORE.INTER.norm>
-0.90852

>  <SCORE.INTRA>
-2.70003

>  <SCORE.INTRA.DIHEDRAL>
-6.74962

>  <SCORE.INTRA.DIHEDRAL.0>
8.13993

>  <SCORE.INTRA.POLAR>
0

>  <SCORE.INTRA.POLAR.0>
0

>  <SCORE.INTRA.REPUL>
0

>  <SCORE.INTRA.REPUL.0>
0

>  <SCORE.INTRA.VDW>
0.674779

>  <SCORE.INTRA.VDW.0>
-1.41263

>  <SCORE.INTRA.norm>
-0.168752

>  <SCORE.RESTR>
0

>  <SCORE.RESTR.CAVITY>
0

>  <SCORE.RESTR.norm>
0

>  <SCORE.SYSTEM>
1.74442

>  <SCORE.SYSTEM.CONST>
0

>  <SCORE.SYSTEM.DIHEDRAL>
3.35462

>  <SCORE.SYSTEM.VDW>
0.0671091

>  <SCORE.SYSTEM.norm>
0.109026

>  <SCORE.heavy>
16

>  <SCORE.norm>
-0.968246

>  <SMILES>
CO[C@H]1O[C@H](CO)[C@H](O)[C@H](O)[C@H]1/N=C(\C)O

>  <UniqueID>
119

$$$$
447448
  rDOCK(R)          3D
libRbt.so/2013.1/901 2013/11/27
 23 23  0  0  0  0  0  0  0  0999 V2000
   88.3360   19.8192 -100.3505 H   0  0  0  0  0  0
   87.7596   19.3554 -101.0436 O   0  0  0  0  0  0
   87.2949   20.0116 -102.1857 C   0  0  0  0  0  0
   87.6338   21.2984 -102.3843 C   0  0  0  0  0  0
   87.2364   22.1141 -103.5853 C   0  0  0  0  0  0
   88.4531   22.5199 -104.4146 C   0  0  0  0  0  0
   86.4630   19.2936 -103.1154 N   0  0  0  0  0  0
   85.8941   19.8133 -103.8201 H   0  0  0  0  0  0
   86.2520   17.8460 -103.0193 C   0  0  0  0  0  0
   84.8078   17.5504 -102.5755 C   0  0  0  0  0  0
   84.5979   18.1090 -101.3072 O   0  0  0  0  0  0
   83.6217   18.0547 -101.1349 H   0  0  0  0  0  0
   84.5981   16.1507 -102.4987 O   0  0  0  0  0  0
   84.6890   15.5606 -103.7854 C   0  0  0  0  0  0
   84.2919   14.0843 -103.6702 C   0  0  0  0  0  0
   82.9430   13.9864 -103.3048 O   0  0  0  0  0  0
   82.4213   14.2871 -104.0937 H   0  0  0  0  0  0
   86.1259   15.6995 -104.3404 C   0  0  0  0  0  0
   86.1852   15.1581 -105.6359 O   0  0  0  0  0  0
   86.2027   14.1706 -105.5362 H   0  0  0  0  0  0
   86.5234   17.1876 -104.3821 C   0  0  0  0  0  0
   87.8884   17.3139 -104.6902 O   0  0  0  0  0  0
   88.0135   16.9522 -105.6061 H   0  0  0  0  0  0
  1  2  1  0  0  0
  2  3  1  0  0  0
  3  4  2  0  0  0
  3  7  1  0  0  0
  4  5  1  0  0  0
  5  6  1  0  0  0
  7  8  1  0  0  0
  7  9  1  0  0  0
  9 10  1  0  0  0
 10 11  1  0  0  0
 10 13  1  0  0  0
 11 12  1  0  0  0
 13 14  1  0  0  0
 14 15  1  0  0  0
 14 18  1  0  0  0
 15 16  1  0  0  0
 16 17  1  0  0  0
 18 19  1  0  0  0
 18 21  1  0  0  0
 19 20  1  0  0  0
 21 22  1  0  0  0
 21  9  1  0  0  0
 22 23  1  0  0  0
M  END
>  <CHROM.0>
-179.54562668,152.00227121,51.27944352

>  <CHROM.1>
0.77096006,-115.23290500,109.75722748,169.20967404,65.15160222,70.05527733
-76.73459560,-175.11617701,86.07522638,17.77555194,-103.29422860,0.83920832
0.82421395,0.69721867

>  <Energy>
26.495796909454963

>  <Genealogy>
CCC=C(O)N[C@H]1[C@H](O)O[C@H](CO)[C@@H](O)[C@@H]1O (tautomer)
CC/C=C(\O)N[C@H]1[C@H](O)O[C@H](CO)[C@@H](O)[C@@H]1O (cis-trans isomerization)
CC/C=C(\O)N[C@H]1[C@H](O)O[C@H](CO)[C@@H](O)[C@@H]1O (3D coordinates assigned)
CC/C=C(\O)N[C@H]1[C@H](O)O[C@H](CO)[C@@H](O)[C@@H]1O (nonaromatic ring conformer: 26.495796909454963 kcal/mol)

>  <Name>
447448

>  <RI>
3.95439e+07

>  <Rbt.Current_Directory>
/home/edward/Documentos/Virtual_Screening/rDock/2

>  <Rbt.Executable>
rbdock ($Id: //depot/dev/client3/rdock/2013.1/src/exe/rbdock.cxx#4 $)

>  <Rbt.Library>
libRbt.so (2013.1, Build901 2013/11/27)

>  <Rbt.Parameter_File>
/home/edward/anaconda3/envs/MD/share/rdock-2013.1-1/data/scripts/dock.prm

>  <Rbt.Receptor>
parameters.prm

>  <SCORE>
-21.7362

>  <SCORE.INTER>
-21.5803

>  <SCORE.INTER.CONST>
1

>  <SCORE.INTER.POLAR>
-5.19351

>  <SCORE.INTER.REPUL>
0

>  <SCORE.INTER.ROT>
3

>  <SCORE.INTER.VDW>
-12.3224

>  <SCORE.INTER.norm>
-1.26943

>  <SCORE.INTRA>
-2.55732

>  <SCORE.INTRA.DIHEDRAL>
-5.68892

>  <SCORE.INTRA.DIHEDRAL.0>
10.8532

>  <SCORE.INTRA.POLAR>
0

>  <SCORE.INTRA.POLAR.0>
0

>  <SCORE.INTRA.REPUL>
0

>  <SCORE.INTRA.REPUL.0>
0

>  <SCORE.INTRA.VDW>
0.287141

>  <SCORE.INTRA.VDW.0>
-2.11497

>  <SCORE.INTRA.norm>
-0.15043

>  <SCORE.RESTR>
0

>  <SCORE.RESTR.CAVITY>
0

>  <SCORE.RESTR.norm>
0

>  <SCORE.SYSTEM>
2.40136

>  <SCORE.SYSTEM.CONST>
0

>  <SCORE.SYSTEM.DIHEDRAL>
3.51719

>  <SCORE.SYSTEM.VDW>
0.642769

>  <SCORE.SYSTEM.norm>
0.141257

>  <SCORE.heavy>
17

>  <SCORE.norm>
-1.2786

>  <SMILES>
CC/C=C(\O)N[C@H]1[C@H](O)O[C@H](CO)[C@@H](O)[C@@H]1O

>  <UniqueID>
121

$$$$
446101
  rDOCK(R)          3D
libRbt.so/2013.1/901 2013/11/27
 23 23  0  0  0  0  0  0  0  0999 V2000
   91.0221   13.4084 -105.7954 H   0  0  0  0  0  0
   90.3701   13.9982 -105.2972 O   0  0  0  0  0  0
   90.4515   15.3933 -105.2626 C   0  0  0  0  0  0
   89.6180   16.1285 -104.5824 N   0  0  0  0  0  0
   88.4738   15.6673 -103.7909 C   0  0  0  0  0  0
   88.5938   16.2407 -102.3650 C   0  0  0  0  0  0
   89.7619   15.7409 -101.7724 O   0  0  0  0  0  0
   90.5213   16.1048 -102.2982 H   0  0  0  0  0  0
   87.4800   15.8554 -101.5752 O   0  0  0  0  0  0
   86.2876   16.4254 -102.0887 C   0  0  0  0  0  0
   85.1419   16.2016 -101.0881 C   0  0  0  0  0  0
   84.0475   17.0359 -101.3620 O   0  0  0  0  0  0
   83.6499   16.7180 -102.2141 H   0  0  0  0  0  0
   85.9660   15.8433 -103.4864 C   0  0  0  0  0  0
   85.7942   14.4394 -103.3907 O   0  0  0  0  0  0
   84.1441   14.0426 -103.3962 S   0  0  0  0  0  0
   83.8565   13.1501 -102.2229 O   0  0  0  0  0  0
   83.7867   13.3159 -104.6624 O   0  0  0  0  0  0
   83.2108   15.4338 -103.2622 O   0  5  0  0  0  0
   87.1484   16.1491 -104.4248 C   0  0  0  0  0  0
   86.9345   15.5244 -105.6640 O   0  0  0  0  0  0
   86.7705   14.5623 -105.4823 H   0  0  0  0  0  0
   91.5525   16.0636 -106.0132 C   0  0  0  0  0  0
  1  2  1  0  0  0
  2  3  1  0  0  0
  3  4  2  0  0  0
  3 23  1  0  0  0
  4  5  1  0  0  0
  5  6  1  0  0  0
  6  7  1  0  0  0
  6  9  1  0  0  0
  7  8  1  0  0  0
  9 10  1  0  0  0
 10 11  1  0  0  0
 10 14  1  0  0  0
 11 12  1  0  0  0
 12 13  1  0  0  0
 14 15  1  0  0  0
 14 20  1  0  0  0
 15 16  1  0  0  0
 16 17  2  0  0  0
 16 18  2  0  0  0
 16 19  1  0  0  0
 20 21  1  0  0  0
 20  5  1  0  0  0
 21 22  1  0  0  0
M  END
>  <CHROM.0>
-176.57225695,151.21146367,-66.72379832

>  <CHROM.1>
-178.10003510,126.48053404,64.87608200,164.08043729,68.93225657,101.45992966
-128.46511025,67.65550555,86.76005818,15.28215126,-103.44873760,0.18694554
-0.26377270,-2.12449354

>  <Energy>
32.15286585518792

>  <Genealogy>
CC(=O)N[C@H]1[C@H](O)O[C@H](CO)[C@H](OS(=O)(=O)[O-])[C@@H]1O (protonated)
CC(O)=N[C@H]1[C@H](O)O[C@H](CO)[C@H](OS(=O)(=O)[O-])[C@@H]1O (tautomer)
C/C(O)=N/[C@H]1[C@H](O)O[C@H](CO)[C@H](OS(=O)(=O)[O-])[C@@H]1O (cis-trans isomerization)
C/C(O)=N/[C@H]1[C@H](O)O[C@H](CO)[C@H](OS(=O)(=O)[O-])[C@@H]1O (3D coordinates assigned)
C/C(O)=N/[C@H]1[C@H](O)O[C@H](CO)[C@H](OS(=O)(=O)[O-])[C@@H]1O (nonaromatic ring conformer: 32.15286585518792 kcal/mol)

>  <Name>
446101

>  <RI>
3.95439e+07

>  <Rbt.Current_Directory>
/home/edward/Documentos/Virtual_Screening/rDock/2

>  <Rbt.Executable>
rbdock ($Id: //depot/dev/client3/rdock/2013.1/src/exe/rbdock.cxx#4 $)

>  <Rbt.Library>
libRbt.so (2013.1, Build901 2013/11/27)

>  <Rbt.Parameter_File>
/home/edward/anaconda3/envs/MD/share/rdock-2013.1-1/data/scripts/dock.prm

>  <Rbt.Receptor>
parameters.prm

>  <SCORE>
-18.5166

>  <SCORE.INTER>
-14.9725

>  <SCORE.INTER.CONST>
1

>  <SCORE.INTER.POLAR>
-2.11738

>  <SCORE.INTER.REPUL>
0.042969

>  <SCORE.INTER.ROT>
4

>  <SCORE.INTER.VDW>
-17.3883

>  <SCORE.INTER.norm>
-0.788027

>  <SCORE.INTRA>
-5.31584

>  <SCORE.INTRA.DIHEDRAL>
-5.2835

>  <SCORE.INTRA.DIHEDRAL.0>
13.8313

>  <SCORE.INTRA.POLAR>
-1.21576

>  <SCORE.INTRA.POLAR.0>
0

>  <SCORE.INTRA.REPUL>
0

>  <SCORE.INTRA.REPUL.0>
0

>  <SCORE.INTRA.VDW>
1.45948

>  <SCORE.INTRA.VDW.0>
-3.78185

>  <SCORE.INTRA.norm>
-0.279781

>  <SCORE.RESTR>
0

>  <SCORE.RESTR.CAVITY>
0

>  <SCORE.RESTR.norm>
0

>  <SCORE.SYSTEM>
1.7717

>  <SCORE.SYSTEM.CONST>
0

>  <SCORE.SYSTEM.DIHEDRAL>
3.73387

>  <SCORE.SYSTEM.VDW>
-0.0952293

>  <SCORE.SYSTEM.norm>
0.0932476

>  <SCORE.heavy>
19

>  <SCORE.norm>
-0.97456

>  <SMILES>
C/C(O)=N/[C@H]1[C@H](O)O[C@H](CO)[C@H](OS(=O)(=O)[O-])[C@@H]1O

>  <UniqueID>
123

$$$$
445621
  rDOCK(R)          3D
libRbt.so/2013.1/901 2013/11/27
 19 19  0  0  0  0  0  0  0  0999 V2000
   86.8233   19.3201 -102.8619 N   0  3  0  0  0  0
   86.6367   17.8638 -102.7999 C   0  0  0  0  0  0
   85.3028   17.5045 -102.1077 C   0  0  0  0  0  0
   84.2163   18.1394 -102.7360 O   0  0  0  0  0  0
   85.1166   16.0978 -102.0576 O   0  0  0  0  0  0
   85.0355   15.5303 -103.3569 C   0  0  0  0  0  0
   84.7045   14.0394 -103.1966 C   0  0  0  0  0  0
   83.5411   13.8743 -102.4333 O   0  0  0  0  0  0
   86.3655   15.7360 -104.1244 C   0  0  0  0  0  0
   86.2591   15.2250 -105.4300 O   0  0  0  0  0  0
   86.6928   17.2365 -104.2060 C   0  0  0  0  0  0
   87.9785   17.4135 -104.7443 O   0  0  0  0  0  0
   86.6902   19.7361 -101.9115 H   0  0  0  0  0  0
   87.7954   19.5404 -103.1784 H   0  0  0  0  0  0
   86.1424   19.7556 -103.5258 H   0  0  0  0  0  0
   83.4428   18.0426 -102.1216 H   0  0  0  0  0  0
   83.4848   12.9060 -102.2228 H   0  0  0  0  0  0
   86.3138   14.2359 -105.3645 H   0  0  0  0  0  0
   87.9687   17.0151 -105.6535 H   0  0  0  0  0  0
  1  2  1  0  0  0
  1 13  1  0  0  0
  1 14  1  0  0  0
  1 15  1  0  0  0
  2  3  1  0  0  0
  3  4  1  0  0  0
  3  5  1  0  0  0
  4 16  1  0  0  0
  5  6  1  0  0  0
  6  7  1  0  0  0
  6  9  1  0  0  0
  7  8  1  0  0  0
  8 17  1  0  0  0
  9 10  1  0  0  0
  9 11  1  0  0  0
 10 18  1  0  0  0
 11 12  1  0  0  0
 11  2  1  0  0  0
 12 19  1  0  0  0
M  END
>  <CHROM.0>
-178.78871759,154.23200777,-64.94766039

>  <CHROM.1>
51.51051822,-166.79115523,55.08117446,-169.34774959,-75.74391200,-178.82524197
85.70816454,16.50340614,-103.34968864,0.77325526,0.71810417,0.45183355

>  <Energy>
24.209519310862365

>  <Genealogy>
[NH3+][C@H]1[C@@H](O)O[C@H](CO)[C@@H](O)[C@@H]1O (protonated)
[NH3+][C@H]1[C@@H](O)O[C@H](CO)[C@@H](O)[C@@H]1O (3D coordinates assigned)
[NH3+][C@H]1[C@@H](O)O[C@H](CO)[C@@H](O)[C@@H]1O (nonaromatic ring conformer: 24.209519310862365 kcal/mol)

>  <Name>
445621

>  <RI>
3.95439e+07

>  <Rbt.Current_Directory>
/home/edward/Documentos/Virtual_Screening/rDock/2

>  <Rbt.Executable>
rbdock ($Id: //depot/dev/client3/rdock/2013.1/src/exe/rbdock.cxx#4 $)

>  <Rbt.Library>
libRbt.so (2013.1, Build901 2013/11/27)

>  <Rbt.Parameter_File>
/home/edward/anaconda3/envs/MD/share/rdock-2013.1-1/data/scripts/dock.prm

>  <Rbt.Receptor>
parameters.prm

>  <SCORE>
-19.1833

>  <SCORE.INTER>
-18.5724

>  <SCORE.INTER.CONST>
1

>  <SCORE.INTER.POLAR>
-4.8539

>  <SCORE.INTER.REPUL>
0.132987

>  <SCORE.INTER.ROT>
1

>  <SCORE.INTER.VDW>
-9.13402

>  <SCORE.INTER.norm>
-1.5477

>  <SCORE.INTRA>
-2.35307

>  <SCORE.INTRA.DIHEDRAL>
-5.37643

>  <SCORE.INTRA.DIHEDRAL.0>
8.27349

>  <SCORE.INTRA.POLAR>
-0.00117681

>  <SCORE.INTRA.POLAR.0>
0

>  <SCORE.INTRA.REPUL>
0

>  <SCORE.INTRA.REPUL.0>
0

>  <SCORE.INTRA.VDW>
0.33915

>  <SCORE.INTRA.VDW.0>
-1.13053

>  <SCORE.INTRA.norm>
-0.196089

>  <SCORE.RESTR>
0

>  <SCORE.RESTR.CAVITY>
0

>  <SCORE.RESTR.norm>
0

>  <SCORE.SYSTEM>
1.74217

>  <SCORE.SYSTEM.CONST>
0

>  <SCORE.SYSTEM.DIHEDRAL>
3.14604

>  <SCORE.SYSTEM.VDW>
0.169146

>  <SCORE.SYSTEM.norm>
0.145181

>  <SCORE.heavy>
12

>  <SCORE.norm>
-1.59861

>  <SMILES>
[NH3+][C@H]1[C@@H](O)O[C@H](CO)[C@@H](O)[C@@H]1O

>  <UniqueID>
125

$$$$
441477
  rDOCK(R)          3D
libRbt.so/2013.1/901 2013/11/27
 18 18  0  0  0  0  0  0  0  0999 V2000
   92.8309   17.6930 -105.6440 N   0  0  0  0  0  0
   91.6620   17.2475 -104.8794 C   0  0  0  0  0  0
   90.5389   18.3111 -104.9547 C   0  0  0  0  0  0
   90.9774   19.5238 -104.4000 O   0  0  0  0  0  0
   89.3832   17.8760 -104.2571 O   0  0  0  0  0  0
   88.8241   16.7324 -104.8795 C   0  0  0  0  0  0
   87.4773   16.4157 -104.2084 C   0  0  0  0  0  0
   86.5633   15.8802 -105.1288 O   0  0  0  0  0  0
   89.7993   15.5371 -104.7853 C   0  0  0  0  0  0
   89.2455   14.4234 -105.4392 O   0  0  0  0  0  0
   91.1403   15.9084 -105.4420 C   0  0  0  0  0  0
   92.0712   14.8858 -105.1885 O   0  0  0  0  0  0
   93.5825   16.9718 -105.5528 H   0  0  0  0  0  0
   93.2192   18.5521 -105.1916 H   0  0  0  0  0  0
   91.7694   19.8157 -104.9233 H   0  0  0  0  0  0
   86.8877   14.9705 -105.3581 H   0  0  0  0  0  0
   88.4801   14.1157 -104.8869 H   0  0  0  0  0  0
   92.9120   15.1312 -105.6559 H   0  0  0  0  0  0
  1  2  1  0  0  0
  1 13  1  0  0  0
  1 14  1  0  0  0
  2  3  1  0  0  0
  3  4  1  0  0  0
  3  5  1  0  0  0
  4 15  1  0  0  0
  5  6  1  0  0  0
  6  7  1  0  0  0
  6  9  1  0  0  0
  7  8  1  0  0  0
  8 16  1  0  0  0
  9 10  1  0  0  0
  9 11  1  0  0  0
 10 17  1  0  0  0
 11 12  1  0  0  0
 11  2  1  0  0  0
 12 18  1  0  0  0
M  END
>  <CHROM.0>
-177.49643010,153.57446169,-65.49229913

>  <CHROM.1>
178.31736937,59.60672240,146.58889375,70.14981246,-69.84031274,-61.36118352
90.04799577,16.68761032,-104.94053245,-0.40875897,-0.13104789,-2.95139428

>  <Energy>
21.948587500327633

>  <Genealogy>
N[C@H]1[C@H](O)O[C@H](CO)[C@@H](O)[C@@H]1O (3D coordinates assigned)
N[C@H]1[C@H](O)O[C@H](CO)[C@@H](O)[C@@H]1O (nonaromatic ring conformer: 21.948587500327633 kcal/mol)

>  <Name>
441477

>  <RI>
3.95439e+07

>  <Rbt.Current_Directory>
/home/edward/Documentos/Virtual_Screening/rDock/2

>  <Rbt.Executable>
rbdock ($Id: //depot/dev/client3/rdock/2013.1/src/exe/rbdock.cxx#4 $)

>  <Rbt.Library>
libRbt.so (2013.1, Build901 2013/11/27)

>  <Rbt.Parameter_File>
/home/edward/anaconda3/envs/MD/share/rdock-2013.1-1/data/scripts/dock.prm

>  <Rbt.Receptor>
parameters.prm

>  <SCORE>
-17.6015

>  <SCORE.INTER>
-18.7037

>  <SCORE.INTER.CONST>
1

>  <SCORE.INTER.POLAR>
-4.25647

>  <SCORE.INTER.REPUL>
0.020658

>  <SCORE.INTER.ROT>
2

>  <SCORE.INTER.VDW>
-11.735

>  <SCORE.INTER.norm>
-1.55864

>  <SCORE.INTRA>
-0.69478

>  <SCORE.INTRA.DIHEDRAL>
-4.19127

>  <SCORE.INTRA.DIHEDRAL.0>
8.32062

>  <SCORE.INTRA.POLAR>
-0.00180504

>  <SCORE.INTRA.POLAR.0>
0

>  <SCORE.INTRA.REPUL>
0

>  <SCORE.INTRA.REPUL.0>
0

>  <SCORE.INTRA.VDW>
1.40699

>  <SCORE.INTRA.VDW.0>
-0.918951

>  <SCORE.INTRA.norm>
-0.0578984

>  <SCORE.RESTR>
0.0446913

>  <SCORE.RESTR.CAVITY>
0.0446913

>  <SCORE.RESTR.norm>
0.00372428

>  <SCORE.SYSTEM>
1.7523

>  <SCORE.SYSTEM.CONST>
0

>  <SCORE.SYSTEM.DIHEDRAL>
3.28193

>  <SCORE.SYSTEM.VDW>
0.111333

>  <SCORE.SYSTEM.norm>
0.146025

>  <SCORE.heavy>
12

>  <SCORE.norm>
-1.46679

>  <SMILES>
N[C@H]1[C@H](O)O[C@H](CO)[C@@H](O)[C@@H]1O

>  <UniqueID>
127

$$$$
441038
  rDOCK(R)          3D
libRbt.so/2013.1/901 2013/11/27
 22 22  0  0  0  0  0  0  0  0999 V2000
   89.1858   21.1164 -101.8903 C   0  0  0  0  0  0
   89.0645   19.5952 -101.9314 C   0  0  0  0  0  0
   88.3660   19.2265 -103.1086 O   0  0  0  0  0  0
   87.7857   17.9338 -103.0008 C   0  0  0  0  0  0
   86.3263   18.0657 -102.5267 C   0  0  0  0  0  0
   86.3147   18.5073 -101.1922 O   0  0  0  0  0  0
   85.6134   16.6970 -102.6388 C   0  0  0  0  0  0
   84.1388   16.8113 -102.2243 C   0  0  0  0  0  0
   84.0323   16.9958 -100.8383 O   0  0  0  0  0  0
   85.6663   16.2250 -103.9750 O   0  0  0  0  0  0
   87.0010   15.9495 -104.3583 C   0  0  0  0  0  0
   86.9734   15.3852 -105.6436 O   0  0  0  0  0  0
   87.8246   17.2606 -104.3844 C   0  0  0  0  0  0
   89.2163   17.0166 -104.7749 N   0  0  0  0  0  0
   90.4339   18.9761 -101.9239 C   0  0  0  0  0  0
   91.1228   18.9650 -100.8694 O   0  0  0  0  0  0
   90.9385   18.3933 -103.0793 O   0  5  0  0  0  0
   86.6737   19.4329 -101.1851 H   0  0  0  0  0  0
   84.6113   17.7692 -100.6092 H   0  0  0  0  0  0
   86.7219   14.4301 -105.5412 H   0  0  0  0  0  0
   89.8168   17.7836 -104.3950 H   0  0  0  0  0  0
   89.2971   17.0346 -105.8179 H   0  0  0  0  0  0
  1  2  1  0  0  0
  2  3  1  0  0  0
  2 15  1  0  0  0
  3  4  1  0  0  0
  4  5  1  0  0  0
  5  6  1  0  0  0
  5  7  1  0  0  0
  6 18  1  0  0  0
  7  8  1  0  0  0
  7 10  1  0  0  0
  8  9  1  0  0  0
  9 19  1  0  0  0
 10 11  1  0  0  0
 11 12  1  0  0  0
 11 13  1  0  0  0
 12 20  1  0  0  0
 13 14  1  0  0  0
 13  4  1  0  0  0
 14 21  1  0  0  0
 14 22  1  0  0  0
 15 16  2  0  0  0
 15 17  1  0  0  0
M  END
>  <CHROM.0>
-178.98308818,154.34223724,48.55849103

>  <CHROM.1>
-158.43555145,73.67103441,94.22485133,66.66026175,-71.49997389,53.05298664
-79.15740638,-33.45289490,87.63465421,17.82095403,-102.84486626,0.44926038
0.32433106,0.90018832

>  <Energy>
29.90819376511378

>  <Genealogy>
C[C@@H](O[C@H]1[C@H](O)[C@@H](CO)OC(O)[C@@H]1N)C(=O)[O-] (protonated)
C[C@@H](O[C@H]1[C@H](O)[C@@H](CO)O[C@@H](O)[C@@H]1N)C(=O)[O-] (chirality)
C[C@@H](O[C@H]1[C@H](O)[C@@H](CO)O[C@@H](O)[C@@H]1N)C(=O)[O-] (3D coordinates assigned)
C[C@@H](O[C@H]1[C@H](O)[C@@H](CO)O[C@@H](O)[C@@H]1N)C(=O)[O-] (nonaromatic ring conformer: 29.90819376511378 kcal/mol)

>  <Name>
441038

>  <RI>
3.95439e+07

>  <Rbt.Current_Directory>
/home/edward/Documentos/Virtual_Screening/rDock/2

>  <Rbt.Executable>
rbdock ($Id: //depot/dev/client3/rdock/2013.1/src/exe/rbdock.cxx#4 $)

>  <Rbt.Library>
libRbt.so (2013.1, Build901 2013/11/27)

>  <Rbt.Parameter_File>
/home/edward/anaconda3/envs/MD/share/rdock-2013.1-1/data/scripts/dock.prm

>  <Rbt.Receptor>
parameters.prm

>  <SCORE>
-17.3311

>  <SCORE.INTER>
-9.90954

>  <SCORE.INTER.CONST>
1

>  <SCORE.INTER.POLAR>
-2.87336

>  <SCORE.INTER.REPUL>
0

>  <SCORE.INTER.ROT>
5

>  <SCORE.INTER.VDW>
-10.5401

>  <SCORE.INTER.norm>
-0.582914

>  <SCORE.INTRA>
-9.82637

>  <SCORE.INTRA.DIHEDRAL>
-8.09619

>  <SCORE.INTRA.DIHEDRAL.0>
19.2311

>  <SCORE.INTRA.POLAR>
-1.98027

>  <SCORE.INTRA.POLAR.0>
0

>  <SCORE.INTRA.REPUL>
0

>  <SCORE.INTRA.REPUL.0>
0

>  <SCORE.INTRA.VDW>
0.954654

>  <SCORE.INTRA.VDW.0>
-2.40039

>  <SCORE.INTRA.norm>
-0.578022

>  <SCORE.RESTR>
0

>  <SCORE.RESTR.CAVITY>
0

>  <SCORE.RESTR.norm>
0

>  <SCORE.SYSTEM>
2.40483

>  <SCORE.SYSTEM.CONST>
0

>  <SCORE.SYSTEM.DIHEDRAL>
3.09823

>  <SCORE.SYSTEM.VDW>
0.855714

>  <SCORE.SYSTEM.norm>
0.14146

>  <SCORE.heavy>
17

>  <SCORE.norm>
-1.01948

>  <SMILES>
C[C@@H](O[C@H]1[C@H](O)[C@@H](CO)O[C@@H](O)[C@@H]1N)C(=O)[O-]

>  <UniqueID>
129

$$$$
440552
  rDOCK(R)          3D
libRbt.so/2013.1/901 2013/11/27
 20 20  0  0  0  0  0  0  0  0999 V2000
   82.0551   12.4636  -99.8965 H   0  0  0  0  0  0
   82.4643   11.5428 -100.0005 O   0  0  0  0  0  0
   83.8042   11.3098  -99.6916 C   0  0  0  0  0  0
   84.3204   10.1252  -99.8307 N   0  0  0  0  0  0
   83.5865    8.9499 -100.3094 C   0  0  0  0  0  0
   84.2013    8.4367 -101.6287 C   0  0  0  0  0  0
   83.3627    7.4857 -102.2303 O   0  0  0  0  0  0
   83.7792    7.2535 -103.1010 H   0  0  0  0  0  0
   85.5232    7.9368 -101.4636 O   0  0  0  0  0  0
   85.6396    6.8977 -100.4960 C   0  0  0  0  0  0
   85.1817    5.5240 -101.0372 C   0  0  0  0  0  0
   86.0164    5.1033 -102.0825 O   0  0  0  0  0  0
   85.8395    5.7089 -102.8492 H   0  0  0  0  0  0
   85.0425    7.2806  -99.1150 C   0  0  0  0  0  0
   85.0377    6.1813  -98.2398 O   0  0  0  0  0  0
   85.9848    5.9108  -98.1143 H   0  0  0  0  0  0
   83.6248    7.8563  -99.2311 C   0  0  0  0  0  0
   82.7051    6.8359  -99.5269 O   0  0  0  0  0  0
   81.7988    7.2108  -99.3727 H   0  0  0  0  0  0
   84.6647   12.4369  -99.2192 C   0  0  0  0  0  0
  1  2  1  0  0  0
  2  3  1  0  0  0
  3  4  2  0  0  0
  3 20  1  0  0  0
  4  5  1  0  0  0
  5  6  1  0  0  0
  6  7  1  0  0  0
  6  9  1  0  0  0
  7  8  1  0  0  0
  9 10  1  0  0  0
 10 11  1  0  0  0
 10 14  1  0  0  0
 11 12  1  0  0  0
 12 13  1  0  0  0
 14 15  1  0  0  0
 14 17  1  0  0  0
 15 16  1  0  0  0
 17 18  1  0  0  0
 17  5  1  0  0  0
 18 19  1  0  0  0
M  END
>  <CHROM.0>
178.84911748,152.61969879,51.73817547

>  <CHROM.1>
-179.87615439,117.47358799,175.62522821,64.29938278,-69.12994245,61.46989763
-71.43289417,84.33082188,8.20736833,-100.30263668,-3.05357991,-1.29521405
1.87541924

>  <Energy>
31.89218430913147

>  <Genealogy>
CC(O)=N[C@H]1[C@H](O)O[C@H](CO)[C@H](O)[C@@H]1O (tautomer)
C/C(O)=N/[C@H]1[C@H](O)O[C@H](CO)[C@H](O)[C@@H]1O (cis-trans isomerization)
C/C(O)=N/[C@H]1[C@H](O)O[C@H](CO)[C@H](O)[C@@H]1O (3D coordinates assigned)
C/C(O)=N/[C@H]1[C@H](O)O[C@H](CO)[C@H](O)[C@@H]1O (nonaromatic ring conformer: 31.89218430913147 kcal/mol)

>  <Name>
440552

>  <RI>
3.95439e+07

>  <Rbt.Current_Directory>
/home/edward/Documentos/Virtual_Screening/rDock/2

>  <Rbt.Executable>
rbdock ($Id: //depot/dev/client3/rdock/2013.1/src/exe/rbdock.cxx#4 $)

>  <Rbt.Library>
libRbt.so (2013.1, Build901 2013/11/27)

>  <Rbt.Parameter_File>
/home/edward/anaconda3/envs/MD/share/rdock-2013.1-1/data/scripts/dock.prm

>  <Rbt.Receptor>
parameters.prm

>  <SCORE>
-16.6044

>  <SCORE.INTER>
-16.9305

>  <SCORE.INTER.CONST>
1

>  <SCORE.INTER.POLAR>
-4.0121

>  <SCORE.INTER.REPUL>
0

>  <SCORE.INTER.ROT>
2

>  <SCORE.INTER.VDW>
-10.6893

>  <SCORE.INTER.norm>
-1.1287

>  <SCORE.INTRA>
-2.06933

>  <SCORE.INTRA.DIHEDRAL>
-4.39375

>  <SCORE.INTRA.DIHEDRAL.0>
6.12338

>  <SCORE.INTRA.POLAR>
0

>  <SCORE.INTRA.POLAR.0>
0

>  <SCORE.INTRA.REPUL>
0

>  <SCORE.INTRA.REPUL.0>
0

>  <SCORE.INTRA.VDW>
0.127548

>  <SCORE.INTRA.VDW.0>
-1.64364

>  <SCORE.INTRA.norm>
-0.137955

>  <SCORE.RESTR>
0

>  <SCORE.RESTR.CAVITY>
0

>  <SCORE.RESTR.norm>
0

>  <SCORE.SYSTEM>
2.3954

>  <SCORE.SYSTEM.CONST>
0

>  <SCORE.SYSTEM.DIHEDRAL>
3.40874

>  <SCORE.SYSTEM.VDW>
0.691027

>  <SCORE.SYSTEM.norm>
0.159693

>  <SCORE.heavy>
15

>  <SCORE.norm>
-1.10696

>  <SMILES>
C/C(O)=N/[C@H]1[C@H](O)O[C@H](CO)[C@H](O)[C@@H]1O

>  <UniqueID>
132

$$$$
440271
  rDOCK(R)          3D
libRbt.so/2013.1/901 2013/11/27
 23 23  0  0  0  0  0  0  0  0999 V2000
   91.7716   19.6190 -107.9453 C   0  0  0  0  0  0
   90.8710   20.2958 -106.9644 C   0  0  0  0  0  0
   89.7834   20.7953 -107.3609 O   0  0  0  0  0  0
   91.2646   20.4020 -105.5889 N   0  0  0  0  0  0
   90.4751   21.1300 -104.5905 C   0  0  0  0  0  0
   90.3289   22.6114 -105.0087 C   0  0  0  0  0  0
   91.5936   23.2156 -105.0832 O   0  0  0  0  0  0
   89.5230   23.3225 -104.0811 O   0  0  0  0  0  0
   88.1993   22.8122 -104.0815 C   0  0  0  0  0  0
   87.3126   23.7217 -103.2236 C   0  0  0  0  0  0
   87.4141   25.0441 -103.6959 O   0  0  0  0  0  0
   86.4227   26.0353 -102.7434 S   0  0  0  0  0  0
   86.6578   27.4831 -103.0737 O   0  0  0  0  0  0
   84.9752   25.6935 -102.9643 O   0  0  0  0  0  0
   86.7997   25.7797 -101.1271 O   0  5  0  0  0  0
   88.1820   21.3593 -103.5555 C   0  0  0  0  0  0
   88.6425   21.3279 -102.2266 O   0  0  0  0  0  0
   89.0837   20.4874 -104.4527 C   0  0  0  0  0  0
   89.2112   19.1963 -103.9151 O   0  0  0  0  0  0
   92.2141   20.0571 -105.3192 H   0  0  0  0  0  0
   91.4508   24.1634 -105.3429 H   0  0  0  0  0  0
   88.5965   20.3828 -101.9267 H   0  0  0  0  0  0
   88.2975   18.8096 -103.8816 H   0  0  0  0  0  0
  1  2  1  0  0  0
  2  3  2  0  0  0
  2  4  1  0  0  0
  4  5  1  0  0  0
  4 20  1  0  0  0
  5  6  1  0  0  0
  6  7  1  0  0  0
  6  8  1  0  0  0
  7 21  1  0  0  0
  8  9  1  0  0  0
  9 10  1  0  0  0
  9 16  1  0  0  0
 10 11  1  0  0  0
 11 12  1  0  0  0
 12 13  2  0  0  0
 12 14  2  0  0  0
 12 15  1  0  0  0
 16 17  1  0  0  0
 16 18  1  0  0  0
 17 22  1  0  0  0
 18 19  1  0  0  0
 18  5  1  0  0  0
 19 23  1  0  0  0
M  END
>  <CHROM.0>
-179.52419605,151.02656047,-63.51624321

>  <CHROM.1>
-59.57658433,-179.32847923,55.02495056,179.69771822,171.37327757,178.87356560
-177.62789953,88.69456807,22.90303070,-104.16288639,-0.58982107,0.85134028
-0.29732825

>  <Energy>
27.486473353159326

>  <Genealogy>
CC(=O)N[C@H]1[C@H](O)O[C@H](COS(=O)(=O)[O-])[C@H](O)[C@@H]1O (protonated)
CC(=O)N[C@H]1[C@H](O)O[C@H](COS(=O)(=O)[O-])[C@H](O)[C@@H]1O (3D coordinates assigned)
CC(=O)N[C@H]1[C@H](O)O[C@H](COS(=O)(=O)[O-])[C@H](O)[C@@H]1O (nonaromatic ring conformer: 27.486473353159326 kcal/mol)

>  <Name>
440271

>  <RI>
3.95439e+07

>  <Rbt.Current_Directory>
/home/edward/Documentos/Virtual_Screening/rDock/2

>  <Rbt.Executable>
rbdock ($Id: //depot/dev/client3/rdock/2013.1/src/exe/rbdock.cxx#4 $)

>  <Rbt.Library>
libRbt.so (2013.1, Build901 2013/11/27)

>  <Rbt.Parameter_File>
/home/edward/anaconda3/envs/MD/share/rdock-2013.1-1/data/scripts/dock.prm

>  <Rbt.Receptor>
parameters.prm

>  <SCORE>
-12.2196

>  <SCORE.INTER>
-12.4892

>  <SCORE.INTER.CONST>
1

>  <SCORE.INTER.POLAR>
-2.92494

>  <SCORE.INTER.REPUL>
0.0128431

>  <SCORE.INTER.ROT>
4

>  <SCORE.INTER.VDW>
-12.0086

>  <SCORE.INTER.norm>
-0.657326

>  <SCORE.INTRA>
-1.49533

>  <SCORE.INTRA.DIHEDRAL>
-3.52355

>  <SCORE.INTRA.DIHEDRAL.0>
4.88112

>  <SCORE.INTRA.POLAR>
0

>  <SCORE.INTRA.POLAR.0>
0

>  <SCORE.INTRA.REPUL>
0

>  <SCORE.INTRA.REPUL.0>
0

>  <SCORE.INTRA.VDW>
0.266443

>  <SCORE.INTRA.VDW.0>
-1.97239

>  <SCORE.INTRA.norm>
-0.0787017

>  <SCORE.RESTR>
0

>  <SCORE.RESTR.CAVITY>
0

>  <SCORE.RESTR.norm>
0

>  <SCORE.SYSTEM>
1.76492

>  <SCORE.SYSTEM.CONST>
0

>  <SCORE.SYSTEM.DIHEDRAL>
3.76484

>  <SCORE.SYSTEM.VDW>
-0.1175

>  <SCORE.SYSTEM.norm>
0.0928904

>  <SCORE.heavy>
19

>  <SCORE.norm>
-0.643138

>  <SMILES>
CC(=O)N[C@H]1[C@H](O)O[C@H](COS(=O)(=O)[O-])[C@H](O)[C@@H]1O

>  <UniqueID>
133

$$$$
440235
  rDOCK(R)          3D
libRbt.so/2013.1/901 2013/11/27
 23 23  0  0  0  0  0  0  0  0999 V2000
   89.7286   18.2534 -107.1997 H   0  0  0  0  0  0
   89.7708   19.1185 -106.6746 O   0  0  0  0  0  0
   90.9549   19.8496 -106.5817 C   0  0  0  0  0  0
   91.0280   20.8970 -105.8159 N   0  0  0  0  0  0
   89.9228   21.4031 -104.9976 C   0  0  0  0  0  0
   90.4878   21.9242 -103.6513 C   0  0  0  0  0  0
   90.4784   20.8994 -102.6920 O   0  0  0  0  0  0
   91.0449   20.1632 -103.0432 H   0  0  0  0  0  0
   89.7272   23.0233 -103.1803 O   0  0  0  0  0  0
   89.9801   24.1735 -103.9753 C   0  0  0  0  0  0
   89.0718   25.3105 -103.4898 C   0  0  0  0  0  0
   87.7384   24.8635 -103.4238 O   0  0  0  0  0  0
   86.7433   26.1961 -103.1062 S   0  0  0  0  0  0
   86.7460   27.0995 -104.3063 O   0  0  0  0  0  0
   87.2650   26.9577 -101.9197 O   0  0  0  0  0  0
   85.1665   25.6950 -102.8083 O   0  5  0  0  0  0
   89.7949   23.9017 -105.5044 C   0  0  0  0  0  0
   91.0496   23.9587 -106.1367 O   0  0  0  0  0  0
   91.5162   23.1056 -105.9352 H   0  0  0  0  0  0
   89.1523   22.5209 -105.7507 C   0  0  0  0  0  0
   87.8162   22.5553 -105.3159 O   0  0  0  0  0  0
   87.8179   22.9591 -104.4088 H   0  0  0  0  0  0
   92.1440   19.4456 -107.3921 C   0  0  0  0  0  0
  1  2  1  0  0  0
  2  3  1  0  0  0
  3  4  2  0  0  0
  3 23  1  0  0  0
  4  5  1  0  0  0
  5  6  1  0  0  0
  6  7  1  0  0  0
  6  9  1  0  0  0
  7  8  1  0  0  0
  9 10  1  0  0  0
 10 11  1  0  0  0
 10 17  1  0  0  0
 11 12  1  0  0  0
 12 13  1  0  0  0
 13 14  2  0  0  0
 13 15  2  0  0  0
 13 16  1  0  0  0
 17 18  1  0  0  0
 17 20  1  0  0  0
 18 19  1  0  0  0
 20 21  1  0  0  0
 20  5  1  0  0  0
 21 22  1  0  0  0
M  END
>  <CHROM.0>
178.97781761,150.96533258,47.44240841

>  <CHROM.1>
-174.22800556,142.51041912,59.82070837,-51.10875594,-171.84422453,68.31824068
77.17552254,73.87766202,89.01518722,23.35727533,-104.44654480,0.55265022
0.91486595,-1.76398166

>  <Energy>
36.12599634027815

>  <Genealogy>
CC(=O)N[C@H]1[C@H](O)O[C@H](COS(=O)(=O)[O-])[C@@H](O)[C@@H]1O (protonated)
CC(O)=N[C@H]1[C@H](O)O[C@H](COS(=O)(=O)[O-])[C@@H](O)[C@@H]1O (tautomer)
C/C(O)=N/[C@H]1[C@H](O)O[C@H](COS(=O)(=O)[O-])[C@@H](O)[C@@H]1O (cis-trans isomerization)
C/C(O)=N/[C@H]1[C@H](O)O[C@H](COS(=O)(=O)[O-])[C@@H](O)[C@@H]1O (3D coordinates assigned)
C/C(O)=N/[C@H]1[C@H](O)O[C@H](COS(=O)(=O)[O-])[C@@H](O)[C@@H]1O (nonaromatic ring conformer: 36.12599634027815 kcal/mol)

>  <Name>
440235

>  <RI>
3.95439e+07

>  <Rbt.Current_Directory>
/home/edward/Documentos/Virtual_Screening/rDock/2

>  <Rbt.Executable>
rbdock ($Id: //depot/dev/client3/rdock/2013.1/src/exe/rbdock.cxx#4 $)

>  <Rbt.Library>
libRbt.so (2013.1, Build901 2013/11/27)

>  <Rbt.Parameter_File>
/home/edward/anaconda3/envs/MD/share/rdock-2013.1-1/data/scripts/dock.prm

>  <Rbt.Receptor>
parameters.prm

>  <SCORE>
-18.6355

>  <SCORE.INTER>
-12.4416

>  <SCORE.INTER.CONST>
1

>  <SCORE.INTER.POLAR>
-3.00812

>  <SCORE.INTER.REPUL>
0.0217972

>  <SCORE.INTER.ROT>
4

>  <SCORE.INTER.VDW>
-11.723

>  <SCORE.INTER.norm>
-0.65482

>  <SCORE.INTRA>
-8.62667

>  <SCORE.INTRA.DIHEDRAL>
-1.31367

>  <SCORE.INTRA.DIHEDRAL.0>
5.35137

>  <SCORE.INTRA.POLAR>
-1.55686

>  <SCORE.INTRA.POLAR.0>
0

>  <SCORE.INTRA.REPUL>
-0.786791

>  <SCORE.INTRA.REPUL.0>
0.786791

>  <SCORE.INTRA.VDW>
1.25744

>  <SCORE.INTRA.VDW.0>
-2.03895

>  <SCORE.INTRA.norm>
-0.454035

>  <SCORE.RESTR>
0

>  <SCORE.RESTR.CAVITY>
0

>  <SCORE.RESTR.norm>
0

>  <SCORE.SYSTEM>
2.43274

>  <SCORE.SYSTEM.CONST>
0

>  <SCORE.SYSTEM.DIHEDRAL>
3.73922

>  <SCORE.SYSTEM.VDW>
0.563132

>  <SCORE.SYSTEM.norm>
0.128039

>  <SCORE.heavy>
19

>  <SCORE.norm>
-0.980816

>  <SMILES>
C/C(O)=N/[C@H]1[C@H](O)O[C@H](COS(=O)(=O)[O-])[C@@H](O)[C@@H]1O

>  <UniqueID>
136

$$$$
440049
  rDOCK(R)          3D
libRbt.so/2013.1/901 2013/11/27
 18 18  0  0  0  0  0  0  0  0999 V2000
   84.5525   18.7770 -103.5341 N   0  0  0  0  0  0
   84.6983   17.3618 -103.8834 C   0  0  0  0  0  0
   83.8649   16.4733 -102.9342 C   0  0  0  0  0  0
   84.1769   16.7078 -101.5833 O   0  0  0  0  0  0
   83.9878   15.0932 -103.2471 O   0  0  0  0  0  0
   85.3264   14.6058 -103.2369 C   0  0  0  0  0  0
   85.8456   14.3381 -101.8096 C   0  0  0  0  0  0
   87.1929   13.9544 -101.8566 O   0  0  0  0  0  0
   86.2955   15.4331 -104.1223 C   0  0  0  0  0  0
   86.0050   15.1681 -105.4726 O   0  0  0  0  0  0
   86.1782   16.9441 -103.8594 C   0  0  0  0  0  0
   86.7749   17.2645 -102.6276 O   0  0  0  0  0  0
   85.0225   19.3479 -104.2741 H   0  0  0  0  0  0
   83.5373   19.0248 -103.5813 H   0  0  0  0  0  0
   85.1660   16.7569 -101.5138 H   0  0  0  0  0  0
   87.2245   13.1199 -102.3930 H   0  0  0  0  0  0
   86.1868   14.2039 -105.6255 H   0  0  0  0  0  0
   87.7262   16.9862 -102.6817 H   0  0  0  0  0  0
  1  2  1  0  0  0
  1 13  1  0  0  0
  1 14  1  0  0  0
  2  3  1  0  0  0
  3  4  1  0  0  0
  3  5  1  0  0  0
  4 15  1  0  0  0
  5  6  1  0  0  0
  6  7  1  0  0  0
  6  9  1  0  0  0
  7  8  1  0  0  0
  8 16  1  0  0  0
  9 10  1  0  0  0
  9 11  1  0  0  0
 10 17  1  0  0  0
 11 12  1  0  0  0
 11  2  1  0  0  0
 12 18  1  0  0  0
M  END
>  <CHROM.0>
179.54992168,153.75621725,-68.10857972

>  <CHROM.1>
-172.38088324,-44.25481519,-175.76922922,-60.95938297,-63.18924903,-179.02492399
85.43780084,16.00399253,-103.16181316,-2.40235478,-0.93185224,2.23886385

>  <Energy>
29.543392224769104

>  <Genealogy>
N[C@@H]1[C@H](O)O[C@H](CO)[C@@H](O)[C@@H]1O (chirality)
N[C@@H]1[C@H](O)O[C@H](CO)[C@@H](O)[C@@H]1O (3D coordinates assigned)
N[C@@H]1[C@H](O)O[C@H](CO)[C@@H](O)[C@@H]1O (nonaromatic ring conformer: 29.543392224769104 kcal/mol)

>  <Name>
440049

>  <RI>
3.95439e+07

>  <Rbt.Current_Directory>
/home/edward/Documentos/Virtual_Screening/rDock/2

>  <Rbt.Executable>
rbdock ($Id: //depot/dev/client3/rdock/2013.1/src/exe/rbdock.cxx#4 $)

>  <Rbt.Library>
libRbt.so (2013.1, Build901 2013/11/27)

>  <Rbt.Parameter_File>
/home/edward/anaconda3/envs/MD/share/rdock-2013.1-1/data/scripts/dock.prm

>  <Rbt.Receptor>
parameters.prm

>  <SCORE>
-17.1606

>  <SCORE.INTER>
-14.6514

>  <SCORE.INTER.CONST>
1

>  <SCORE.INTER.POLAR>
-3.66583

>  <SCORE.INTER.REPUL>
0.0861836

>  <SCORE.INTER.ROT>
2

>  <SCORE.INTER.VDW>
-10.0185

>  <SCORE.INTER.norm>
-1.22095

>  <SCORE.INTRA>
-4.24416

>  <SCORE.INTRA.DIHEDRAL>
-5.2746

>  <SCORE.INTRA.DIHEDRAL.0>
7.02089

>  <SCORE.INTRA.POLAR>
-0.801296

>  <SCORE.INTRA.POLAR.0>
0

>  <SCORE.INTRA.REPUL>
0

>  <SCORE.INTRA.REPUL.0>
0

>  <SCORE.INTRA.VDW>
1.11755

>  <SCORE.INTRA.VDW.0>
-1.07607

>  <SCORE.INTRA.norm>
-0.35368

>  <SCORE.RESTR>
0

>  <SCORE.RESTR.CAVITY>
0

>  <SCORE.RESTR.norm>
0

>  <SCORE.SYSTEM>
1.73499

>  <SCORE.SYSTEM.CONST>
0

>  <SCORE.SYSTEM.DIHEDRAL>
3.19318

>  <SCORE.SYSTEM.VDW>
0.138395

>  <SCORE.SYSTEM.norm>
0.144582

>  <SCORE.heavy>
12

>  <SCORE.norm>
-1.43005

>  <SMILES>
N[C@@H]1[C@H](O)O[C@H](CO)[C@@H](O)[C@@H]1O

>  <UniqueID>
138

$$$$
439281
  rDOCK(R)          3D
libRbt.so/2013.1/901 2013/11/27
 20 20  0  0  0  0  0  0  0  0999 V2000
   85.9937   16.1320 -104.3898 C   0  0  0  0  0  0
   87.2755   16.3114 -103.6441 C   0  0  0  0  0  0
   87.5143   15.5934 -102.6356 O   0  0  0  0  0  0
   88.2368   17.2748 -104.0982 N   0  0  0  0  0  0
   89.5502   17.4477 -103.4636 C   0  0  0  0  0  0
   89.5993   18.8018 -102.7213 C   0  0  0  0  0  0
   90.7401   18.8954 -101.9025 O   0  0  0  0  0  0
   89.5443   19.8918 -103.6285 O   0  0  0  0  0  0
   90.6534   19.8979 -104.5160 C   0  0  0  0  0  0
   90.5844   21.1761 -105.3622 C   0  0  0  0  0  0
   91.7324   21.2999 -106.1568 O   0  0  0  0  0  0
   90.6655   18.6283 -105.4037 C   0  0  0  0  0  0
   91.8143   18.6180 -106.2144 O   0  0  0  0  0  0
   90.6764   17.3760 -104.5108 C   0  0  0  0  0  0
   90.5260   16.2181 -105.2922 O   0  0  0  0  0  0
   88.0264   17.8016 -104.9765 H   0  0  0  0  0  0
   91.5107   18.5818 -102.4443 H   0  0  0  0  0  0
   91.7601   20.4893 -106.7285 H   0  0  0  0  0  0
   92.6009   18.6477 -105.6096 H   0  0  0  0  0  0
   89.6884   16.3273 -105.8138 H   0  0  0  0  0  0
  1  2  1  0  0  0
  2  3  2  0  0  0
  2  4  1  0  0  0
  4  5  1  0  0  0
  4 16  1  0  0  0
  5  6  1  0  0  0
  6  7  1  0  0  0
  6  8  1  0  0  0
  7 17  1  0  0  0
  8  9  1  0  0  0
  9 10  1  0  0  0
  9 12  1  0  0  0
 10 11  1  0  0  0
 11 18  1  0  0  0
 12 13  1  0  0  0
 12 14  1  0  0  0
 13 19  1  0  0  0
 14 15  1  0  0  0
 14  5  1  0  0  0
 15 20  1  0  0  0
M  END
>  <CHROM.0>
79.30890544,154.45783222,-65.93144695

>  <CHROM.1>
-110.27673431,45.92881912,173.81047933,59.20517276,58.50381470,66.16274922
89.72427545,18.25391182,-104.29372379,-2.90772293,0.83517073,0.83462997

>  <Energy>
25.845425354706432

>  <Genealogy>
CC(=O)N[C@@H]1[C@@H](O)O[C@H](CO)[C@@H](O)[C@@H]1O (chirality)
CC(=O)N[C@@H]1[C@@H](O)O[C@H](CO)[C@@H](O)[C@@H]1O (3D coordinates assigned)
CC(=O)N[C@@H]1[C@@H](O)O[C@H](CO)[C@@H](O)[C@@H]1O (nonaromatic ring conformer: 25.845425354706432 kcal/mol)

>  <Name>
439281

>  <RI>
3.95439e+07

>  <Rbt.Current_Directory>
/home/edward/Documentos/Virtual_Screening/rDock/2

>  <Rbt.Executable>
rbdock ($Id: //depot/dev/client3/rdock/2013.1/src/exe/rbdock.cxx#4 $)

>  <Rbt.Library>
libRbt.so (2013.1, Build901 2013/11/27)

>  <Rbt.Parameter_File>
/home/edward/anaconda3/envs/MD/share/rdock-2013.1-1/data/scripts/dock.prm

>  <Rbt.Receptor>
parameters.prm

>  <SCORE>
-15.4417

>  <SCORE.INTER>
-16.2012

>  <SCORE.INTER.CONST>
1

>  <SCORE.INTER.POLAR>
-3.91802

>  <SCORE.INTER.REPUL>
0

>  <SCORE.INTER.ROT>
2

>  <SCORE.INTER.VDW>
-10.28

>  <SCORE.INTER.norm>
-1.08008

>  <SCORE.INTRA>
-2.39006

>  <SCORE.INTRA.DIHEDRAL>
-5.4539

>  <SCORE.INTRA.DIHEDRAL.0>
8.13518

>  <SCORE.INTRA.POLAR>
-0.33727

>  <SCORE.INTRA.POLAR.0>
0

>  <SCORE.INTRA.REPUL>
0

>  <SCORE.INTRA.REPUL.0>
0

>  <SCORE.INTRA.VDW>
1.48361

>  <SCORE.INTRA.VDW.0>
-1.91818

>  <SCORE.INTRA.norm>
-0.159337

>  <SCORE.RESTR>
0

>  <SCORE.RESTR.CAVITY>
0

>  <SCORE.RESTR.norm>
0

>  <SCORE.SYSTEM>
3.14961

>  <SCORE.SYSTEM.CONST>
0

>  <SCORE.SYSTEM.DIHEDRAL>
4.77084

>  <SCORE.SYSTEM.VDW>
0.764187

>  <SCORE.SYSTEM.norm>
0.209974

>  <SCORE.heavy>
15

>  <SCORE.norm>
-1.02944

>  <SMILES>
CC(=O)N[C@@H]1[C@@H](O)O[C@H](CO)[C@@H](O)[C@@H]1O

>  <UniqueID>
140

$$$$
439213
  rDOCK(R)          3D
libRbt.so/2013.1/901 2013/11/27
 19 19  0  0  0  0  0  0  0  0999 V2000
   92.5926   17.1088 -105.1616 N   0  3  0  0  0  0
   91.1491   16.8712 -105.3060 C   0  0  0  0  0  0
   90.7320   15.5687 -104.5852 C   0  0  0  0  0  0
   91.4104   14.4858 -105.1619 O   0  0  0  0  0  0
   89.3380   15.3551 -104.7251 O   0  0  0  0  0  0
   88.6069   16.3638 -104.0490 C   0  0  0  0  0  0
   87.1220   15.9832 -104.0744 C   0  0  0  0  0  0
   86.7650   15.5640 -105.3627 O   0  0  0  0  0  0
   88.8395   17.7336 -104.7286 C   0  0  0  0  0  0
   88.1593   18.7448 -104.0273 O   0  0  0  0  0  0
   90.3436   18.0594 -104.7384 C   0  0  0  0  0  0
   90.5763   19.1996 -105.5256 O   0  0  0  0  0  0
   92.9449   17.7190 -105.9350 H   0  0  0  0  0  0
   93.1091   16.1998 -105.1802 H   0  0  0  0  0  0
   92.7905   17.5696 -104.2442 H   0  0  0  0  0  0
   91.3105   13.7247 -104.5326 H   0  0  0  0  0  0
   87.2044   14.6845 -105.4980 H   0  0  0  0  0  0
   88.2575   19.5824 -104.5512 H   0  0  0  0  0  0
   90.1290   19.9607 -105.0714 H   0  0  0  0  0  0
  1  2  1  0  0  0
  1 13  1  0  0  0
  1 14  1  0  0  0
  1 15  1  0  0  0
  2  3  1  0  0  0
  3  4  1  0  0  0
  3  5  1  0  0  0
  4 16  1  0  0  0
  5  6  1  0  0  0
  6  7  1  0  0  0
  6  9  1  0  0  0
  7  8  1  0  0  0
  8 17  1  0  0  0
  9 10  1  0  0  0
  9 11  1  0  0  0
 10 18  1  0  0  0
 11 12  1  0  0  0
 11  2  1  0  0  0
 12 19  1  0  0  0
M  END
>  <CHROM.0>
-176.77710201,153.51735651,-65.11359835

>  <CHROM.1>
156.40839041,165.19115446,-45.53851046,70.63518611,-174.10154108,-173.59009302
89.65279411,16.75605393,-104.80796124,-0.11878030,-0.13967464,-3.12473224

>  <Energy>
21.746164718352674

>  <Genealogy>
[NH3+][C@H]1C(O)O[C@H](CO)[C@@H](O)[C@@H]1O (protonated)
[NH3+][C@H]1[C@H](O)O[C@H](CO)[C@@H](O)[C@@H]1O (chirality)
[NH3+][C@H]1[C@H](O)O[C@H](CO)[C@@H](O)[C@@H]1O (3D coordinates assigned)
[NH3+][C@H]1[C@H](O)O[C@H](CO)[C@@H](O)[C@@H]1O (nonaromatic ring conformer: 21.746164718352674 kcal/mol)

>  <Name>
439213

>  <RI>
3.95439e+07

>  <Rbt.Current_Directory>
/home/edward/Documentos/Virtual_Screening/rDock/2

>  <Rbt.Executable>
rbdock ($Id: //depot/dev/client3/rdock/2013.1/src/exe/rbdock.cxx#4 $)

>  <Rbt.Library>
libRbt.so (2013.1, Build901 2013/11/27)

>  <Rbt.Parameter_File>
/home/edward/anaconda3/envs/MD/share/rdock-2013.1-1/data/scripts/dock.prm

>  <Rbt.Receptor>
parameters.prm

>  <SCORE>
-20.5632

>  <SCORE.INTER>
-21.4555

>  <SCORE.INTER.CONST>
1

>  <SCORE.INTER.POLAR>
-4.83873

>  <SCORE.INTER.REPUL>
0.0260959

>  <SCORE.INTER.ROT>
1

>  <SCORE.INTER.VDW>
-11.5343

>  <SCORE.INTER.norm>
-1.78796

>  <SCORE.INTRA>
-0.87267

>  <SCORE.INTRA.DIHEDRAL>
-3.01437

>  <SCORE.INTRA.DIHEDRAL.0>
6.89091

>  <SCORE.INTRA.POLAR>
-0.0186978

>  <SCORE.INTRA.POLAR.0>
0

>  <SCORE.INTRA.REPUL>
0

>  <SCORE.INTRA.REPUL.0>
0

>  <SCORE.INTRA.VDW>
0.698087

>  <SCORE.INTRA.VDW.0>
-0.999984

>  <SCORE.INTRA.norm>
-0.0727225

>  <SCORE.RESTR>
0

>  <SCORE.RESTR.CAVITY>
0

>  <SCORE.RESTR.norm>
0

>  <SCORE.SYSTEM>
1.76501

>  <SCORE.SYSTEM.CONST>
0

>  <SCORE.SYSTEM.DIHEDRAL>
3.31871

>  <SCORE.SYSTEM.VDW>
0.105652

>  <SCORE.SYSTEM.norm>
0.147084

>  <SCORE.heavy>
12

>  <SCORE.norm>
-1.7136

>  <SMILES>
[NH3+][C@H]1[C@H](O)O[C@H](CO)[C@@H](O)[C@@H]1O

>  <UniqueID>
141

$$$$
439174
  rDOCK(R)          3D
libRbt.so/2013.1/901 2013/11/27
 20 20  0  0  0  0  0  0  0  0999 V2000
   90.7440   13.4262 -103.9282 H   0  0  0  0  0  0
   89.7453   13.5640 -103.8265 O   0  0  0  0  0  0
   89.2036   14.8408 -103.7078 C   0  0  0  0  0  0
   87.9288   14.9671 -103.4661 N   0  0  0  0  0  0
   87.1818   16.2180 -103.2910 C   0  0  0  0  0  0
   86.5046   16.5958 -104.6203 C   0  0  0  0  0  0
   85.7299   15.5309 -105.1150 O   0  0  0  0  0  0
   86.3150   14.7292 -105.0991 H   0  0  0  0  0  0
   85.7292   17.7770 -104.4814 O   0  0  0  0  0  0
   84.6675   17.6051 -103.5538 C   0  0  0  0  0  0
   83.8284   18.8947 -103.5602 C   0  0  0  0  0  0
   83.1433   19.0528 -104.7738 O   0  0  0  0  0  0
   82.4528   18.3401 -104.8060 H   0  0  0  0  0  0
   85.2195   17.2998 -102.1397 C   0  0  0  0  0  0
   84.1538   17.0695 -101.2531 O   0  0  0  0  0  0
   83.6550   17.9239 -101.1707 H   0  0  0  0  0  0
   86.1216   16.0531 -102.1899 C   0  0  0  0  0  0
   86.7569   15.8732 -100.9505 O   0  0  0  0  0  0
   86.0425   15.7434 -100.2736 H   0  0  0  0  0  0
   90.1140   16.0197 -103.8914 C   0  0  0  0  0  0
  1  2  1  0  0  0
  2  3  1  0  0  0
  3  4  2  0  0  0
  3 20  1  0  0  0
  4  5  1  0  0  0
  5  6  1  0  0  0
  6  7  1  0  0  0
  6  9  1  0  0  0
  7  8  1  0  0  0
  9 10  1  0  0  0
 10 11  1  0  0  0
 10 14  1  0  0  0
 11 12  1  0  0  0
 12 13  1  0  0  0
 14 15  1  0  0  0
 14 17  1  0  0  0
 15 16  1  0  0  0
 17 18  1  0  0  0
 17  5  1  0  0  0
 18 19  1  0  0  0
M  END
>  <CHROM.0>
175.71185511,153.45971224,-65.40687922

>  <CHROM.1>
-174.27414361,97.25025472,-50.21947312,68.56141298,68.51331597,-65.59591182
-178.31274327,86.36280436,16.48666692,-103.38569399,-0.09439246,0.57891211
-1.36200950

>  <Energy>
28.510578691744943

>  <Genealogy>
CC(O)=N[C@H]1C(O)O[C@H](CO)[C@@H](O)[C@@H]1O (tautomer)
CC(O)=N[C@H]1[C@@H](O)O[C@H](CO)[C@@H](O)[C@@H]1O (chirality)
C/C(O)=N/[C@H]1[C@@H](O)O[C@H](CO)[C@@H](O)[C@@H]1O (cis-trans isomerization)
C/C(O)=N/[C@H]1[C@@H](O)O[C@H](CO)[C@@H](O)[C@@H]1O (3D coordinates assigned)
C/C(O)=N/[C@H]1[C@@H](O)O[C@H](CO)[C@@H](O)[C@@H]1O (nonaromatic ring conformer: 28.510578691744943 kcal/mol)

>  <Name>
439174

>  <RI>
3.95439e+07

>  <Rbt.Current_Directory>
/home/edward/Documentos/Virtual_Screening/rDock/2

>  <Rbt.Executable>
rbdock ($Id: //depot/dev/client3/rdock/2013.1/src/exe/rbdock.cxx#4 $)

>  <Rbt.Library>
libRbt.so (2013.1, Build901 2013/11/27)

>  <Rbt.Parameter_File>
/home/edward/anaconda3/envs/MD/share/rdock-2013.1-1/data/scripts/dock.prm

>  <Rbt.Receptor>
parameters.prm

>  <SCORE>
-19.0096

>  <SCORE.INTER>
-18.7167

>  <SCORE.INTER.CONST>
1

>  <SCORE.INTER.POLAR>
-3.91739

>  <SCORE.INTER.REPUL>
0

>  <SCORE.INTER.ROT>
2

>  <SCORE.INTER.VDW>
-12.7976

>  <SCORE.INTER.norm>
-1.24778

>  <SCORE.INTRA>
-2.07218

>  <SCORE.INTRA.DIHEDRAL>
-5.454

>  <SCORE.INTRA.DIHEDRAL.0>
7.79428

>  <SCORE.INTRA.POLAR>
-0.104626

>  <SCORE.INTRA.POLAR.0>
0

>  <SCORE.INTRA.REPUL>
0

>  <SCORE.INTRA.REPUL.0>
0

>  <SCORE.INTRA.VDW>
1.01055

>  <SCORE.INTRA.VDW.0>
-1.74854

>  <SCORE.INTRA.norm>
-0.138145

>  <SCORE.RESTR>
0

>  <SCORE.RESTR.CAVITY>
0

>  <SCORE.RESTR.norm>
0

>  <SCORE.SYSTEM>
1.77923

>  <SCORE.SYSTEM.CONST>
0

>  <SCORE.SYSTEM.DIHEDRAL>
3.36391

>  <SCORE.SYSTEM.VDW>
0.0972787

>  <SCORE.SYSTEM.norm>
0.118615

>  <SCORE.heavy>
15

>  <SCORE.norm>
-1.26731

>  <SMILES>
C/C(O)=N/[C@H]1[C@@H](O)O[C@H](CO)[C@@H](O)[C@@H]1O

>  <UniqueID>
143

$$$$
433580
  rDOCK(R)          3D
libRbt.so/2013.1/901 2013/11/27
 23 23  0  0  0  0  0  0  0  0999 V2000
   88.2741   14.8964 -101.9825 C   0  0  0  0  0  0
   88.7989   16.1937 -102.6016 C   0  0  0  0  0  0
   90.0876   15.9769 -103.1515 O   0  0  0  0  0  0
   90.1809   16.4441 -104.4891 C   0  0  0  0  0  0
   91.4266   15.8158 -105.1563 C   0  0  0  0  0  0
   91.2598   14.3610 -105.2879 N   0  3  0  0  0  0
   91.6737   16.4725 -106.5405 C   0  0  0  0  0  0
   92.8702   15.9798 -107.0864 O   0  0  0  0  0  0
   91.8039   17.8779 -106.4092 O   0  0  0  0  0  0
   90.5935   18.4509 -105.9448 C   0  0  0  0  0  0
   90.6777   19.9832 -106.0483 C   0  0  0  0  0  0
   91.9293   20.4604 -105.6302 O   0  0  0  0  0  0
   90.2949   17.9832 -104.5039 C   0  0  0  0  0  0
   91.3228   18.3989 -103.6386 O   0  0  0  0  0  0
   88.9062   17.2455 -101.5389 C   0  0  0  0  0  0
   89.9746   17.8970 -101.3971 O   0  0  0  0  0  0
   87.8134   17.5371 -100.7313 O   0  5  0  0  0  0
   92.0911   13.9454 -105.7668 H   0  0  0  0  0  0
   91.1494   13.9163 -104.3474 H   0  0  0  0  0  0
   90.4199   14.1469 -105.8720 H   0  0  0  0  0  0
   93.5819   16.1072 -106.4058 H   0  0  0  0  0  0
   92.0969   20.0762 -104.7303 H   0  0  0  0  0  0
   91.1013   18.0483 -102.7365 H   0  0  0  0  0  0
  1  2  1  0  0  0
  2  3  1  0  0  0
  2 15  1  0  0  0
  3  4  1  0  0  0
  4  5  1  0  0  0
  5  6  1  0  0  0
  5  7  1  0  0  0
  6 18  1  0  0  0
  6 19  1  0  0  0
  6 20  1  0  0  0
  7  8  1  0  0  0
  7  9  1  0  0  0
  8 21  1  0  0  0
  9 10  1  0  0  0
 10 11  1  0  0  0
 10 13  1  0  0  0
 11 12  1  0  0  0
 12 22  1  0  0  0
 13 14  1  0  0  0
 13  4  1  0  0  0
 14 23  1  0  0  0
 15 16  2  0  0  0
 15 17  1  0  0  0
M  END
>  <CHROM.0>
177.32459565,153.32846264,-65.28062885

>  <CHROM.1>
129.56910959,129.33495360,-163.29020049,178.20657156,-52.87834891,-42.20489292
-52.36853737,-57.91400712,90.51769189,17.17559562,-104.24542676,-3.00044249
0.98653879,0.05619156

>  <Energy>
31.86131399089342

>  <Genealogy>
CC(OC1C([NH3+])C(O)OC(CO)C1O)C(=O)[O-] (protonated)
C[C@H](O[C@@H]1[C@@H]([NH3+])[C@H](O)O[C@H](CO)[C@@H]1O)C(=O)[O-] (chirality)
C[C@H](O[C@@H]1[C@@H]([NH3+])[C@H](O)O[C@H](CO)[C@@H]1O)C(=O)[O-] (3D coordinates assigned)
C[C@H](O[C@@H]1[C@@H]([NH3+])[C@H](O)O[C@H](CO)[C@@H]1O)C(=O)[O-] (nonaromatic ring conformer: 31.86131399089342 kcal/mol)

>  <Name>
433580

>  <RI>
3.95439e+07

>  <Rbt.Current_Directory>
/home/edward/Documentos/Virtual_Screening/rDock/2

>  <Rbt.Executable>
rbdock ($Id: //depot/dev/client3/rdock/2013.1/src/exe/rbdock.cxx#4 $)

>  <Rbt.Library>
libRbt.so (2013.1, Build901 2013/11/27)

>  <Rbt.Parameter_File>
/home/edward/anaconda3/envs/MD/share/rdock-2013.1-1/data/scripts/dock.prm

>  <Rbt.Receptor>
parameters.prm

>  <SCORE>
-21.8624

>  <SCORE.INTER>
-14.7128

>  <SCORE.INTER.CONST>
1

>  <SCORE.INTER.POLAR>
-2.86277

>  <SCORE.INTER.REPUL>
0.0839187

>  <SCORE.INTER.ROT>
4

>  <SCORE.INTER.VDW>
-14.799

>  <SCORE.INTER.norm>
-0.865459

>  <SCORE.INTRA>
-9.23338

>  <SCORE.INTRA.DIHEDRAL>
-6.84453

>  <SCORE.INTRA.DIHEDRAL.0>
17.5497

>  <SCORE.INTRA.POLAR>
-1.95461

>  <SCORE.INTRA.POLAR.0>
0

>  <SCORE.INTRA.REPUL>
0

>  <SCORE.INTRA.REPUL.0>
0

>  <SCORE.INTRA.VDW>
0.834547

>  <SCORE.INTRA.VDW.0>
-2.23983

>  <SCORE.INTRA.norm>
-0.54314

>  <SCORE.RESTR>
0.329745

>  <SCORE.RESTR.CAVITY>
0.329745

>  <SCORE.RESTR.norm>
0.0193968

>  <SCORE.SYSTEM>
1.75403

>  <SCORE.SYSTEM.CONST>
0

>  <SCORE.SYSTEM.DIHEDRAL>
3.33507

>  <SCORE.SYSTEM.VDW>
0.0864979

>  <SCORE.SYSTEM.norm>
0.103178

>  <SCORE.heavy>
17

>  <SCORE.norm>
-1.28602

>  <SMILES>
C[C@H](O[C@@H]1[C@@H]([NH3+])[C@H](O)O[C@H](CO)[C@@H]1O)C(=O)[O-]

>  <UniqueID>
145

$$$$
408523
  rDOCK(R)          3D
libRbt.so/2013.1/901 2013/11/27
 26 26  0  0  0  0  0  0  0  0999 V2000
   90.2535   18.9510 -103.0117 C   0  0  0  0  0  0
   89.8306   20.3798 -102.9861 C   0  0  0  0  0  0
   90.6980   21.2890 -103.0914 O   0  0  0  0  0  0
   88.4816   20.6928 -102.7863 O   0  0  0  0  0  0
   87.9578   22.0208 -102.8344 C   0  0  0  0  0  0
   87.7722   22.5048 -104.2823 C   0  0  0  0  0  0
   87.2695   23.8278 -104.2591 O   0  0  0  0  0  0
   86.7957   24.2239 -105.5396 C   0  0  0  0  0  0
   86.5122   25.6225 -105.4958 O   0  0  0  0  0  0
   85.6060   26.1903 -104.5946 C   0  0  0  0  0  0
   85.3193   27.6513 -104.6650 C   0  0  0  0  0  0
   84.9984   25.4743 -103.7528 O   0  0  0  0  0  0
   87.8212   23.9203 -106.6770 C   0  0  0  0  0  0
   87.9035   25.0208 -107.6416 N   0  0  0  0  0  0
   89.2063   23.6241 -106.0775 C   0  0  0  0  0  0
   89.6820   24.7892 -105.3960 O   0  0  0  0  0  0
   90.1789   25.9220 -106.0491 C   0  0  0  0  0  0
   90.6170   27.0975 -105.2447 C   0  0  0  0  0  0
   90.2209   25.9763 -107.3082 O   0  0  0  0  0  0
   89.0978   22.4304 -105.1015 C   0  0  0  0  0  0
   89.1279   21.2192 -105.8613 O   0  0  0  0  0  0
   90.2669   20.7325 -106.5123 C   0  0  0  0  0  0
   90.1751   19.4767 -107.3099 C   0  0  0  0  0  0
   91.3715   21.3338 -106.4251 O   0  0  0  0  0  0
   87.8145   25.9240 -107.1213 H   0  0  0  0  0  0
   88.8659   25.0212 -108.0520 H   0  0  0  0  0  0
  1  2  1  0  0  0
  2  3  2  0  0  0
  2  4  1  0  0  0
  4  5  1  0  0  0
  5  6  1  0  0  0
  6  7  1  0  0  0
  7  8  1  0  0  0
  8  9  1  0  0  0
  8 13  1  0  0  0
  9 10  1  0  0  0
 10 11  1  0  0  0
 10 12  2  0  0  0
 13 14  1  0  0  0
 13 15  1  0  0  0
 14 25  1  0  0  0
 14 26  1  0  0  0
 15 16  1  0  0  0
 15 20  1  0  0  0
 16 17  1  0  0  0
 17 18  1  0  0  0
 17 19  2  0  0  0
 20 21  1  0  0  0
 20  6  1  0  0  0
 21 22  1  0  0  0
 22 23  1  0  0  0
 22 24  2  0  0  0
M  END
>  <CHROM.0>
179.58489218,156.77328273,-64.35163834

>  <CHROM.1>
-175.60019563,78.58511918,-179.22713718,-58.02488859,-176.91433411,37.06089208
-75.24460915,178.42821735,-168.15502708,-178.27352216,88.63864098,23.36200002
-105.12065607,0.95179465,-0.65183334,2.60373393

>  <Energy>
36.67142143097192

>  <Genealogy>
CC(=O)OC[C@H]1O[C@@H](OC(C)=O)[C@@H](N)[C@@H](OC(C)=O)[C@@H]1OC(C)=O (chirality)
CC(=O)OC[C@H]1O[C@@H](OC(C)=O)[C@@H](N)[C@@H](OC(C)=O)[C@@H]1OC(C)=O (3D coordinates assigned)
CC(=O)OC[C@H]1O[C@@H](OC(C)=O)[C@@H](N)[C@@H](OC(C)=O)[C@@H]1OC(C)=O (nonaromatic ring conformer: 36.67142143097192 kcal/mol)

>  <Name>
408523

>  <RI>
3.95439e+07

>  <Rbt.Current_Directory>
/home/edward/Documentos/Virtual_Screening/rDock/2

>  <Rbt.Executable>
rbdock ($Id: //depot/dev/client3/rdock/2013.1/src/exe/rbdock.cxx#4 $)

>  <Rbt.Library>
libRbt.so (2013.1, Build901 2013/11/27)

>  <Rbt.Parameter_File>
/home/edward/anaconda3/envs/MD/share/rdock-2013.1-1/data/scripts/dock.prm

>  <Rbt.Receptor>
parameters.prm

>  <SCORE>
-3.88628

>  <SCORE.INTER>
-4.7907

>  <SCORE.INTER.CONST>
1

>  <SCORE.INTER.POLAR>
-2.15938

>  <SCORE.INTER.REPUL>
0

>  <SCORE.INTER.ROT>
10

>  <SCORE.INTER.VDW>
-12.8488

>  <SCORE.INTER.norm>
-0.199613

>  <SCORE.INTRA>
-0.906944

>  <SCORE.INTRA.DIHEDRAL>
-2.21146

>  <SCORE.INTRA.DIHEDRAL.0>
6.89419

>  <SCORE.INTRA.POLAR>
-0.375911

>  <SCORE.INTRA.POLAR.0>
0

>  <SCORE.INTRA.REPUL>
0

>  <SCORE.INTRA.REPUL.0>
0

>  <SCORE.INTRA.VDW>
1.47688

>  <SCORE.INTRA.VDW.0>
-4.52246

>  <SCORE.INTRA.norm>
-0.0377893

>  <SCORE.RESTR>
0

>  <SCORE.RESTR.CAVITY>
0

>  <SCORE.RESTR.norm>
0

>  <SCORE.SYSTEM>
1.81136

>  <SCORE.SYSTEM.CONST>
0

>  <SCORE.SYSTEM.DIHEDRAL>
2.69298

>  <SCORE.SYSTEM.VDW>
0.464876

>  <SCORE.SYSTEM.norm>
0.0754735

>  <SCORE.heavy>
24

>  <SCORE.norm>
-0.161928

>  <SMILES>
CC(=O)OC[C@H]1O[C@@H](OC(C)=O)[C@@H](N)[C@@H](OC(C)=O)[C@@H]1OC(C)=O

>  <UniqueID>
148

$$$$
312829
  rDOCK(R)          3D
libRbt.so/2013.1/901 2013/11/27
 28 28  0  0  0  0  0  0  0  0999 V2000
   86.6307   25.5848  -98.9762 C   0  0  0  0  0  0
   86.3246   25.2341 -100.3954 C   0  0  0  0  0  0
   85.2679   25.6688 -100.9283 O   0  0  0  0  0  0
   87.2077   24.3684 -101.1230 N   0  0  0  0  0  0
   86.9144   23.8820 -102.4753 C   0  0  0  0  0  0
   87.2729   22.3882 -102.5993 C   0  0  0  0  0  0
   86.4810   21.6305 -101.6825 O   0  0  0  0  0  0
   86.5623   20.2397 -101.5381 C   0  0  0  0  0  0
   85.6563   19.5485 -100.5778 C   0  0  0  0  0  0
   87.4134   19.5685 -102.1827 O   0  0  0  0  0  0
   87.0013   21.9011 -103.9059 O   0  0  0  0  0  0
   87.7278   22.5822 -104.9226 C   0  0  0  0  0  0
   89.2222   22.1828 -104.9598 C   0  0  0  0  0  0
   89.3609   20.8091 -105.3239 O   0  0  0  0  0  0
   90.5835   20.1869 -105.5987 C   0  0  0  0  0  0
   90.6111   18.7304 -105.9146 C   0  0  0  0  0  0
   91.6622   20.8377 -105.5849 O   0  0  0  0  0  0
   87.4728   24.1132 -104.8972 C   0  0  0  0  0  0
   88.2927   24.7912 -105.8508 O   0  0  0  0  0  0
   88.2295   24.5605 -107.2291 C   0  0  0  0  0  0
   89.2078   25.2374 -108.1267 C   0  0  0  0  0  0
   87.3274   23.8303 -107.7226 O   0  0  0  0  0  0
   87.7226   24.6881 -103.4977 C   0  0  0  0  0  0
   87.3054   26.0545 -103.4441 O   0  0  0  0  0  0
   85.9864   26.4733 -103.6535 C   0  0  0  0  0  0
   85.7149   27.9089 -103.9480 C   0  0  0  0  0  0
   85.0353   25.6451 -103.6510 O   0  0  0  0  0  0
   88.0442   23.9842 -100.6268 H   0  0  0  0  0  0
  1  2  1  0  0  0
  2  3  2  0  0  0
  2  4  1  0  0  0
  4  5  1  0  0  0
  4 28  1  0  0  0
  5  6  1  0  0  0
  6  7  1  0  0  0
  6 11  1  0  0  0
  7  8  1  0  0  0
  8  9  1  0  0  0
  8 10  2  0  0  0
 11 12  1  0  0  0
 12 13  1  0  0  0
 12 18  1  0  0  0
 13 14  1  0  0  0
 14 15  1  0  0  0
 15 16  1  0  0  0
 15 17  2  0  0  0
 18 19  1  0  0  0
 18 23  1  0  0  0
 19 20  1  0  0  0
 20 21  1  0  0  0
 20 22  2  0  0  0
 23 24  1  0  0  0
 23  5  1  0  0  0
 24 25  1  0  0  0
 25 26  1  0  0  0
 25 27  2  0  0  0
M  END
>  <CHROM.0>
-75.39171031,153.52029534,-69.66722370

>  <CHROM.1>
-137.41732920,-179.79810850,-178.13900633,65.14791276,172.11203605,177.49069974
61.34510717,-174.90103616,-57.76742931,-163.27026255,87.56410820,23.27121789
-103.73618822,2.95588516,1.01929608,-0.62383378

>  <Energy>
36.39276908032853

>  <Genealogy>
CC(=O)N[C@H]1[C@H](OC(C)=O)[C@@H](OC(C)=O)[C@@H](COC(C)=O)O[C@@H]1OC(C)=O (chirality)
CC(=O)N[C@H]1[C@H](OC(C)=O)[C@@H](OC(C)=O)[C@@H](COC(C)=O)O[C@@H]1OC(C)=O (3D coordinates assigned)
CC(=O)N[C@H]1[C@H](OC(C)=O)[C@@H](OC(C)=O)[C@@H](COC(C)=O)O[C@@H]1OC(C)=O (nonaromatic ring conformer: 36.39276908032853 kcal/mol)

>  <Name>
312829

>  <RI>
3.95439e+07

>  <Rbt.Current_Directory>
/home/edward/Documentos/Virtual_Screening/rDock/2

>  <Rbt.Executable>
rbdock ($Id: //depot/dev/client3/rdock/2013.1/src/exe/rbdock.cxx#4 $)

>  <Rbt.Library>
libRbt.so (2013.1, Build901 2013/11/27)

>  <Rbt.Parameter_File>
/home/edward/anaconda3/envs/MD/share/rdock-2013.1-1/data/scripts/dock.prm

>  <Rbt.Receptor>
parameters.prm

>  <SCORE>
-5.93765

>  <SCORE.INTER>
-6.70864

>  <SCORE.INTER.CONST>
1

>  <SCORE.INTER.POLAR>
-2.17482

>  <SCORE.INTER.REPUL>
0

>  <SCORE.INTER.ROT>
10

>  <SCORE.INTER.VDW>
-14.7143

>  <SCORE.INTER.norm>
-0.248468

>  <SCORE.INTRA>
-2.47464

>  <SCORE.INTRA.DIHEDRAL>
-8.80507

>  <SCORE.INTRA.DIHEDRAL.0>
12.9014

>  <SCORE.INTRA.POLAR>
0

>  <SCORE.INTRA.POLAR.0>
0

>  <SCORE.INTRA.REPUL>
0.0085666

>  <SCORE.INTRA.REPUL.0>
0

>  <SCORE.INTRA.VDW>
1.88506

>  <SCORE.INTRA.VDW.0>
-5.79556

>  <SCORE.INTRA.norm>
-0.0916532

>  <SCORE.RESTR>
0

>  <SCORE.RESTR.CAVITY>
0

>  <SCORE.RESTR.norm>
0

>  <SCORE.SYSTEM>
3.24562

>  <SCORE.SYSTEM.CONST>
0

>  <SCORE.SYSTEM.DIHEDRAL>
4.34121

>  <SCORE.SYSTEM.VDW>
1.07502

>  <SCORE.SYSTEM.norm>
0.120208

>  <SCORE.heavy>
27

>  <SCORE.norm>
-0.219913

>  <SMILES>
CC(=O)N[C@H]1[C@H](OC(C)=O)[C@@H](OC(C)=O)[C@@H](COC(C)=O)O[C@@H]1OC(C)=O

>  <UniqueID>
150

$$$$
254124
  rDOCK(R)          3D
libRbt.so/2013.1/901 2013/11/27
 20 20  0  0  0  0  0  0  0  0999 V2000
   87.4711   19.7730 -102.2009 C   0  0  0  0  0  0
   88.5628   18.9376 -102.5193 O   0  0  0  0  0  0
   88.5513   18.5834 -103.8973 C   0  0  0  0  0  0
   87.4738   17.6983 -104.1692 O   0  0  0  0  0  0
   87.5728   16.4983 -103.4174 C   0  0  0  0  0  0
   86.2876   15.6814 -103.6265 C   0  0  0  0  0  0
   86.0652   15.4309 -104.9886 O   0  0  0  0  0  0
   88.8370   15.6935 -103.8188 C   0  0  0  0  0  0
   88.7428   15.1482 -105.1142 O   0  0  0  0  0  0
   90.1011   16.5634 -103.6796 C   0  0  0  0  0  0
   90.4077   16.7052 -102.3150 O   0  0  0  0  0  0
   89.9077   17.9609 -104.3191 C   0  0  0  0  0  0
   90.0047   17.8829 -105.7828 N   0  0  0  0  0  0
   90.6307   18.9074 -106.5680 C   0  0  0  0  0  0
   90.7221   18.7570 -108.0514 C   0  0  0  0  0  0
   91.0731   19.9532 -106.0200 O   0  0  0  0  0  0
   86.7172   14.7328 -105.2595 H   0  0  0  0  0  0
   89.5521   14.6032 -105.2854 H   0  0  0  0  0  0
   91.2595   17.2128 -102.2614 H   0  0  0  0  0  0
   89.5508   17.0886 -106.2893 H   0  0  0  0  0  0
  1  2  1  0  0  0
  2  3  1  0  0  0
  3  4  1  0  0  0
  4  5  1  0  0  0
  5  6  1  0  0  0
  5  8  1  0  0  0
  6  7  1  0  0  0
  7 17  1  0  0  0
  8  9  1  0  0  0
  8 10  1  0  0  0
  9 18  1  0  0  0
 10 11  1  0  0  0
 10 12  1  0  0  0
 11 19  1  0  0  0
 12 13  1  0  0  0
 12  3  1  0  0  0
 13 14  1  0  0  0
 13 20  1  0  0  0
 14 15  1  0  0  0
 14 16  2  0  0  0
M  END
>  <CHROM.0>
79.19154087,152.63189129,-66.70363857

>  <CHROM.1>
-69.99845328,56.43169294,74.34494634,-176.51195111,175.99977993,94.07001139
88.88275662,17.48615456,-104.40078875,-3.09260156,-0.84626200,-2.28751653

>  <Energy>
33.977078260210206

>  <Genealogy>
CO[C@@H]1O[C@@H](CO)[C@@H](O)[C@H](O)[C@H]1NC(C)=O (chirality)
CO[C@@H]1O[C@@H](CO)[C@@H](O)[C@H](O)[C@H]1NC(C)=O (3D coordinates assigned)
CO[C@@H]1O[C@@H](CO)[C@@H](O)[C@H](O)[C@H]1NC(C)=O (nonaromatic ring conformer: 33.977078260210206 kcal/mol)

>  <Name>
254124

>  <RI>
3.95439e+07

>  <Rbt.Current_Directory>
/home/edward/Documentos/Virtual_Screening/rDock/2

>  <Rbt.Executable>
rbdock ($Id: //depot/dev/client3/rdock/2013.1/src/exe/rbdock.cxx#4 $)

>  <Rbt.Library>
libRbt.so (2013.1, Build901 2013/11/27)

>  <Rbt.Parameter_File>
/home/edward/anaconda3/envs/MD/share/rdock-2013.1-1/data/scripts/dock.prm

>  <Rbt.Receptor>
parameters.prm

>  <SCORE>
-15.2432

>  <SCORE.INTER>
-13.853

>  <SCORE.INTER.CONST>
1

>  <SCORE.INTER.POLAR>
-3.37471

>  <SCORE.INTER.REPUL>
0

>  <SCORE.INTER.ROT>
3

>  <SCORE.INTER.VDW>
-10.779

>  <SCORE.INTER.norm>
-0.865813

>  <SCORE.INTRA>
-4.52775

>  <SCORE.INTRA.DIHEDRAL>
-7.23065

>  <SCORE.INTRA.DIHEDRAL.0>
10.083

>  <SCORE.INTRA.POLAR>
-0.43152

>  <SCORE.INTRA.POLAR.0>
0

>  <SCORE.INTRA.REPUL>
0

>  <SCORE.INTRA.REPUL.0>
0

>  <SCORE.INTRA.VDW>
0.554745

>  <SCORE.INTRA.VDW.0>
-1.91364

>  <SCORE.INTRA.norm>
-0.282984

>  <SCORE.RESTR>
0

>  <SCORE.RESTR.CAVITY>
0

>  <SCORE.RESTR.norm>
0

>  <SCORE.SYSTEM>
3.1376

>  <SCORE.SYSTEM.CONST>
0

>  <SCORE.SYSTEM.DIHEDRAL>
5.08033

>  <SCORE.SYSTEM.VDW>
0.597437

>  <SCORE.SYSTEM.norm>
0.1961

>  <SCORE.heavy>
16

>  <SCORE.norm>
-0.952697

>  <SMILES>
CO[C@@H]1O[C@@H](CO)[C@@H](O)[C@H](O)[C@H]1NC(C)=O

>  <UniqueID>
152

$$$$
202260
  rDOCK(R)          3D
libRbt.so/2013.1/901 2013/11/27
 27 27  0  0  0  0  0  0  0  0999 V2000
   88.9700   19.3353  -98.2188 C   0  0  0  0  0  0
   90.0790   19.5950  -99.1804 C   0  0  0  0  0  0
   91.2576   19.7320  -98.7531 O   0  0  0  0  0  0
   89.7922   19.7310 -100.5410 O   0  0  0  0  0  0
   90.7897   20.0430 -101.5101 C   0  0  0  0  0  0
   90.2429   19.8297 -102.9269 C   0  0  0  0  0  0
   91.0528   20.5544 -103.8357 O   0  0  0  0  0  0
   90.4855   20.5436 -105.1330 C   0  0  0  0  0  0
   91.2834   21.3942 -105.9590 O   0  0  0  0  0  0
   91.2996   22.7917 -105.8660 C   0  0  0  0  0  0
   90.4298   23.4679 -104.8620 C   0  0  0  0  0  0
   92.0698   23.4819 -106.5876 O   0  0  0  0  0  0
   90.4867   19.1003 -105.7010 C   0  0  0  0  0  0
   89.9082   19.0609 -107.0514 N   0  3  0  0  0  0
   89.7083   18.1680 -104.7423 C   0  0  0  0  0  0
   89.8731   16.8045 -105.1400 O   0  0  0  0  0  0
   88.9005   15.8131 -104.9641 C   0  0  0  0  0  0
   87.6396   16.1472 -104.2434 C   0  0  0  0  0  0
   89.0934   14.6347 -105.3695 O   0  0  0  0  0  0
   90.2258   18.3320 -103.3024 C   0  0  0  0  0  0
   89.3727   17.6269 -102.3967 O   0  0  0  0  0  0
   89.8101   17.0676 -101.1908 C   0  0  0  0  0  0
   88.8228   16.4097 -100.2890 C   0  0  0  0  0  0
   91.0157   17.1597 -100.8331 O   0  0  0  0  0  0
   89.8578   18.0751 -107.3931 H   0  0  0  0  0  0
   90.4804   19.6324 -107.7150 H   0  0  0  0  0  0
   88.9296   19.4260 -107.0350 H   0  0  0  0  0  0
  1  2  1  0  0  0
  2  3  2  0  0  0
  2  4  1  0  0  0
  4  5  1  0  0  0
  5  6  1  0  0  0
  6  7  1  0  0  0
  7  8  1  0  0  0
  8  9  1  0  0  0
  8 13  1  0  0  0
  9 10  1  0  0  0
 10 11  1  0  0  0
 10 12  2  0  0  0
 13 14  1  0  0  0
 13 15  1  0  0  0
 14 25  1  0  0  0
 14 26  1  0  0  0
 14 27  1  0  0  0
 15 16  1  0  0  0
 15 20  1  0  0  0
 16 17  1  0  0  0
 17 18  1  0  0  0
 17 19  2  0  0  0
 20 21  1  0  0  0
 20  6  1  0  0  0
 21 22  1  0  0  0
 22 23  1  0  0  0
 22 24  2  0  0  0
M  END
>  <CHROM.0>
-174.70699136,159.24644922,-172.96471030

>  <CHROM.1>
176.93009596,167.83184199,160.44706716,-72.10310368,-0.70354151,-176.22022679
-148.24083959,-4.10177681,-89.31525923,177.07143836,90.11438891,19.03381933
-103.28937790,-2.21036823,-1.24391953,-1.59628604

>  <Energy>
31.902340112568133

>  <Genealogy>
CC(=O)OC[C@H]1O[C@@H](OC(C)=O)[C@H]([NH3+])[C@@H](OC(C)=O)[C@@H]1OC(C)=O (protonated)
CC(=O)OC[C@H]1O[C@@H](OC(C)=O)[C@H]([NH3+])[C@@H](OC(C)=O)[C@@H]1OC(C)=O (3D coordinates assigned)
CC(=O)OC[C@H]1O[C@@H](OC(C)=O)[C@H]([NH3+])[C@@H](OC(C)=O)[C@@H]1OC(C)=O (nonaromatic ring conformer: 31.902340112568133 kcal/mol)

>  <Name>
202260

>  <RI>
3.95439e+07

>  <Rbt.Current_Directory>
/home/edward/Documentos/Virtual_Screening/rDock/2

>  <Rbt.Executable>
rbdock ($Id: //depot/dev/client3/rdock/2013.1/src/exe/rbdock.cxx#4 $)

>  <Rbt.Library>
libRbt.so (2013.1, Build901 2013/11/27)

>  <Rbt.Parameter_File>
/home/edward/anaconda3/envs/MD/share/rdock-2013.1-1/data/scripts/dock.prm

>  <Rbt.Receptor>
parameters.prm

>  <SCORE>
-9.88463

>  <SCORE.INTER>
-15.1102

>  <SCORE.INTER.CONST>
1

>  <SCORE.INTER.POLAR>
-3.39405

>  <SCORE.INTER.REPUL>
0

>  <SCORE.INTER.ROT>
9

>  <SCORE.INTER.VDW>
-17.9704

>  <SCORE.INTER.norm>
-0.629592

>  <SCORE.INTRA>
1.3846

>  <SCORE.INTRA.DIHEDRAL>
-3.11974

>  <SCORE.INTRA.DIHEDRAL.0>
13.4022

>  <SCORE.INTRA.POLAR>
0

>  <SCORE.INTRA.POLAR.0>
0

>  <SCORE.INTRA.REPUL>
0

>  <SCORE.INTRA.REPUL.0>
0

>  <SCORE.INTRA.VDW>
2.94447

>  <SCORE.INTRA.VDW.0>
-3.81992

>  <SCORE.INTRA.norm>
0.0576918

>  <SCORE.RESTR>
0

>  <SCORE.RESTR.CAVITY>
0

>  <SCORE.RESTR.norm>
0

>  <SCORE.SYSTEM>
3.84097

>  <SCORE.SYSTEM.CONST>
0

>  <SCORE.SYSTEM.DIHEDRAL>
2.86782

>  <SCORE.SYSTEM.VDW>
2.40707

>  <SCORE.SYSTEM.norm>
0.160041

>  <SCORE.heavy>
24

>  <SCORE.norm>
-0.41186

>  <SMILES>
CC(=O)OC[C@H]1O[C@@H](OC(C)=O)[C@H]([NH3+])[C@@H](OC(C)=O)[C@@H]1OC(C)=O

>  <UniqueID>
154

$$$$
198515
  rDOCK(R)          3D
libRbt.so/2013.1/901 2013/11/27
 29 29  0  0  0  0  0  0  0  0999 V2000
   89.1919   24.9139 -103.3617 C   0  0  0  0  0  0
   89.3660   23.7887 -102.3999 C   0  0  0  0  0  0
   88.9176   23.8932 -101.2259 O   0  0  0  0  0  0
   89.9768   22.6081 -102.8290 O   0  0  0  0  0  0
   90.1415   21.4727 -101.9847 C   0  0  0  0  0  0
   90.8225   20.3258 -102.7642 C   0  0  0  0  0  0
   91.3507   19.3263 -101.8975 O   0  0  0  0  0  0
   90.3744   18.4342 -101.3770 C   0  0  0  0  0  0
   89.5038   19.1157 -100.4711 O   0  0  0  0  0  0
   89.9366   19.7654  -99.3104 C   0  0  0  0  0  0
   88.9306   20.3932  -98.4079 C   0  0  0  0  0  0
   91.1649   19.8656  -99.0438 O   0  0  0  0  0  0
   89.5881   17.7082 -102.4946 C   0  0  0  0  0  0
   90.4821   16.8217 -103.2508 N   0  0  0  0  0  0
   89.9894   15.7916 -104.1195 C   0  0  0  0  0  0
   88.7534   15.5533 -104.1917 O   0  0  0  0  0  0
   90.9395   15.0218 -104.9782 C   0  0  0  0  0  0
   91.9948   16.2526 -106.0352 Br  0  0  0  0  0  0
   88.9263   18.7283 -103.4332 C   0  0  0  0  0  0
   87.8640   19.3863 -102.7387 O   0  0  0  0  0  0
   86.7411   18.7337 -102.2192 C   0  0  0  0  0  0
   85.7065   19.5272 -101.4979 C   0  0  0  0  0  0
   86.5750   17.4950 -102.3865 O   0  0  0  0  0  0
   89.9831   19.7308 -103.9304 C   0  0  0  0  0  0
   89.3584   20.7558 -104.7050 O   0  0  0  0  0  0
   90.0557   21.6215 -105.5550 C   0  0  0  0  0  0
   89.3079   22.6703 -106.3044 C   0  0  0  0  0  0
   91.3005   21.5057 -105.7178 O   0  0  0  0  0  0
   91.5176   16.9403 -103.1661 H   0  0  0  0  0  0
  1  2  1  0  0  0
  2  3  2  0  0  0
  2  4  1  0  0  0
  4  5  1  0  0  0
  5  6  1  0  0  0
  6  7  1  0  0  0
  7  8  1  0  0  0
  8  9  1  0  0  0
  8 13  1  0  0  0
  9 10  1  0  0  0
 10 11  1  0  0  0
 10 12  2  0  0  0
 13 14  1  0  0  0
 13 19  1  0  0  0
 14 15  1  0  0  0
 14 29  1  0  0  0
 15 16  2  0  0  0
 15 17  1  0  0  0
 17 18  1  0  0  0
 19 20  1  0  0  0
 19 24  1  0  0  0
 20 21  1  0  0  0
 21 22  1  0  0  0
 21 23  2  0  0  0
 24 25  1  0  0  0
 24  6  1  0  0  0
 25 26  1  0  0  0
 26 27  1  0  0  0
 26 28  2  0  0  0
M  END
>  <CHROM.0>
-179.30942564,159.77181571,-171.79692216

>  <CHROM.1>
-177.92324800,178.79649003,163.31943445,-59.28975565,-177.34249157,164.50387138
-54.05787345,-61.23178825,179.21380368,70.78054146,-179.14180632,89.88240662
19.22922810,-103.24927507,-2.32570505,-1.13857609,2.99602098

>  <Energy>
35.430941685935565

>  <Genealogy>
CC(=O)OC[C@H]1O[C@@H](OC(C)=O)[C@H](NC(=O)CBr)[C@@H](OC(C)=O)[C@H]1OC(C)=O (3D coordinates assigned)
CC(=O)OC[C@H]1O[C@@H](OC(C)=O)[C@H](NC(=O)CBr)[C@@H](OC(C)=O)[C@H]1OC(C)=O (nonaromatic ring conformer: 35.430941685935565 kcal/mol)

>  <Name>
198515

>  <RI>
3.95439e+07

>  <Rbt.Current_Directory>
/home/edward/Documentos/Virtual_Screening/rDock/2

>  <Rbt.Executable>
rbdock ($Id: //depot/dev/client3/rdock/2013.1/src/exe/rbdock.cxx#4 $)

>  <Rbt.Library>
libRbt.so (2013.1, Build901 2013/11/27)

>  <Rbt.Parameter_File>
/home/edward/anaconda3/envs/MD/share/rdock-2013.1-1/data/scripts/dock.prm

>  <Rbt.Receptor>
parameters.prm

>  <SCORE>
-6.5048

>  <SCORE.INTER>
-8.0586

>  <SCORE.INTER.CONST>
1

>  <SCORE.INTER.POLAR>
-2.24807

>  <SCORE.INTER.REPUL>
0

>  <SCORE.INTER.ROT>
11

>  <SCORE.INTER.VDW>
-16.8152

>  <SCORE.INTER.norm>
-0.287807

>  <SCORE.INTRA>
-2.24868

>  <SCORE.INTRA.DIHEDRAL>
-5.24696

>  <SCORE.INTRA.DIHEDRAL.0>
9.91635

>  <SCORE.INTRA.POLAR>
0

>  <SCORE.INTRA.POLAR.0>
0

>  <SCORE.INTRA.REPUL>
0

>  <SCORE.INTRA.REPUL.0>
0

>  <SCORE.INTRA.VDW>
0.374797

>  <SCORE.INTRA.VDW.0>
-6.26149

>  <SCORE.INTRA.norm>
-0.0803102

>  <SCORE.RESTR>
0

>  <SCORE.RESTR.CAVITY>
0

>  <SCORE.RESTR.norm>
0

>  <SCORE.SYSTEM>
3.80248

>  <SCORE.SYSTEM.CONST>
0

>  <SCORE.SYSTEM.DIHEDRAL>
2.717

>  <SCORE.SYSTEM.VDW>
2.44398

>  <SCORE.SYSTEM.norm>
0.135803

>  <SCORE.heavy>
28

>  <SCORE.norm>
-0.232314

>  <SMILES>
CC(=O)OC[C@H]1O[C@@H](OC(C)=O)[C@H](NC(=O)CBr)[C@@H](OC(C)=O)[C@H]1OC(C)=O

>  <UniqueID>
156

$$$$
198514
  rDOCK(R)          3D
libRbt.so/2013.1/901 2013/11/27
 30 30  0  0  0  0  0  0  0  0999 V2000
   91.9904   22.0671 -107.4605 H   0  0  0  0  0  0
   91.8749   21.3810 -106.7246 O   0  0  0  0  0  0
   90.9900   21.5946 -105.6694 C   0  0  0  0  0  0
   90.2977   22.7383 -105.6307 C   0  0  0  0  0  0
   90.5210   24.0831 -106.9722 Br  0  0  0  0  0  0
   90.8468   20.5709 -104.6640 N   0  0  0  0  0  0
   91.3253   19.6614 -104.8562 H   0  0  0  0  0  0
   90.1156   20.7189 -103.3939 C   0  0  0  0  0  0
   88.6133   20.4251 -103.6069 C   0  0  0  0  0  0
   87.8360   20.8337 -102.4806 O   0  0  0  0  0  0
   87.6796   22.1651 -102.0794 C   0  0  0  0  0  0
   88.2053   23.1055 -102.7342 O   0  0  0  0  0  0
   86.8548   22.4761 -100.8779 C   0  0  0  0  0  0
   88.3522   19.0642 -103.9338 O   0  0  0  0  0  0
   88.8779   18.1120 -103.0121 C   0  0  0  0  0  0
   87.9813   17.9061 -101.7684 C   0  0  0  0  0  0
   88.5028   16.8692 -100.9366 O   0  0  0  0  0  0
   88.5573   15.5196 -101.3008 C   0  0  0  0  0  0
   88.1736   15.1371 -102.4379 O   0  0  0  0  0  0
   89.0971   14.5211 -100.3345 C   0  0  0  0  0  0
   90.3784   18.3172 -102.6797 C   0  0  0  0  0  0
   91.1586   17.9123 -103.8086 O   0  0  0  0  0  0
   91.1197   16.6263 -104.3598 C   0  0  0  0  0  0
   90.4318   15.7139 -103.8267 O   0  0  0  0  0  0
   91.8895   16.3357 -105.6022 C   0  0  0  0  0  0
   90.6850   19.7771 -102.3152 C   0  0  0  0  0  0
   90.1170   20.0666 -101.0356 O   0  0  0  0  0  0
   90.5037   19.4352  -99.8489 C   0  0  0  0  0  0
   91.4228   18.5725  -99.8436 O   0  0  0  0  0  0
   89.7854   19.7538  -98.5828 C   0  0  0  0  0  0
  1  2  1  0  0  0
  2  3  1  0  0  0
  3  4  2  0  0  0
  3  6  1  0  0  0
  4  5  1  0  0  0
  6  7  1  0  0  0
  6  8  1  0  0  0
  8  9  1  0  0  0
  9 10  1  0  0  0
  9 14  1  0  0  0
 10 11  1  0  0  0
 11 12  2  0  0  0
 11 13  1  0  0  0
 14 15  1  0  0  0
 15 16  1  0  0  0
 15 21  1  0  0  0
 16 17  1  0  0  0
 17 18  1  0  0  0
 18 19  2  0  0  0
 18 20  1  0  0  0
 21 22  1  0  0  0
 21 26  1  0  0  0
 22 23  1  0  0  0
 23 24  2  0  0  0
 23 25  1  0  0  0
 26 27  1  0  0  0
 26  8  1  0  0  0
 27 28  1  0  0  0
 28 29  2  0  0  0
 28 30  1  0  0  0
M  END
>  <CHROM.0>
80.54948735,153.12676121,-65.33682554

>  <CHROM.1>
-0.80136992,85.19446796,65.79430773,1.95441911,175.42288398,-66.96879430
2.26497839,-58.50495165,-4.15921612,-175.70440806,1.64378075,89.79239156
19.92817106,-103.44450378,-1.29878224,-1.09951775,2.74769190

>  <Energy>
39.732460937053254

>  <Genealogy>
CC(=O)OC[C@H]1O[C@@H](OC(C)=O)[C@H](NC(O)=CBr)[C@@H](OC(C)=O)[C@@H]1OC(C)=O (tautomer)
CC(=O)OC[C@H]1O[C@@H](OC(C)=O)[C@H](N/C(O)=C/Br)[C@@H](OC(C)=O)[C@@H]1OC(C)=O (cis-trans isomerization)
CC(=O)OC[C@H]1O[C@@H](OC(C)=O)[C@H](N/C(O)=C/Br)[C@@H](OC(C)=O)[C@@H]1OC(C)=O (3D coordinates assigned)
CC(=O)OC[C@H]1O[C@@H](OC(C)=O)[C@H](N/C(O)=C/Br)[C@@H](OC(C)=O)[C@@H]1OC(C)=O (nonaromatic ring conformer: 39.732460937053254 kcal/mol)

>  <Name>
198514

>  <RI>
3.95439e+07

>  <Rbt.Current_Directory>
/home/edward/Documentos/Virtual_Screening/rDock/2

>  <Rbt.Executable>
rbdock ($Id: //depot/dev/client3/rdock/2013.1/src/exe/rbdock.cxx#4 $)

>  <Rbt.Library>
libRbt.so (2013.1, Build901 2013/11/27)

>  <Rbt.Parameter_File>
/home/edward/anaconda3/envs/MD/share/rdock-2013.1-1/data/scripts/dock.prm

>  <Rbt.Receptor>
parameters.prm

>  <SCORE>
-6.72095

>  <SCORE.INTER>
-6.76061

>  <SCORE.INTER.CONST>
1

>  <SCORE.INTER.POLAR>
-1.01135

>  <SCORE.INTER.REPUL>
0

>  <SCORE.INTER.ROT>
10

>  <SCORE.INTER.VDW>
-18.722

>  <SCORE.INTER.norm>
-0.24145

>  <SCORE.INTRA>
-3.10495

>  <SCORE.INTRA.DIHEDRAL>
-5.54587

>  <SCORE.INTRA.DIHEDRAL.0>
9.23949

>  <SCORE.INTRA.POLAR>
-0.555205

>  <SCORE.INTRA.POLAR.0>
0

>  <SCORE.INTRA.REPUL>
-0.0597564

>  <SCORE.INTRA.REPUL.0>
0.0597564

>  <SCORE.INTRA.VDW>
1.85446

>  <SCORE.INTRA.VDW.0>
-6.9506

>  <SCORE.INTRA.norm>
-0.110891

>  <SCORE.RESTR>
0

>  <SCORE.RESTR.CAVITY>
0

>  <SCORE.RESTR.norm>
0

>  <SCORE.SYSTEM>
3.14461

>  <SCORE.SYSTEM.CONST>
0

>  <SCORE.SYSTEM.DIHEDRAL>
5.22672

>  <SCORE.SYSTEM.VDW>
0.53125

>  <SCORE.SYSTEM.norm>
0.112308

>  <SCORE.heavy>
28

>  <SCORE.norm>
-0.240034

>  <SMILES>
CC(=O)OC[C@H]1O[C@@H](OC(C)=O)[C@H](N/C(O)=C/Br)[C@@H](OC(C)=O)[C@@H]1OC(C)=O

>  <UniqueID>
158

$$$$
193108
  rDOCK(R)          3D
libRbt.so/2013.1/901 2013/11/27
 22 22  0  0  0  0  0  0  0  0999 V2000
   89.3885   13.7593 -103.8550 H   0  0  0  0  0  0
   90.2218   13.9216 -104.4089 O   0  0  0  0  0  0
   90.4386   15.1165 -105.0969 C   0  0  0  0  0  0
   91.5112   15.2184 -105.8955 C   0  0  0  0  0  0
   91.9563   16.7840 -106.9075 Br  0  0  0  0  0  0
   89.5142   16.2132 -104.9405 N   0  0  0  0  0  0
   89.6768   17.1002 -105.4661 H   0  0  0  0  0  0
   88.3226   16.1926 -104.0796 C   0  0  0  0  0  0
   88.4447   17.1808 -102.8943 C   0  0  0  0  0  0
   89.5836   16.8764 -102.1326 O   0  0  0  0  0  0
   89.6086   17.5160 -101.3733 H   0  0  0  0  0  0
   87.2929   17.1124 -102.0654 O   0  0  0  0  0  0
   86.1371   17.5233 -102.7811 C   0  0  0  0  0  0
   84.9586   17.6789 -101.8055 C   0  0  0  0  0  0
   83.7618   17.9562 -102.4837 O   0  0  0  0  0  0
   83.0701   18.1205 -101.7908 H   0  0  0  0  0  0
   85.8183   16.5303 -103.9273 C   0  0  0  0  0  0
   85.5559   15.2495 -103.4065 O   0  0  0  0  0  0
   85.2915   14.6707 -104.1685 H   0  0  0  0  0  0
   87.0287   16.4672 -104.8796 C   0  0  0  0  0  0
   86.8323   15.5097 -105.8918 O   0  0  0  0  0  0
   86.8070   14.6129 -105.4671 H   0  0  0  0  0  0
  1  2  1  0  0  0
  2  3  1  0  0  0
  3  4  2  0  0  0
  3  6  1  0  0  0
  4  5  1  0  0  0
  6  7  1  0  0  0
  6  8  1  0  0  0
  8  9  1  0  0  0
  9 10  1  0  0  0
  9 12  1  0  0  0
 10 11  1  0  0  0
 12 13  1  0  0  0
 13 14  1  0  0  0
 13 17  1  0  0  0
 14 15  1  0  0  0
 15 16  1  0  0  0
 17 18  1  0  0  0
 17 20  1  0  0  0
 18 19  1  0  0  0
 20 21  1  0  0  0
 20  8  1  0  0  0
 21 22  1  0  0  0
M  END
>  <CHROM.0>
-75.85957145,151.67399182,-67.58305297

>  <CHROM.1>
-174.66188367,113.47662110,-178.48757100,-174.17347961,-175.17899522,175.79630253
57.49559571,88.78020433,16.42946092,-104.58035804,0.53586377,-0.14647977
-1.99201523

>  <Energy>
29.99736626791655

>  <Genealogy>
OC[C@H]1O[C@@H](O)[C@H](NC(O)=CBr)[C@@H](O)[C@H]1O (tautomer)
OC[C@H]1O[C@@H](O)[C@H](N/C(O)=C\Br)[C@@H](O)[C@H]1O (cis-trans isomerization)
OC[C@H]1O[C@@H](O)[C@H](N/C(O)=C\Br)[C@@H](O)[C@H]1O (3D coordinates assigned)
OC[C@H]1O[C@@H](O)[C@H](N/C(O)=C\Br)[C@@H](O)[C@H]1O (nonaromatic ring conformer: 29.99736626791655 kcal/mol)

>  <Name>
193108

>  <RI>
3.95439e+07

>  <Rbt.Current_Directory>
/home/edward/Documentos/Virtual_Screening/rDock/2

>  <Rbt.Executable>
rbdock ($Id: //depot/dev/client3/rdock/2013.1/src/exe/rbdock.cxx#4 $)

>  <Rbt.Library>
libRbt.so (2013.1, Build901 2013/11/27)

>  <Rbt.Parameter_File>
/home/edward/anaconda3/envs/MD/share/rdock-2013.1-1/data/scripts/dock.prm

>  <Rbt.Receptor>
parameters.prm

>  <SCORE>
-19.0988

>  <SCORE.INTER>
-19.1008

>  <SCORE.INTER.CONST>
1

>  <SCORE.INTER.POLAR>
-3.59569

>  <SCORE.INTER.REPUL>
0.00730947

>  <SCORE.INTER.ROT>
2

>  <SCORE.INTER.VDW>
-14.312

>  <SCORE.INTER.norm>
-1.1938

>  <SCORE.INTRA>
-3.22886

>  <SCORE.INTRA.DIHEDRAL>
-7.271

>  <SCORE.INTRA.DIHEDRAL.0>
10.3033

>  <SCORE.INTRA.POLAR>
0

>  <SCORE.INTRA.POLAR.0>
0

>  <SCORE.INTRA.REPUL>
0

>  <SCORE.INTRA.REPUL.0>
0

>  <SCORE.INTRA.VDW>
0.406643

>  <SCORE.INTRA.VDW.0>
-1.9033

>  <SCORE.INTRA.norm>
-0.201804

>  <SCORE.RESTR>
0

>  <SCORE.RESTR.CAVITY>
0

>  <SCORE.RESTR.norm>
0

>  <SCORE.SYSTEM>
3.23089

>  <SCORE.SYSTEM.CONST>
0

>  <SCORE.SYSTEM.DIHEDRAL>
4.7538

>  <SCORE.SYSTEM.VDW>
0.853996

>  <SCORE.SYSTEM.norm>
0.201931

>  <SCORE.heavy>
16

>  <SCORE.norm>
-1.19367

>  <SMILES>
OC[C@H]1O[C@@H](O)[C@H](N/C(O)=C\Br)[C@@H](O)[C@H]1O

>  <UniqueID>
159

$$$$
129618
  rDOCK(R)          3D
libRbt.so/2013.1/901 2013/11/27
 30 30  0  0  0  0  0  0  0  0999 V2000
   93.1200   16.1359 -104.8815 H   0  0  0  0  0  0
   92.5098   16.9092 -104.6417 O   0  0  0  0  0  0
   91.1341   16.7472 -104.4709 C   0  0  0  0  0  0
   90.6026   15.5245 -104.6093 C   0  0  0  0  0  0
   88.8864   15.1858 -104.4306 Cl  0  0  0  0  0  0
   90.3135   17.8871 -104.1406 N   0  0  0  0  0  0
   89.3048   17.7438 -103.9124 H   0  0  0  0  0  0
   90.7797   19.2812 -104.1355 C   0  0  0  0  0  0
   90.8728   19.8748 -105.5603 C   0  0  0  0  0  0
   91.7953   19.1051 -106.3337 O   0  0  0  0  0  0
   92.1417   19.3888 -107.6602 C   0  0  0  0  0  0
   91.6765   20.4002 -108.2514 O   0  0  0  0  0  0
   93.1277   18.5179 -108.3607 C   0  0  0  0  0  0
   91.3702   21.1993 -105.4939 O   0  0  0  0  0  0
   90.4682   22.0476 -104.8021 C   0  0  0  0  0  0
   90.9738   23.4896 -104.9416 C   0  0  0  0  0  0
   91.2592   23.7847 -106.3059 O   0  0  0  0  0  0
   91.9016   24.9570 -106.7098 C   0  0  0  0  0  0
   92.2864   25.8066 -105.8612 O   0  0  0  0  0  0
   92.0801   25.2287 -108.1645 C   0  0  0  0  0  0
   90.3763   21.6271 -103.3148 C   0  0  0  0  0  0
   89.4489   22.4753 -102.6332 O   0  0  0  0  0  0
   88.0792   22.5219 -102.9162 C   0  0  0  0  0  0
   87.5960   21.8882 -103.8933 O   0  0  0  0  0  0
   87.1861   23.3630 -102.0704 C   0  0  0  0  0  0
   89.9053   20.1641 -103.2266 C   0  0  0  0  0  0
   90.0055   19.6877 -101.8827 O   0  0  0  0  0  0
   89.3947   18.5145 -101.4243 C   0  0  0  0  0  0
   88.6777   17.8143 -102.1896 O   0  0  0  0  0  0
   89.5638   18.1079 -100.0007 C   0  0  0  0  0  0
  1  2  1  0  0  0
  2  3  1  0  0  0
  3  4  2  0  0  0
  3  6  1  0  0  0
  4  5  1  0  0  0
  6  7  1  0  0  0
  6  8  1  0  0  0
  8  9  1  0  0  0
  9 10  1  0  0  0
  9 14  1  0  0  0
 10 11  1  0  0  0
 11 12  2  0  0  0
 11 13  1  0  0  0
 14 15  1  0  0  0
 15 16  1  0  0  0
 15 21  1  0  0  0
 16 17  1  0  0  0
 17 18  1  0  0  0
 18 19  2  0  0  0
 18 20  1  0  0  0
 21 22  1  0  0  0
 21 26  1  0  0  0
 22 23  1  0  0  0
 23 24  2  0  0  0
 23 25  1  0  0  0
 26 27  1  0  0  0
 26  8  1  0  0  0
 27 28  1  0  0  0
 28 29  2  0  0  0
 28 30  1  0  0  0
M  END
>  <CHROM.0>
-178.63381618,151.45816406,-67.02778506

>  <CHROM.1>
0.98941486,77.97690216,-178.33631931,2.48085451,49.62830925,-171.15699062
1.45202960,64.83656246,-6.52302085,-73.74905838,-1.73144361,90.44223530,20.17078701
-104.58927021,-1.90089314,0.98413572,-0.05537643

>  <Energy>
34.55793289347701

>  <Genealogy>
CC(=O)OC[C@H]1O[C@@H](OC(C)=O)[C@H](NC(O)=CCl)[C@@H](OC(C)=O)[C@@H]1OC(C)=O (tautomer)
CC(=O)OC[C@H]1O[C@@H](OC(C)=O)[C@H](N/C(O)=C\Cl)[C@@H](OC(C)=O)[C@@H]1OC(C)=O (cis-trans isomerization)
CC(=O)OC[C@H]1O[C@@H](OC(C)=O)[C@H](N/C(O)=C\Cl)[C@@H](OC(C)=O)[C@@H]1OC(C)=O (3D coordinates assigned)
CC(=O)OC[C@H]1O[C@@H](OC(C)=O)[C@H](N/C(O)=C\Cl)[C@@H](OC(C)=O)[C@@H]1OC(C)=O (nonaromatic ring conformer: 34.55793289347701 kcal/mol)

>  <Name>
129618

>  <RI>
3.95439e+07

>  <Rbt.Current_Directory>
/home/edward/Documentos/Virtual_Screening/rDock/2

>  <Rbt.Executable>
rbdock ($Id: //depot/dev/client3/rdock/2013.1/src/exe/rbdock.cxx#4 $)

>  <Rbt.Library>
libRbt.so (2013.1, Build901 2013/11/27)

>  <Rbt.Parameter_File>
/home/edward/anaconda3/envs/MD/share/rdock-2013.1-1/data/scripts/dock.prm

>  <Rbt.Receptor>
parameters.prm

>  <SCORE>
-11.2359

>  <SCORE.INTER>
-9.32005

>  <SCORE.INTER.CONST>
1

>  <SCORE.INTER.POLAR>
-1.58319

>  <SCORE.INTER.REPUL>
0.0993872

>  <SCORE.INTER.ROT>
10

>  <SCORE.INTER.VDW>
-19.8341

>  <SCORE.INTER.norm>
-0.332859

>  <SCORE.INTRA>
-4.46895

>  <SCORE.INTRA.DIHEDRAL>
-11.6947

>  <SCORE.INTRA.DIHEDRAL.0>
16.316

>  <SCORE.INTRA.POLAR>
-0.261072

>  <SCORE.INTRA.POLAR.0>
0

>  <SCORE.INTRA.REPUL>
0

>  <SCORE.INTRA.REPUL.0>
0

>  <SCORE.INTRA.VDW>
2.26607

>  <SCORE.INTRA.VDW.0>
-6.07241

>  <SCORE.INTRA.norm>
-0.159605

>  <SCORE.RESTR>
0.811136

>  <SCORE.RESTR.CAVITY>
0.811136

>  <SCORE.RESTR.norm>
0.0289691

>  <SCORE.SYSTEM>
1.74196

>  <SCORE.SYSTEM.CONST>
0

>  <SCORE.SYSTEM.DIHEDRAL>
3.63614

>  <SCORE.SYSTEM.VDW>
-0.0761079

>  <SCORE.SYSTEM.norm>
0.0622129

>  <SCORE.heavy>
28

>  <SCORE.norm>
-0.401282

>  <SMILES>
CC(=O)OC[C@H]1O[C@@H](OC(C)=O)[C@H](N/C(O)=C\Cl)[C@@H](OC(C)=O)[C@@H]1OC(C)=O

>  <UniqueID>
162

$$$$
127132
  rDOCK(R)          3D
libRbt.so/2013.1/901 2013/11/27
 28 28  0  0  0  0  0  0  0  0999 V2000
   86.1024   17.0658 -103.9398 C   0  0  0  0  0  0
   86.9455   17.9588 -103.0898 C   0  0  0  0  0  0
   87.8002   17.4531 -102.3133 O   0  0  0  0  0  0
   86.7816   19.3817 -103.1703 N   0  0  0  0  0  0
   87.6678   20.3289 -102.4813 C   0  0  0  0  0  0
   86.8354   21.4683 -101.8655 C   0  0  0  0  0  0
   87.6332   22.2455 -100.9686 O   0  0  0  0  0  0
   87.1673   23.4120 -100.3539 C   0  0  0  0  0  0
   88.0520   24.1449  -99.4045 C   0  0  0  0  0  0
   85.9955   23.8282 -100.5640 O   0  0  0  0  0  0
   86.2472   22.2807 -102.8694 O   0  0  0  0  0  0
   87.2296   22.9221 -103.6681 C   0  0  0  0  0  0
   86.5228   23.8869 -104.6332 C   0  0  0  0  0  0
   85.7134   24.8152 -103.9114 O   0  0  0  0  0  0
   86.2165   25.7113 -102.9613 C   0  0  0  0  0  0
   85.2833   26.6441 -102.2678 C   0  0  0  0  0  0
   87.4505   25.7611 -102.7069 O   0  0  0  0  0  0
   88.0625   21.8810 -104.4486 C   0  0  0  0  0  0
   89.0776   22.5534 -105.1990 O   0  0  0  0  0  0
   90.1167   23.2887 -104.6176 C   0  0  0  0  0  0
   91.1576   23.8998 -105.4918 C   0  0  0  0  0  0
   90.2141   23.3939 -103.3648 O   0  0  0  0  0  0
   88.7160   20.8994 -103.4587 C   0  0  0  0  0  0
   89.3545   19.8447 -104.1799 O   0  0  0  0  0  0
   90.1282   18.8505 -103.5725 C   0  0  0  0  0  0
   90.7188   17.7698 -104.4114 C   0  0  0  0  0  0
   90.3671   18.8822 -102.3348 O   0  0  0  0  0  0
   86.0670   19.7553 -103.8357 H   0  0  0  0  0  0
  1  2  1  0  0  0
  2  3  2  0  0  0
  2  4  1  0  0  0
  4  5  1  0  0  0
  4 28  1  0  0  0
  5  6  1  0  0  0
  6  7  1  0  0  0
  6 11  1  0  0  0
  7  8  1  0  0  0
  8  9  1  0  0  0
  8 10  2  0  0  0
 11 12  1  0  0  0
 12 13  1  0  0  0
 12 18  1  0  0  0
 13 14  1  0  0  0
 14 15  1  0  0  0
 15 16  1  0  0  0
 15 17  2  0  0  0
 18 19  1  0  0  0
 18 23  1  0  0  0
 19 20  1  0  0  0
 20 21  1  0  0  0
 20 22  2  0  0  0
 23 24  1  0  0  0
 23  5  1  0  0  0
 24 25  1  0  0  0
 25 26  1  0  0  0
 25 27  2  0  0  0
M  END
>  <CHROM.0>
179.99353287,152.98254473,-68.18361437

>  <CHROM.1>
-138.26382410,174.44423076,178.44880886,56.07963623,60.34697671,179.74434838
63.69786352,177.28466357,-62.85691550,178.18968616,87.91059165,21.88547252
-103.04012065,1.20790583,-0.65299268,3.07021103

>  <Energy>
31.019925653160854

>  <Genealogy>
CC(=O)N[C@@H]1[C@@H](OC(C)=O)O[C@H](COC(C)=O)[C@@H](OC(C)=O)[C@@H]1OC(C)=O (chirality)
CC(=O)N[C@@H]1[C@@H](OC(C)=O)O[C@H](COC(C)=O)[C@@H](OC(C)=O)[C@@H]1OC(C)=O (3D coordinates assigned)
CC(=O)N[C@@H]1[C@@H](OC(C)=O)O[C@H](COC(C)=O)[C@@H](OC(C)=O)[C@@H]1OC(C)=O (nonaromatic ring conformer: 31.019925653160854 kcal/mol)

>  <Name>
127132

>  <RI>
3.95439e+07

>  <Rbt.Current_Directory>
/home/edward/Documentos/Virtual_Screening/rDock/2

>  <Rbt.Executable>
rbdock ($Id: //depot/dev/client3/rdock/2013.1/src/exe/rbdock.cxx#4 $)

>  <Rbt.Library>
libRbt.so (2013.1, Build901 2013/11/27)

>  <Rbt.Parameter_File>
/home/edward/anaconda3/envs/MD/share/rdock-2013.1-1/data/scripts/dock.prm

>  <Rbt.Receptor>
parameters.prm

>  <SCORE>
-7.58075

>  <SCORE.INTER>
-5.92254

>  <SCORE.INTER.CONST>
1

>  <SCORE.INTER.POLAR>
-1.96041

>  <SCORE.INTER.REPUL>
0

>  <SCORE.INTER.ROT>
10

>  <SCORE.INTER.VDW>
-14.6571

>  <SCORE.INTER.norm>
-0.219353

>  <SCORE.INTRA>
-3.39738

>  <SCORE.INTRA.DIHEDRAL>
-6.24721

>  <SCORE.INTRA.DIHEDRAL.0>
7.80936

>  <SCORE.INTRA.POLAR>
0

>  <SCORE.INTRA.POLAR.0>
0

>  <SCORE.INTRA.REPUL>
0

>  <SCORE.INTRA.REPUL.0>
0

>  <SCORE.INTRA.VDW>
-0.273777

>  <SCORE.INTRA.VDW.0>
-5.59752

>  <SCORE.INTRA.norm>
-0.125829

>  <SCORE.RESTR>
0

>  <SCORE.RESTR.CAVITY>
0

>  <SCORE.RESTR.norm>
0

>  <SCORE.SYSTEM>
1.73918

>  <SCORE.SYSTEM.CONST>
0

>  <SCORE.SYSTEM.DIHEDRAL>
3.33503

>  <SCORE.SYSTEM.VDW>
0.0716595

>  <SCORE.SYSTEM.norm>
0.064414

>  <SCORE.heavy>
27

>  <SCORE.norm>
-0.280769

>  <SMILES>
CC(=O)N[C@@H]1[C@@H](OC(C)=O)O[C@H](COC(C)=O)[C@@H](OC(C)=O)[C@@H]1OC(C)=O

>  <UniqueID>
163

$$$$
122253
  rDOCK(R)          3D
libRbt.so/2013.1/901 2013/11/27
 26 27  0  0  0  0  0  0  0  0999 V2000
   89.3458   13.6857 -103.8939 H   0  0  0  0  0  0
   90.1460   13.8445 -104.4943 O   0  0  0  0  0  0
   90.3970   15.0979 -105.0480 C   0  0  0  0  0  0
   89.6160   16.1139 -104.8150 N   0  0  0  0  0  0
   88.3830   16.1562 -104.0144 C   0  0  0  0  0  0
   88.4958   17.1128 -102.8052 C   0  0  0  0  0  0
   88.7618   18.4380 -103.2299 O   0  0  0  0  0  0
   90.1271   18.5894 -103.5522 C   0  0  0  0  0  0
   90.3111   19.9173 -104.2248 C   0  0  0  0  0  0
   90.6053   19.9809 -105.5971 C   0  0  0  0  0  0
   90.8267   21.2170 -106.2125 C   0  0  0  0  0  0
   90.7708   22.3939 -105.4607 C   0  0  0  0  0  0
   90.4990   22.3364 -104.0908 C   0  0  0  0  0  0
   90.2766   21.1025 -103.4716 C   0  0  0  0  0  0
   87.3115   17.0569 -102.0188 O   0  0  0  0  0  0
   86.1731   17.4755 -102.7607 C   0  0  0  0  0  0
   84.9664   17.5649 -101.8161 C   0  0  0  0  0  0
   83.8172   17.9397 -102.5273 O   0  0  0  0  0  0
   83.1021   18.0932 -101.8559 H   0  0  0  0  0  0
   85.8918   16.5026 -103.9288 C   0  0  0  0  0  0
   85.6078   15.2208 -103.4233 O   0  0  0  0  0  0
   86.3887   14.9466 -102.8752 H   0  0  0  0  0  0
   87.1250   16.4544 -104.8539 C   0  0  0  0  0  0
   86.9679   15.4635 -105.8365 O   0  0  0  0  0  0
   86.9019   14.5954 -105.3591 H   0  0  0  0  0  0
   91.6088   15.2915 -105.9013 C   0  0  0  0  0  0
  1  2  1  0  0  0
  2  3  1  0  0  0
  3  4  2  0  0  0
  3 26  1  0  0  0
  4  5  1  0  0  0
  5  6  1  0  0  0
  6  7  1  0  0  0
  6 15  1  0  0  0
  7  8  1  0  0  0
  8  9  1  0  0  0
  9 10  2  0  0  0
 10 11  1  0  0  0
 11 12  2  0  0  0
 12 13  1  0  0  0
 13 14  2  0  0  0
 14  9  1  0  0  0
 15 16  1  0  0  0
 16 17  1  0  0  0
 16 20  1  0  0  0
 17 18  1  0  0  0
 18 19  1  0  0  0
 20 21  1  0  0  0
 20 23  1  0  0  0
 21 22  1  0  0  0
 23 24  1  0  0  0
 23  5  1  0  0  0
 24 25  1  0  0  0
M  END
>  <CHROM.0>
179.92693691,153.31154449,-62.70431708

>  <CHROM.1>
0.09562030,118.11735628,-78.97067864,169.90283194,-109.33637608,-178.33353582
-172.98788479,-57.38422193,58.34421289,88.46892141,17.65173137,-104.05918517
-2.41730890,0.44020659,0.14082531

>  <Energy>
44.25547574707358

>  <Genealogy>
CC(O)=N[C@H]1[C@@H](OCc2ccccc2)O[C@H](CO)[C@H](O)[C@@H]1O (tautomer)
C/C(O)=N/[C@H]1[C@@H](OCc2ccccc2)O[C@H](CO)[C@H](O)[C@@H]1O (cis-trans isomerization)
C/C(O)=N/[C@H]1[C@@H](OCc2ccccc2)O[C@H](CO)[C@H](O)[C@@H]1O (3D coordinates assigned)
C/C(O)=N/[C@H]1[C@@H](OCc2ccccc2)O[C@H](CO)[C@H](O)[C@@H]1O (nonaromatic ring conformer: 44.25547574707358 kcal/mol)

>  <Name>
122253

>  <RI>
3.95439e+07

>  <Rbt.Current_Directory>
/home/edward/Documentos/Virtual_Screening/rDock/2

>  <Rbt.Executable>
rbdock ($Id: //depot/dev/client3/rdock/2013.1/src/exe/rbdock.cxx#4 $)

>  <Rbt.Library>
libRbt.so (2013.1, Build901 2013/11/27)

>  <Rbt.Parameter_File>
/home/edward/anaconda3/envs/MD/share/rdock-2013.1-1/data/scripts/dock.prm

>  <Rbt.Receptor>
parameters.prm

>  <SCORE>
-18.4994

>  <SCORE.INTER>
-17.7484

>  <SCORE.INTER.CONST>
1

>  <SCORE.INTER.POLAR>
-2.84977

>  <SCORE.INTER.REPUL>
0.0226207

>  <SCORE.INTER.ROT>
5

>  <SCORE.INTER.VDW>
-18.5723

>  <SCORE.INTER.norm>
-0.806747

>  <SCORE.INTRA>
-2.51437

>  <SCORE.INTRA.DIHEDRAL>
-6.41925

>  <SCORE.INTRA.DIHEDRAL.0>
9.61789

>  <SCORE.INTRA.POLAR>
-0.00168739

>  <SCORE.INTRA.POLAR.0>
0

>  <SCORE.INTRA.REPUL>
-0.158954

>  <SCORE.INTRA.REPUL.0>
0.158954

>  <SCORE.INTRA.VDW>
1.49576

>  <SCORE.INTRA.VDW.0>
-3.01239

>  <SCORE.INTRA.norm>
-0.11429

>  <SCORE.RESTR>
0

>  <SCORE.RESTR.CAVITY>
0

>  <SCORE.RESTR.norm>
0

>  <SCORE.SYSTEM>
1.76341

>  <SCORE.SYSTEM.CONST>
0

>  <SCORE.SYSTEM.DIHEDRAL>
3.35719

>  <SCORE.SYSTEM.VDW>
0.0848203

>  <SCORE.SYSTEM.norm>
0.0801552

>  <SCORE.heavy>
22

>  <SCORE.norm>
-0.840881

>  <SMILES>
C/C(O)=N/[C@H]1[C@@H](OCc2ccccc2)O[C@H](CO)[C@H](O)[C@@H]1O

>  <UniqueID>
165

$$$$
118328
  rDOCK(R)          3D
libRbt.so/2013.1/901 2013/11/27
 31 33  0  0  0  0  0  0  0  0999 V2000
   90.8116   19.7422 -107.8391 C   0  0  0  0  0  0
   91.6376   19.0529 -106.8030 C   0  0  0  0  0  0
   92.6656   19.6252 -106.3499 O   0  0  0  0  0  0
   91.2303   17.7725 -106.2985 N   0  0  0  0  0  0
   91.9181   17.0958 -105.1903 C   0  0  0  0  0  0
   91.1929   17.3870 -103.8589 C   0  0  0  0  0  0
   91.0496   18.7977 -103.6785 O   0  0  0  0  0  0
   90.6281   19.4406 -102.5027 C   0  0  0  0  0  0
   90.6733   20.8377 -102.4678 C   0  0  0  0  0  0
   90.2798   21.5390 -101.3255 C   0  0  0  0  0  0
   89.8240   20.8459 -100.1881 C   0  0  0  0  0  0
   89.4149   21.5022  -99.0049 C   0  0  0  0  0  0
   89.4411   23.0030  -98.8735 C   0  0  0  0  0  0
   88.9725   20.7262  -97.9248 C   0  0  0  0  0  0
   88.9484   19.3350  -98.0429 C   0  0  0  0  0  0
   88.5539   18.6297  -97.0779 O   0  0  0  0  0  0
   89.3399   18.7478  -99.1675 O   0  0  0  0  0  0
   89.7684   19.4321 -100.2238 C   0  0  0  0  0  0
   90.1646   18.7402 -101.3732 C   0  0  0  0  0  0
   89.8976   16.8164 -103.8819 O   0  0  0  0  0  0
   89.9694   15.3999 -103.9011 C   0  0  0  0  0  0
   88.5426   14.8572 -103.7280 C   0  0  0  0  0  0
   87.6850   15.3802 -104.7086 O   0  0  0  0  0  0
   90.6046   14.9109 -105.2265 C   0  0  0  0  0  0
   90.7653   13.5154 -105.1869 O   0  0  0  0  0  0
   91.9830   15.5756 -105.4274 C   0  0  0  0  0  0
   92.4632   15.3235 -106.7239 O   0  0  0  0  0  0
   90.3360   17.3683 -106.6572 H   0  0  0  0  0  0
   87.7159   16.3691 -104.6267 H   0  0  0  0  0  0
   91.3409   13.3114 -104.4042 H   0  0  0  0  0  0
   92.5754   14.3406 -106.8061 H   0  0  0  0  0  0
  1  2  1  0  0  0
  2  3  2  0  0  0
  2  4  1  0  0  0
  4  5  1  0  0  0
  4 28  1  0  0  0
  5  6  1  0  0  0
  6  7  1  0  0  0
  6 20  1  0  0  0
  7  8  1  0  0  0
  8  9  2  0  0  0
  9 10  1  0  0  0
 10 11  2  0  0  0
 11 12  1  0  0  0
 12 13  1  0  0  0
 12 14  2  0  0  0
 14 15  1  0  0  0
 15 16  2  0  0  0
 15 17  1  0  0  0
 17 18  1  0  0  0
 18 19  2  0  0  0
 18 11  1  0  0  0
 19  8  1  0  0  0
 20 21  1  0  0  0
 21 22  1  0  0  0
 21 24  1  0  0  0
 22 23  1  0  0  0
 23 29  1  0  0  0
 24 25  1  0  0  0
 24 26  1  0  0  0
 25 30  1  0  0  0
 26 27  1  0  0  0
 26  5  1  0  0  0
 27 31  1  0  0  0
M  END
>  <CHROM.0>
-178.90094325,152.38817742,52.59428326

>  <CHROM.1>
95.93323443,-169.66583607,173.81301534,55.64229837,-57.72608105,-58.50576295
174.51781690,90.31346375,18.18719344,-102.95572056,-1.05471633,1.13481914
0.54843048

>  <Energy>
52.909840480335816

>  <Genealogy>
CC(=O)N[C@@H]1[C@H](O)[C@@H](O)[C@H](CO)O[C@@H]1Oc1ccc2c(C)cc(=O)oc2c1 (chirality)
CC(=O)N[C@@H]1[C@H](O)[C@@H](O)[C@H](CO)O[C@@H]1Oc1ccc2c(C)cc(=O)oc2c1 (3D coordinates assigned)
CC(=O)N[C@@H]1[C@H](O)[C@@H](O)[C@H](CO)O[C@@H]1Oc1ccc2c(C)cc(=O)oc2c1 (nonaromatic ring conformer: 52.909840480335816 kcal/mol)

>  <Name>
118328

>  <RI>
3.95439e+07

>  <Rbt.Current_Directory>
/home/edward/Documentos/Virtual_Screening/rDock/2

>  <Rbt.Executable>
rbdock ($Id: //depot/dev/client3/rdock/2013.1/src/exe/rbdock.cxx#4 $)

>  <Rbt.Library>
libRbt.so (2013.1, Build901 2013/11/27)

>  <Rbt.Parameter_File>
/home/edward/anaconda3/envs/MD/share/rdock-2013.1-1/data/scripts/dock.prm

>  <Rbt.Receptor>
parameters.prm

>  <SCORE>
-23.7846

>  <SCORE.INTER>
-21.3036

>  <SCORE.INTER.CONST>
1

>  <SCORE.INTER.POLAR>
-2.907

>  <SCORE.INTER.REPUL>
0.173113

>  <SCORE.INTER.ROT>
4

>  <SCORE.INTER.VDW>
-21.6853

>  <SCORE.INTER.norm>
-0.789022

>  <SCORE.INTRA>
-4.99542

>  <SCORE.INTRA.DIHEDRAL>
-11.8332

>  <SCORE.INTRA.DIHEDRAL.0>
13.6748

>  <SCORE.INTRA.POLAR>
-0.0361644

>  <SCORE.INTRA.POLAR.0>
0

>  <SCORE.INTRA.REPUL>
0

>  <SCORE.INTRA.REPUL.0>
0

>  <SCORE.INTRA.VDW>
1.04415

>  <SCORE.INTRA.VDW.0>
-3.30088

>  <SCORE.INTRA.norm>
-0.185015

>  <SCORE.RESTR>
0.113206

>  <SCORE.RESTR.CAVITY>
0.113206

>  <SCORE.RESTR.norm>
0.00419282

>  <SCORE.SYSTEM>
2.40123

>  <SCORE.SYSTEM.CONST>
0

>  <SCORE.SYSTEM.DIHEDRAL>
3.45596

>  <SCORE.SYSTEM.VDW>
0.67325

>  <SCORE.SYSTEM.norm>
0.0889345

>  <SCORE.heavy>
27

>  <SCORE.norm>
-0.88091

>  <SMILES>
CC(=O)N[C@@H]1[C@H](O)[C@@H](O)[C@H](CO)O[C@@H]1Oc1ccc2c(C)cc(=O)oc2c1

>  <UniqueID>
167

$$$$
112106
  rDOCK(R)          3D
libRbt.so/2013.1/901 2013/11/27
 29 31  0  0  0  0  0  0  0  0999 V2000
   87.6387   13.5507 -100.7661 H   0  0  0  0  0  0
   88.5136   13.8837 -101.1541 O   0  0  0  0  0  0
   88.5353   14.7024 -102.2795 C   0  0  0  0  0  0
   89.6848   15.0885 -102.7593 N   0  0  0  0  0  0
   89.9096   15.9594 -103.9181 C   0  0  0  0  0  0
   90.5814   17.2847 -103.4883 C   0  0  0  0  0  0
   89.7232   18.0101 -102.6039 O   0  0  0  0  0  0
   90.0552   19.1439 -101.8353 C   0  0  0  0  0  0
   90.4450   19.0529 -100.4824 C   0  0  0  0  0  0
   90.7545   20.2012  -99.7522 C   0  0  0  0  0  0
   90.6886   21.4578 -100.3510 C   0  0  0  0  0  0
   90.3104   21.5779 -101.6940 C   0  0  0  0  0  0
   90.2407   22.8429 -102.2987 C   0  0  0  0  0  0
   89.8587   22.9621 -103.6365 C   0  0  0  0  0  0
   89.5439   21.8239 -104.3804 C   0  0  0  0  0  0
   89.6094   20.5580 -103.7926 C   0  0  0  0  0  0
   89.9935   20.4165 -102.4451 C   0  0  0  0  0  0
   90.7956   18.0930 -104.6312 O   0  0  0  0  0  0
   91.7534   17.5034 -105.4962 C   0  0  0  0  0  0
   92.0701   18.4986 -106.6223 C   0  0  0  0  0  0
   92.2957   19.7781 -106.0938 O   0  0  0  0  0  0
   93.0152   19.6863 -105.4160 H   0  0  0  0  0  0
   91.2072   16.1747 -106.0711 C   0  0  0  0  0  0
   92.1877   15.5494 -106.8614 O   0  0  0  0  0  0
   92.9772   15.3927 -106.2803 H   0  0  0  0  0  0
   90.8196   15.2314 -104.9186 C   0  0  0  0  0  0
   90.1439   14.1086 -105.4250 O   0  0  0  0  0  0
   89.9501   13.5159 -104.6525 H   0  0  0  0  0  0
   87.2264   15.0946 -102.8999 C   0  0  0  0  0  0
  1  2  1  0  0  0
  2  3  1  0  0  0
  3  4  2  0  0  0
  3 29  1  0  0  0
  4  5  1  0  0  0
  5  6  1  0  0  0
  6  7  1  0  0  0
  6 18  1  0  0  0
  7  8  1  0  0  0
  8  9  2  0  0  0
  9 10  1  0  0  0
 10 11  2  0  0  0
 11 12  1  0  0  0
 12 13  2  0  0  0
 13 14  1  0  0  0
 14 15  2  0  0  0
 15 16  1  0  0  0
 16 17  2  0  0  0
 17  8  1  0  0  0
 17 12  1  0  0  0
 18 19  1  0  0  0
 19 20  1  0  0  0
 19 23  1  0  0  0
 20 21  1  0  0  0
 21 22  1  0  0  0
 23 24  1  0  0  0
 23 26  1  0  0  0
 24 25  1  0  0  0
 26 27  1  0  0  0
 26  5  1  0  0  0
 27 28  1  0  0  0
M  END
>  <CHROM.0>
-176.85465204,152.85481824,-171.51439630

>  <CHROM.1>
-178.79903748,115.40973057,169.06305285,-96.03160023,46.63618363,55.23188800
58.79960335,-61.22616039,90.29439410,18.05027244,-103.51837686,1.67226218
-1.09586986,-2.75617993

>  <Energy>
51.62363847995355

>  <Genealogy>
CC(O)=N[C@H]1[C@H](Oc2cccc3ccccc23)O[C@H](CO)[C@@H](O)[C@@H]1O (tautomer)
C/C(O)=N\[C@H]1[C@H](Oc2cccc3ccccc23)O[C@H](CO)[C@@H](O)[C@@H]1O (cis-trans isomerization)
C/C(O)=N\[C@H]1[C@H](Oc2cccc3ccccc23)O[C@H](CO)[C@@H](O)[C@@H]1O (3D coordinates assigned)
C/C(O)=N\[C@H]1[C@H](Oc2cccc3ccccc23)O[C@H](CO)[C@@H](O)[C@@H]1O (nonaromatic ring conformer: 51.62363847995355 kcal/mol)

>  <Name>
112106

>  <RI>
3.95439e+07

>  <Rbt.Current_Directory>
/home/edward/Documentos/Virtual_Screening/rDock/2

>  <Rbt.Executable>
rbdock ($Id: //depot/dev/client3/rdock/2013.1/src/exe/rbdock.cxx#4 $)

>  <Rbt.Library>
libRbt.so (2013.1, Build901 2013/11/27)

>  <Rbt.Parameter_File>
/home/edward/anaconda3/envs/MD/share/rdock-2013.1-1/data/scripts/dock.prm

>  <Rbt.Receptor>
parameters.prm

>  <SCORE>
-16.8897

>  <SCORE.INTER>
-19.0415

>  <SCORE.INTER.CONST>
1

>  <SCORE.INTER.POLAR>
-2.01704

>  <SCORE.INTER.REPUL>
0.0157337

>  <SCORE.INTER.ROT>
4

>  <SCORE.INTER.VDW>
-21.6622

>  <SCORE.INTER.norm>
-0.761659

>  <SCORE.INTRA>
-1.49416

>  <SCORE.INTRA.DIHEDRAL>
-5.92573

>  <SCORE.INTRA.DIHEDRAL.0>
12.0488

>  <SCORE.INTRA.POLAR>
-0.00189882

>  <SCORE.INTRA.POLAR.0>
0

>  <SCORE.INTRA.REPUL>
0

>  <SCORE.INTRA.REPUL.0>
0

>  <SCORE.INTRA.VDW>
1.47516

>  <SCORE.INTRA.VDW.0>
-3.96045

>  <SCORE.INTRA.norm>
-0.0597663

>  <SCORE.RESTR>
0.022224

>  <SCORE.RESTR.CAVITY>
0.022224

>  <SCORE.RESTR.norm>
0.000888959

>  <SCORE.SYSTEM>
3.62367

>  <SCORE.SYSTEM.CONST>
0

>  <SCORE.SYSTEM.DIHEDRAL>
4.00416

>  <SCORE.SYSTEM.VDW>
1.62159

>  <SCORE.SYSTEM.norm>
0.144947

>  <SCORE.heavy>
25

>  <SCORE.norm>
-0.67559

>  <SMILES>
C/C(O)=N\[C@H]1[C@H](Oc2cccc3ccccc23)O[C@H](CO)[C@@H](O)[C@@H]1O

>  <UniqueID>
170

$$$$
102416
  rDOCK(R)          3D
libRbt.so/2013.1/901 2013/11/27
 28 29  0  0  0  0  0  0  0  0999 V2000
   92.1147   14.3179 -105.9311 C   0  0  0  0  0  0
   90.9548   15.0223 -105.3068 C   0  0  0  0  0  0
   89.7818   14.6285 -105.5501 O   0  0  0  0  0  0
   91.1796   16.1550 -104.4556 N   0  0  0  0  0  0
   90.0737   16.8907 -103.8272 C   0  0  0  0  0  0
   90.6246   18.0175 -102.8976 C   0  0  0  0  0  0
   90.0452   17.8652 -101.6016 O   0  0  0  0  0  0
   89.9978   18.8645 -100.6169 C   0  0  0  0  0  0
   90.7611   20.0446 -100.6945 C   0  0  0  0  0  0
   90.6756   21.0080  -99.6849 C   0  0  0  0  0  0
   89.8289   20.8120  -98.5790 C   0  0  0  0  0  0
   89.7383   21.8016  -97.5378 N   0  3  0  0  0  0
   90.4094   22.8528  -97.5977 O   0  0  0  0  0  0
   88.9084   21.6059  -96.4574 O   0  5  0  0  0  0
   89.0707   19.6312  -98.5060 C   0  0  0  0  0  0
   89.1571   18.6693  -99.5163 C   0  0  0  0  0  0
   90.3232   19.3188 -103.3798 O   0  0  0  0  0  0
   90.7270   19.4477 -104.7287 C   0  0  0  0  0  0
   90.7790   20.9407 -105.0844 C   0  0  0  0  0  0
   89.5593   21.5690 -104.7927 O   0  0  0  0  0  0
   89.7420   18.6765 -105.6430 C   0  0  0  0  0  0
   90.4236   18.2441 -106.7931 O   0  0  0  0  0  0
   89.1169   17.4649 -104.8972 C   0  0  0  0  0  0
   87.9271   17.8637 -104.2628 O   0  0  0  0  0  0
   92.1630   16.4872 -104.3379 H   0  0  0  0  0  0
   89.3792   21.4066 -103.8300 H   0  0  0  0  0  0
   89.7675   17.7455 -107.3471 H   0  0  0  0  0  0
   87.3085   18.1723 -104.9758 H   0  0  0  0  0  0
  1  2  1  0  0  0
  2  3  2  0  0  0
  2  4  1  0  0  0
  4  5  1  0  0  0
  4 25  1  0  0  0
  5  6  1  0  0  0
  6  7  1  0  0  0
  6 17  1  0  0  0
  7  8  1  0  0  0
  8  9  2  0  0  0
  9 10  1  0  0  0
 10 11  2  0  0  0
 11 12  1  0  0  0
 11 15  1  0  0  0
 12 13  2  0  0  0
 12 14  1  0  0  0
 15 16  2  0  0  0
 16  8  1  0  0  0
 17 18  1  0  0  0
 18 19  1  0  0  0
 18 21  1  0  0  0
 19 20  1  0  0  0
 20 26  1  0  0  0
 21 22  1  0  0  0
 21 23  1  0  0  0
 22 27  1  0  0  0
 23 24  1  0  0  0
 23  5  1  0  0  0
 24 28  1  0  0  0
M  END
>  <CHROM.0>
178.19311956,154.02792000,-66.77562661

>  <CHROM.1>
176.81072774,-161.56114593,-13.59059189,-53.99580761,56.62205320,179.24762065
-176.36484935,90.06120514,18.83224242,-102.49959037,-0.30923182,-1.48735877
2.26714214

>  <Energy>
47.48876030027342

>  <Genealogy>
CC(=O)N[C@H]1[C@H](Oc2ccc([N+](=O)[O-])cc2)O[C@H](CO)[C@@H](O)[C@@H]1O (3D coordinates assigned)
CC(=O)N[C@H]1[C@H](Oc2ccc([N+](=O)[O-])cc2)O[C@H](CO)[C@@H](O)[C@@H]1O (nonaromatic ring conformer: 47.48876030027342 kcal/mol)

>  <Name>
102416

>  <RI>
3.95439e+07

>  <Rbt.Current_Directory>
/home/edward/Documentos/Virtual_Screening/rDock/2

>  <Rbt.Executable>
rbdock ($Id: //depot/dev/client3/rdock/2013.1/src/exe/rbdock.cxx#4 $)

>  <Rbt.Library>
libRbt.so (2013.1, Build901 2013/11/27)

>  <Rbt.Parameter_File>
/home/edward/anaconda3/envs/MD/share/rdock-2013.1-1/data/scripts/dock.prm

>  <Rbt.Receptor>
parameters.prm

>  <SCORE>
-15.4862

>  <SCORE.INTER>
-16.3333

>  <SCORE.INTER.CONST>
1

>  <SCORE.INTER.POLAR>
-2.28627

>  <SCORE.INTER.REPUL>
0

>  <SCORE.INTER.ROT>
4

>  <SCORE.INTER.VDW>
-17.96

>  <SCORE.INTER.norm>
-0.680554

>  <SCORE.INTRA>
-1.0994

>  <SCORE.INTRA.DIHEDRAL>
-2.51969

>  <SCORE.INTRA.DIHEDRAL.0>
5.80889

>  <SCORE.INTRA.POLAR>
-0.0477604

>  <SCORE.INTRA.POLAR.0>
0

>  <SCORE.INTRA.REPUL>
0

>  <SCORE.INTRA.REPUL.0>
0

>  <SCORE.INTRA.VDW>
0.322829

>  <SCORE.INTRA.VDW.0>
-2.06276

>  <SCORE.INTRA.norm>
-0.0458084

>  <SCORE.RESTR>
0.207957

>  <SCORE.RESTR.CAVITY>
0.207957

>  <SCORE.RESTR.norm>
0.0086649

>  <SCORE.SYSTEM>
1.73859

>  <SCORE.SYSTEM.CONST>
0

>  <SCORE.SYSTEM.DIHEDRAL>
3.16766

>  <SCORE.SYSTEM.VDW>
0.154757

>  <SCORE.SYSTEM.norm>
0.0724411

>  <SCORE.heavy>
24

>  <SCORE.norm>
-0.645257

>  <SMILES>
CC(=O)N[C@H]1[C@H](Oc2ccc([N+](=O)[O-])cc2)O[C@H](CO)[C@@H](O)[C@@H]1O

>  <UniqueID>
172

$$$$
99461
  rDOCK(R)          3D
libRbt.so/2013.1/901 2013/11/27
 28 28  0  0  0  0  0  0  0  0999 V2000
   91.0390   18.8041 -109.4118 C   0  0  0  0  0  0
   91.5679   18.9279 -108.0205 C   0  0  0  0  0  0
   92.6675   19.5124 -107.8246 O   0  0  0  0  0  0
   90.7994   18.4266 -106.9172 N   0  0  0  0  0  0
   91.2021   18.5980 -105.5177 C   0  0  0  0  0  0
   90.7335   19.9688 -104.9842 C   0  0  0  0  0  0
   91.3647   21.0146 -105.7248 O   0  0  0  0  0  0
   91.0307   22.3694 -105.6071 C   0  0  0  0  0  0
   89.9446   22.7780 -104.6719 C   0  0  0  0  0  0
   91.6064   23.2430 -106.3109 O   0  0  0  0  0  0
   91.1132   20.1091 -103.6277 O   0  0  0  0  0  0
   90.4292   19.1711 -102.8130 C   0  0  0  0  0  0
   90.7358   19.4962 -101.3435 C   0  0  0  0  0  0
   90.2629   20.7998 -101.0063 O   0  0  0  0  0  0
   90.6066   21.4617  -99.8225 C   0  0  0  0  0  0
   89.9778   22.7761  -99.5083 C   0  0  0  0  0  0
   91.4762   20.9843  -99.0438 O   0  0  0  0  0  0
   90.8684   17.7312 -103.1728 C   0  0  0  0  0  0
   90.1346   16.7809 -102.3964 O   0  0  0  0  0  0
   88.7373   16.7031 -102.3683 C   0  0  0  0  0  0
   88.0786   15.7387 -101.4426 C   0  0  0  0  0  0
   88.0317   17.4060 -103.1418 O   0  0  0  0  0  0
   90.5974   17.4707 -104.6657 C   0  0  0  0  0  0
   91.1820   16.2281 -105.0630 O   0  0  0  0  0  0
   90.5724   14.9830 -104.8708 C   0  0  0  0  0  0
   91.2767   13.7468 -105.3144 C   0  0  0  0  0  0
   89.4502   14.8906 -104.3036 O   0  0  0  0  0  0
   89.8689   17.9936 -107.1173 H   0  0  0  0  0  0
  1  2  1  0  0  0
  2  3  2  0  0  0
  2  4  1  0  0  0
  4  5  1  0  0  0
  4 28  1  0  0  0
  5  6  1  0  0  0
  6  7  1  0  0  0
  6 11  1  0  0  0
  7  8  1  0  0  0
  8  9  1  0  0  0
  8 10  2  0  0  0
 11 12  1  0  0  0
 12 13  1  0  0  0
 12 18  1  0  0  0
 13 14  1  0  0  0
 14 15  1  0  0  0
 15 16  1  0  0  0
 15 17  2  0  0  0
 18 19  1  0  0  0
 18 23  1  0  0  0
 19 20  1  0  0  0
 20 21  1  0  0  0
 20 22  2  0  0  0
 23 24  1  0  0  0
 23  5  1  0  0  0
 24 25  1  0  0  0
 25 26  1  0  0  0
 25 27  2  0  0  0
M  END
>  <CHROM.0>
178.02949773,162.87338068,50.09899777

>  <CHROM.1>
84.65249848,171.59916589,-0.69568437,61.83816864,-168.10090657,-175.19910025
56.37615893,-175.41361555,-156.38420421,-179.51444329,90.57234757,18.90380213
-104.02663285,-1.31414515,1.29769232,0.66762798

>  <Energy>
32.0085864282444

>  <Genealogy>
CC(=O)N[C@H]1[C@H](OC(C)=O)O[C@H](COC(C)=O)[C@@H](OC(C)=O)[C@@H]1OC(C)=O (3D coordinates assigned)
CC(=O)N[C@H]1[C@H](OC(C)=O)O[C@H](COC(C)=O)[C@@H](OC(C)=O)[C@@H]1OC(C)=O (nonaromatic ring conformer: 32.0085864282444 kcal/mol)

>  <Name>
99461

>  <RI>
3.95439e+07

>  <Rbt.Current_Directory>
/home/edward/Documentos/Virtual_Screening/rDock/2

>  <Rbt.Executable>
rbdock ($Id: //depot/dev/client3/rdock/2013.1/src/exe/rbdock.cxx#4 $)

>  <Rbt.Library>
libRbt.so (2013.1, Build901 2013/11/27)

>  <Rbt.Parameter_File>
/home/edward/anaconda3/envs/MD/share/rdock-2013.1-1/data/scripts/dock.prm

>  <Rbt.Receptor>
parameters.prm

>  <SCORE>
-10.5451

>  <SCORE.INTER>
-11.6486

>  <SCORE.INTER.CONST>
1

>  <SCORE.INTER.POLAR>
-1.99298

>  <SCORE.INTER.REPUL>
0

>  <SCORE.INTER.ROT>
10

>  <SCORE.INTER.VDW>
-20.2725

>  <SCORE.INTER.norm>
-0.43143

>  <SCORE.INTRA>
-2.09456

>  <SCORE.INTRA.DIHEDRAL>
-9.08097

>  <SCORE.INTRA.DIHEDRAL.0>
14.1526

>  <SCORE.INTRA.POLAR>
0

>  <SCORE.INTRA.POLAR.0>
0

>  <SCORE.INTRA.REPUL>
0

>  <SCORE.INTRA.REPUL.0>
0

>  <SCORE.INTRA.VDW>
2.44592

>  <SCORE.INTRA.VDW.0>
-5.15087

>  <SCORE.INTRA.norm>
-0.0775764

>  <SCORE.RESTR>
0.337992

>  <SCORE.RESTR.CAVITY>
0.337992

>  <SCORE.RESTR.norm>
0.0125182

>  <SCORE.SYSTEM>
2.86009

>  <SCORE.SYSTEM.CONST>
0

>  <SCORE.SYSTEM.DIHEDRAL>
1.67106

>  <SCORE.SYSTEM.VDW>
2.02456

>  <SCORE.SYSTEM.norm>
0.105929

>  <SCORE.heavy>
27

>  <SCORE.norm>
-0.390559

>  <SMILES>
CC(=O)N[C@H]1[C@H](OC(C)=O)O[C@H](COC(C)=O)[C@@H](OC(C)=O)[C@@H]1OC(C)=O

>  <UniqueID>
173

$$$$
96523
  rDOCK(R)          3D
libRbt.so/2013.1/901 2013/11/27
 20 20  0  0  0  0  0  0  0  0999 V2000
   88.3714   20.6499 -103.4993 C   0  0  0  0  0  0
   88.8844   20.8410 -104.7995 O   0  0  0  0  0  0
   90.3018   20.9490 -104.7571 C   0  0  0  0  0  0
   90.9034   19.7075 -104.4202 O   0  0  0  0  0  0
   90.4759   18.6658 -105.2895 C   0  0  0  0  0  0
   91.2610   17.3935 -104.9460 C   0  0  0  0  0  0
   92.6158   17.5525 -105.2660 O   0  0  0  0  0  0
   90.6177   19.0356 -106.8024 C   0  0  0  0  0  0
   89.3463   19.2024 -107.3770 O   0  0  0  0  0  0
   91.4255   20.3309 -106.9864 C   0  0  0  0  0  0
   92.7658   20.0827 -106.6416 O   0  0  0  0  0  0
   90.8592   21.4787 -106.1083 C   0  0  0  0  0  0
   89.8373   22.2458 -106.8350 N   0  0  0  0  0  0
   90.0264   23.6217 -107.1939 C   0  0  0  0  0  0
   88.9448   24.3584 -107.9140 C   0  0  0  0  0  0
   91.1046   24.2131 -106.9150 O   0  0  0  0  0  0
   93.0693   16.7238 -104.9621 H   0  0  0  0  0  0
   88.8554   18.3504 -107.2386 H   0  0  0  0  0  0
   92.7586   19.6255 -105.7601 H   0  0  0  0  0  0
   88.9462   21.7827 -107.1253 H   0  0  0  0  0  0
  1  2  1  0  0  0
  2  3  1  0  0  0
  3  4  1  0  0  0
  4  5  1  0  0  0
  5  6  1  0  0  0
  5  8  1  0  0  0
  6  7  1  0  0  0
  7 17  1  0  0  0
  8  9  1  0  0  0
  8 10  1  0  0  0
  9 18  1  0  0  0
 10 11  1  0  0  0
 10 12  1  0  0  0
 11 19  1  0  0  0
 12 13  1  0  0  0
 12  3  1  0  0  0
 13 14  1  0  0  0
 13 20  1  0  0  0
 14 15  1  0  0  0
 14 16  2  0  0  0
M  END
>  <CHROM.0>
176.67162189,154.34934459,52.34820340

>  <CHROM.1>
69.35548291,-67.16531513,176.17872983,-57.68490769,-49.14061526,120.47185050
90.49680260,20.60246342,-105.97238578,1.24030819,-0.62530184,2.61991167

>  <Energy>
38.66900813110326

>  <Genealogy>
CO[C@H]1O[C@H](CO)[C@@H](O)[C@H](O)[C@H]1NC(C)=O (3D coordinates assigned)
CO[C@H]1O[C@H](CO)[C@@H](O)[C@H](O)[C@H]1NC(C)=O (nonaromatic ring conformer: 38.66900813110326 kcal/mol)

>  <Name>
96523

>  <RI>
3.95439e+07

>  <Rbt.Current_Directory>
/home/edward/Documentos/Virtual_Screening/rDock/2

>  <Rbt.Executable>
rbdock ($Id: //depot/dev/client3/rdock/2013.1/src/exe/rbdock.cxx#4 $)

>  <Rbt.Library>
libRbt.so (2013.1, Build901 2013/11/27)

>  <Rbt.Parameter_File>
/home/edward/anaconda3/envs/MD/share/rdock-2013.1-1/data/scripts/dock.prm

>  <Rbt.Receptor>
parameters.prm

>  <SCORE>
-16.406

>  <SCORE.INTER>
-13.1503

>  <SCORE.INTER.CONST>
1

>  <SCORE.INTER.POLAR>
-3.07014

>  <SCORE.INTER.REPUL>
0.235848

>  <SCORE.INTER.ROT>
3

>  <SCORE.INTER.VDW>
-12.2911

>  <SCORE.INTER.norm>
-0.821893

>  <SCORE.INTRA>
-5.67689

>  <SCORE.INTRA.DIHEDRAL>
-2.66839

>  <SCORE.INTRA.DIHEDRAL.0>
5.27677

>  <SCORE.INTRA.POLAR>
-0.706632

>  <SCORE.INTRA.POLAR.0>
0

>  <SCORE.INTRA.REPUL>
-0.589059

>  <SCORE.INTRA.REPUL.0>
0.589059

>  <SCORE.INTRA.VDW>
1.00515

>  <SCORE.INTRA.VDW.0>
-2.08655

>  <SCORE.INTRA.norm>
-0.354806

>  <SCORE.RESTR>
0.00929348

>  <SCORE.RESTR.CAVITY>
0.00929348

>  <SCORE.RESTR.norm>
0.000580842

>  <SCORE.SYSTEM>
2.41189

>  <SCORE.SYSTEM.CONST>
0

>  <SCORE.SYSTEM.DIHEDRAL>
3.14012

>  <SCORE.SYSTEM.VDW>
0.84183

>  <SCORE.SYSTEM.norm>
0.150743

>  <SCORE.heavy>
16

>  <SCORE.norm>
-1.02537

>  <SMILES>
CO[C@H]1O[C@H](CO)[C@@H](O)[C@H](O)[C@H]1NC(C)=O

>  <UniqueID>
176

$$$$
90220
  rDOCK(R)          3D
libRbt.so/2013.1/901 2013/11/27
 28 29  0  0  0  0  0  0  0  0999 V2000
   88.0493   23.5937 -106.2196 C   0  0  0  0  0  0
   89.3848   23.0446 -105.8374 C   0  0  0  0  0  0
   90.2300   23.7952 -105.2788 O   0  0  0  0  0  0
   89.6835   21.6619 -106.0742 N   0  0  0  0  0  0
   90.9819   21.0683 -105.7267 C   0  0  0  0  0  0
   90.9243   20.4029 -104.3340 C   0  0  0  0  0  0
   90.5427   21.3715 -103.3543 O   0  0  0  0  0  0
   90.3140   21.1207 -101.9906 C   0  0  0  0  0  0
   89.9609   22.2007 -101.1747 C   0  0  0  0  0  0
   89.7212   22.0160  -99.8103 C   0  0  0  0  0  0
   89.8279   20.7391  -99.2343 C   0  0  0  0  0  0
   89.5814   20.5509  -97.8287 N   0  3  0  0  0  0
   89.6747   19.4182  -97.3117 O   0  0  0  0  0  0
   89.2390   21.6178  -97.0298 O   0  5  0  0  0  0
   90.1773   19.6516 -100.0545 C   0  0  0  0  0  0
   90.4165   19.8378 -101.4193 C   0  0  0  0  0  0
   89.9613   19.3647 -104.3143 O   0  0  0  0  0  0
   90.2701   18.3010 -105.2060 C   0  0  0  0  0  0
   91.3052   17.3127 -104.6165 C   0  0  0  0  0  0
   92.6048   17.5480 -105.0864 O   0  0  0  0  0  0
   90.5092   18.7680 -106.6708 C   0  0  0  0  0  0
   91.0384   17.7175 -107.4396 O   0  0  0  0  0  0
   91.3962   20.0254 -106.7790 C   0  0  0  0  0  0
   92.7502   19.6872 -106.6226 O   0  0  0  0  0  0
   88.9286   21.0592 -106.4744 H   0  0  0  0  0  0
   93.1815   16.8224 -104.7308 H   0  0  0  0  0  0
   90.3731   16.9808 -107.4174 H   0  0  0  0  0  0
   92.8291   19.1997 -105.7612 H   0  0  0  0  0  0
  1  2  1  0  0  0
  2  3  2  0  0  0
  2  4  1  0  0  0
  4  5  1  0  0  0
  4 25  1  0  0  0
  5  6  1  0  0  0
  6  7  1  0  0  0
  6 17  1  0  0  0
  7  8  1  0  0  0
  8  9  2  0  0  0
  9 10  1  0  0  0
 10 11  2  0  0  0
 11 12  1  0  0  0
 11 15  1  0  0  0
 12 13  2  0  0  0
 12 14  1  0  0  0
 15 16  2  0  0  0
 16  8  1  0  0  0
 17 18  1  0  0  0
 18 19  1  0  0  0
 18 21  1  0  0  0
 19 20  1  0  0  0
 20 26  1  0  0  0
 21 22  1  0  0  0
 21 23  1  0  0  0
 22 27  1  0  0  0
 23 24  1  0  0  0
 23  5  1  0  0  0
 24 28  1  0  0  0
M  END
>  <CHROM.0>
-179.42318485,151.09366778,-65.41012920

>  <CHROM.1>
95.02911657,176.25501553,179.26580353,-99.32752986,-174.62927884,60.05123797
67.71796630,90.38486277,20.40357501,-103.36303945,1.14604728,1.18553550,-1.30328905

>  <Energy>
48.88383513686146

>  <Genealogy>
CC(=O)N[C@H]1[C@@H](Oc2ccc([N+](=O)[O-])cc2)O[C@H](CO)[C@H](O)[C@@H]1O (3D coordinates assigned)
CC(=O)N[C@H]1[C@@H](Oc2ccc([N+](=O)[O-])cc2)O[C@H](CO)[C@H](O)[C@@H]1O (nonaromatic ring conformer: 48.88383513686146 kcal/mol)

>  <Name>
90220

>  <RI>
3.95439e+07

>  <Rbt.Current_Directory>
/home/edward/Documentos/Virtual_Screening/rDock/2

>  <Rbt.Executable>
rbdock ($Id: //depot/dev/client3/rdock/2013.1/src/exe/rbdock.cxx#4 $)

>  <Rbt.Library>
libRbt.so (2013.1, Build901 2013/11/27)

>  <Rbt.Parameter_File>
/home/edward/anaconda3/envs/MD/share/rdock-2013.1-1/data/scripts/dock.prm

>  <Rbt.Receptor>
parameters.prm

>  <SCORE>
-20.0638

>  <SCORE.INTER>
-16.2703

>  <SCORE.INTER.CONST>
1

>  <SCORE.INTER.POLAR>
-2.82178

>  <SCORE.INTER.REPUL>
0

>  <SCORE.INTER.ROT>
4

>  <SCORE.INTER.VDW>
-16.0762

>  <SCORE.INTER.norm>
-0.677928

>  <SCORE.INTRA>
-5.54483

>  <SCORE.INTRA.DIHEDRAL>
-6.45441

>  <SCORE.INTRA.DIHEDRAL.0>
11.9834

>  <SCORE.INTRA.POLAR>
-0.800999

>  <SCORE.INTRA.POLAR.0>
0

>  <SCORE.INTRA.REPUL>
0

>  <SCORE.INTRA.REPUL.0>
0

>  <SCORE.INTRA.VDW>
0.405774

>  <SCORE.INTRA.VDW.0>
-2.67395

>  <SCORE.INTRA.norm>
-0.231035

>  <SCORE.RESTR>
0.00305604

>  <SCORE.RESTR.CAVITY>
0.00305604

>  <SCORE.RESTR.norm>
0.000127335

>  <SCORE.SYSTEM>
1.7482

>  <SCORE.SYSTEM.CONST>
0

>  <SCORE.SYSTEM.DIHEDRAL>
3.71645

>  <SCORE.SYSTEM.VDW>
-0.110029

>  <SCORE.SYSTEM.norm>
0.0728415

>  <SCORE.heavy>
24

>  <SCORE.norm>
-0.835994

>  <SMILES>
CC(=O)N[C@H]1[C@@H](Oc2ccc([N+](=O)[O-])cc2)O[C@H](CO)[C@H](O)[C@@H]1O

>  <UniqueID>
178

$$$$
84265
  rDOCK(R)          3D
libRbt.so/2013.1/901 2013/11/27
 20 20  0  0  0  0  0  0  0  0999 V2000
   89.7273   24.4237 -103.3297 H   0  0  0  0  0  0
   89.9399   23.4938 -103.6704 O   0  0  0  0  0  0
   88.9257   22.6132 -104.0463 C   0  0  0  0  0  0
   89.2103   21.4237 -104.4850 N   0  0  0  0  0  0
   90.5719   20.9083 -104.6592 C   0  0  0  0  0  0
   90.7799   19.6769 -103.7582 C   0  0  0  0  0  0
   90.6208   20.0381 -102.4102 O   0  0  0  0  0  0
   90.7350   19.2166 -101.8645 H   0  0  0  0  0  0
   89.8701   18.6367 -104.0813 O   0  0  0  0  0  0
   90.0359   18.1486 -105.4071 C   0  0  0  0  0  0
   91.1923   17.1284 -105.5226 C   0  0  0  0  0  0
   92.4111   17.6572 -105.0852 O   0  0  0  0  0  0
   92.3833   17.6334 -104.0934 H   0  0  0  0  0  0
   89.9892   19.2637 -106.4922 C   0  0  0  0  0  0
   90.3827   18.7494 -107.7393 O   0  0  0  0  0  0
   89.7002   18.0777 -108.0020 H   0  0  0  0  0  0
   90.8173   20.5168 -106.1254 C   0  0  0  0  0  0
   92.1907   20.2994 -106.3275 O   0  0  0  0  0  0
   92.4718   19.5918 -105.6904 H   0  0  0  0  0  0
   87.4952   23.0231 -103.9075 C   0  0  0  0  0  0
  1  2  1  0  0  0
  2  3  1  0  0  0
  3  4  2  0  0  0
  3 20  1  0  0  0
  4  5  1  0  0  0
  5  6  1  0  0  0
  6  7  1  0  0  0
  6  9  1  0  0  0
  7  8  1  0  0  0
  9 10  1  0  0  0
 10 11  1  0  0  0
 10 14  1  0  0  0
 11 12  1  0  0  0
 12 13  1  0  0  0
 14 15  1  0  0  0
 14 17  1  0  0  0
 15 16  1  0  0  0
 17 18  1  0  0  0
 17  5  1  0  0  0
 18 19  1  0  0  0
M  END
>  <CHROM.0>
-179.84746256,152.94134084,-66.04522568

>  <CHROM.1>
179.82609093,118.74788806,178.34836662,-57.06605484,77.95324265,64.91500717
57.55788789,90.34069769,20.08176959,-104.90053499,2.69175933,-1.10657889
1.51169532

>  <Energy>
32.890997880155496

>  <Genealogy>
CC(O)=N[C@H]1[C@@H](O)O[C@H](CO)[C@H](O)[C@@H]1O (tautomer)
C/C(O)=N/[C@H]1[C@@H](O)O[C@H](CO)[C@H](O)[C@@H]1O (cis-trans isomerization)
C/C(O)=N/[C@H]1[C@@H](O)O[C@H](CO)[C@H](O)[C@@H]1O (3D coordinates assigned)
C/C(O)=N/[C@H]1[C@@H](O)O[C@H](CO)[C@H](O)[C@@H]1O (nonaromatic ring conformer: 32.890997880155496 kcal/mol)

>  <Name>
84265

>  <RI>
3.95439e+07

>  <Rbt.Current_Directory>
/home/edward/Documentos/Virtual_Screening/rDock/2

>  <Rbt.Executable>
rbdock ($Id: //depot/dev/client3/rdock/2013.1/src/exe/rbdock.cxx#4 $)

>  <Rbt.Library>
libRbt.so (2013.1, Build901 2013/11/27)

>  <Rbt.Parameter_File>
/home/edward/anaconda3/envs/MD/share/rdock-2013.1-1/data/scripts/dock.prm

>  <Rbt.Receptor>
parameters.prm

>  <SCORE>
-18.6603

>  <SCORE.INTER>
-14.3317

>  <SCORE.INTER.CONST>
1

>  <SCORE.INTER.POLAR>
-3.11083

>  <SCORE.INTER.REPUL>
0

>  <SCORE.INTER.ROT>
2

>  <SCORE.INTER.VDW>
-11.1549

>  <SCORE.INTER.norm>
-0.955447

>  <SCORE.INTRA>
-6.06615

>  <SCORE.INTRA.DIHEDRAL>
-6.07271

>  <SCORE.INTRA.DIHEDRAL.0>
8.35774

>  <SCORE.INTRA.POLAR>
-0.986211

>  <SCORE.INTRA.POLAR.0>
0

>  <SCORE.INTRA.REPUL>
0

>  <SCORE.INTRA.REPUL.0>
0

>  <SCORE.INTRA.VDW>
0.323317

>  <SCORE.INTRA.VDW.0>
-1.80159

>  <SCORE.INTRA.norm>
-0.40441

>  <SCORE.RESTR>
0

>  <SCORE.RESTR.CAVITY>
0

>  <SCORE.RESTR.norm>
0

>  <SCORE.SYSTEM>
1.73759

>  <SCORE.SYSTEM.CONST>
0

>  <SCORE.SYSTEM.DIHEDRAL>
3.36075

>  <SCORE.SYSTEM.VDW>
0.0572138

>  <SCORE.SYSTEM.norm>
0.115839

>  <SCORE.heavy>
15

>  <SCORE.norm>
-1.24402

>  <SMILES>
C/C(O)=N/[C@H]1[C@@H](O)O[C@H](CO)[C@H](O)[C@@H]1O

>  <UniqueID>
180

$$$$
82398
  rDOCK(R)          3D
libRbt.so/2013.1/901 2013/11/27
 28 29  0  0  0  0  0  0  0  0999 V2000
   92.8466   19.7316 -105.3289 H   0  0  0  0  0  0
   92.2682   19.8928 -106.1421 O   0  0  0  0  0  0
   90.8730   19.8126 -106.1271 C   0  0  0  0  0  0
   90.1929   19.6850 -105.0237 N   0  0  0  0  0  0
   90.7355   19.6283 -103.6646 C   0  0  0  0  0  0
   90.4142   20.9227 -102.8750 C   0  0  0  0  0  0
   89.0021   21.1802 -102.8290 O   0  0  0  0  0  0
   88.2572   21.9254 -103.7574 C   0  0  0  0  0  0
   86.9142   22.2902 -103.5480 C   0  0  0  0  0  0
   86.2299   23.0448 -104.5053 C   0  0  0  0  0  0
   86.8662   23.4384 -105.6943 C   0  0  0  0  0  0
   86.1590   24.2190 -106.6753 N   0  3  0  0  0  0
   86.7187   24.5684 -107.7354 O   0  0  0  0  0  0
   84.8535   24.5969 -106.4595 O   0  5  0  0  0  0
   88.2010   23.0526 -105.9093 C   0  0  0  0  0  0
   88.8838   22.2993 -104.9506 C   0  0  0  0  0  0
   90.9377   20.8385 -101.5585 O   0  0  0  0  0  0
   90.3292   19.7931 -100.8128 C   0  0  0  0  0  0
   90.8807   19.8358  -99.3832 C   0  0  0  0  0  0
   92.2567   19.5734  -99.4008 O   0  0  0  0  0  0
   92.3518   18.6179  -99.6517 H   0  0  0  0  0  0
   90.6140   18.4172 -101.4657 C   0  0  0  0  0  0
   90.0001   17.3731 -100.7497 O   0  0  0  0  0  0
   90.4134   17.3426  -99.8472 H   0  0  0  0  0  0
   90.1431   18.4141 -102.9302 C   0  0  0  0  0  0
   90.5658   17.2238 -103.5454 O   0  0  0  0  0  0
   91.5472   17.1606 -103.4102 H   0  0  0  0  0  0
   90.1387   19.8548 -107.4248 C   0  0  0  0  0  0
  1  2  1  0  0  0
  2  3  1  0  0  0
  3  4  2  0  0  0
  3 28  1  0  0  0
  4  5  1  0  0  0
  5  6  1  0  0  0
  6  7  1  0  0  0
  6 17  1  0  0  0
  7  8  1  0  0  0
  8  9  2  0  0  0
  9 10  1  0  0  0
 10 11  2  0  0  0
 11 12  1  0  0  0
 11 15  1  0  0  0
 12 13  2  0  0  0
 12 14  1  0  0  0
 15 16  2  0  0  0
 16  8  1  0  0  0
 17 18  1  0  0  0
 18 19  1  0  0  0
 18 22  1  0  0  0
 19 20  1  0  0  0
 20 21  1  0  0  0
 22 23  1  0  0  0
 22 25  1  0  0  0
 23 24  1  0  0  0
 25 26  1  0  0  0
 25  5  1  0  0  0
 26 27  1  0  0  0
M  END
>  <CHROM.0>
179.74987621,150.26849573,-62.81104877

>  <CHROM.1>
8.72213048,108.81399714,-89.69498147,-170.85541666,-63.74832519,-69.17953645
-63.93619753,65.96100099,89.32814127,20.85150614,-103.84497181,-0.71533594
0.79025713,-1.49118329

>  <Energy>
43.69704602924156

>  <Genealogy>
CC(O)=N[C@H]1[C@@H](Oc2ccc([N+](=O)[O-])cc2)O[C@H](CO)[C@@H](O)[C@@H]1O (tautomer)
C/C(O)=N\[C@H]1[C@@H](Oc2ccc([N+](=O)[O-])cc2)O[C@H](CO)[C@@H](O)[C@@H]1O (cis-trans isomerization)
C/C(O)=N\[C@H]1[C@@H](Oc2ccc([N+](=O)[O-])cc2)O[C@H](CO)[C@@H](O)[C@@H]1O (3D coordinates assigned)
C/C(O)=N\[C@H]1[C@@H](Oc2ccc([N+](=O)[O-])cc2)O[C@H](CO)[C@@H](O)[C@@H]1O (nonaromatic ring conformer: 43.69704602924156 kcal/mol)

>  <Name>
82398

>  <RI>
3.95439e+07

>  <Rbt.Current_Directory>
/home/edward/Documentos/Virtual_Screening/rDock/2

>  <Rbt.Executable>
rbdock ($Id: //depot/dev/client3/rdock/2013.1/src/exe/rbdock.cxx#4 $)

>  <Rbt.Library>
libRbt.so (2013.1, Build901 2013/11/27)

>  <Rbt.Parameter_File>
/home/edward/anaconda3/envs/MD/share/rdock-2013.1-1/data/scripts/dock.prm

>  <Rbt.Receptor>
parameters.prm

>  <SCORE>
-18.1342

>  <SCORE.INTER>
-20.9254

>  <SCORE.INTER.CONST>
1

>  <SCORE.INTER.POLAR>
-3.1112

>  <SCORE.INTER.REPUL>
0

>  <SCORE.INTER.ROT>
4

>  <SCORE.INTER.VDW>
-19.7473

>  <SCORE.INTER.norm>
-0.871892

>  <SCORE.INTRA>
1.00114

>  <SCORE.INTRA.DIHEDRAL>
-1.38941

>  <SCORE.INTRA.DIHEDRAL.0>
6.60422

>  <SCORE.INTRA.POLAR>
0

>  <SCORE.INTRA.POLAR.0>
0

>  <SCORE.INTRA.REPUL>
0

>  <SCORE.INTRA.REPUL.0>
0

>  <SCORE.INTRA.VDW>
1.69584

>  <SCORE.INTRA.VDW.0>
-3.34361

>  <SCORE.INTRA.norm>
0.0417141

>  <SCORE.RESTR>
0

>  <SCORE.RESTR.CAVITY>
0

>  <SCORE.RESTR.norm>
0

>  <SCORE.SYSTEM>
1.79001

>  <SCORE.SYSTEM.CONST>
0

>  <SCORE.SYSTEM.DIHEDRAL>
3.9236

>  <SCORE.SYSTEM.VDW>
-0.171785

>  <SCORE.SYSTEM.norm>
0.074584

>  <SCORE.heavy>
24

>  <SCORE.norm>
-0.755594

>  <SMILES>
C/C(O)=N\[C@H]1[C@@H](Oc2ccc([N+](=O)[O-])cc2)O[C@H](CO)[C@@H](O)[C@@H]1O

>  <UniqueID>
182

$$$$
82313
  rDOCK(R)          3D
libRbt.so/2013.1/901 2013/11/27
 20 20  0  0  0  0  0  0  0  0999 V2000
   91.6119   16.7273 -104.7900 C   0  0  0  0  0  0
   90.3720   16.6749 -103.9585 C   0  0  0  0  0  0
   90.4297   16.9763 -102.7356 O   0  0  0  0  0  0
   89.1356   16.2444 -104.5446 N   0  0  0  0  0  0
   87.8807   16.1943 -103.7847 C   0  0  0  0  0  0
   86.6736   16.4114 -104.7203 C   0  0  0  0  0  0
   86.7026   15.5060 -105.7961 O   0  0  0  0  0  0
   85.4483   16.3251 -104.0064 O   0  0  0  0  0  0
   85.2599   15.0387 -103.4342 C   0  0  0  0  0  0
   83.8672   14.9979 -102.7872 C   0  0  0  0  0  0
   83.5491   13.6906 -102.3915 O   0  0  0  0  0  0
   86.3553   14.7386 -102.3864 C   0  0  0  0  0  0
   86.1767   13.4430 -101.8728 O   0  0  0  0  0  0
   87.7415   14.8452 -103.0500 C   0  0  0  0  0  0
   88.7676   14.6836 -102.1015 O   0  0  0  0  0  0
   89.1466   15.9317 -105.5424 H   0  0  0  0  0  0
   86.7244   14.5977 -105.3963 H   0  0  0  0  0  0
   84.2670   13.3988 -101.7709 H   0  0  0  0  0  0
   86.3940   12.8103 -102.6064 H   0  0  0  0  0  0
   89.6325   14.6772 -102.5895 H   0  0  0  0  0  0
  1  2  1  0  0  0
  2  3  2  0  0  0
  2  4  1  0  0  0
  4  5  1  0  0  0
  4 16  1  0  0  0
  5  6  1  0  0  0
  6  7  1  0  0  0
  6  8  1  0  0  0
  7 17  1  0  0  0
  8  9  1  0  0  0
  9 10  1  0  0  0
  9 12  1  0  0  0
 10 11  1  0  0  0
 11 18  1  0  0  0
 12 13  1  0  0  0
 12 14  1  0  0  0
 13 19  1  0  0  0
 14 15  1  0  0  0
 14  5  1  0  0  0
 15 20  1  0  0  0
M  END
>  <CHROM.0>
-179.76823458,153.64357786,-65.74423547

>  <CHROM.1>
151.10778779,56.79327672,170.82747158,57.34385078,69.22505417,-62.17455769
87.30734438,15.44697507,-103.47642799,0.35288935,-0.19475769,-1.00307394

>  <Energy>
25.04008642669394

>  <Genealogy>
CC(=O)N[C@H]1[C@@H](O)O[C@H](CO)[C@@H](O)[C@@H]1O (3D coordinates assigned)
CC(=O)N[C@H]1[C@@H](O)O[C@H](CO)[C@@H](O)[C@@H]1O (nonaromatic ring conformer: 25.04008642669394 kcal/mol)

>  <Name>
82313

>  <RI>
3.95439e+07

>  <Rbt.Current_Directory>
/home/edward/Documentos/Virtual_Screening/rDock/2

>  <Rbt.Executable>
rbdock ($Id: //depot/dev/client3/rdock/2013.1/src/exe/rbdock.cxx#4 $)

>  <Rbt.Library>
libRbt.so (2013.1, Build901 2013/11/27)

>  <Rbt.Parameter_File>
/home/edward/anaconda3/envs/MD/share/rdock-2013.1-1/data/scripts/dock.prm

>  <Rbt.Receptor>
parameters.prm

>  <SCORE>
-17.4693

>  <SCORE.INTER>
-17.1713

>  <SCORE.INTER.CONST>
1

>  <SCORE.INTER.POLAR>
-3.62601

>  <SCORE.INTER.REPUL>
0

>  <SCORE.INTER.ROT>
2

>  <SCORE.INTER.VDW>
-12.2429

>  <SCORE.INTER.norm>
-1.14475

>  <SCORE.INTRA>
-2.03251

>  <SCORE.INTRA.DIHEDRAL>
-2.56066

>  <SCORE.INTRA.DIHEDRAL.0>
4.62313

>  <SCORE.INTRA.POLAR>
-0.477883

>  <SCORE.INTRA.POLAR.0>
0

>  <SCORE.INTRA.REPUL>
0

>  <SCORE.INTRA.REPUL.0>
0

>  <SCORE.INTRA.VDW>
0.872619

>  <SCORE.INTRA.VDW.0>
-1.4053

>  <SCORE.INTRA.norm>
-0.135501

>  <SCORE.RESTR>
0

>  <SCORE.RESTR.CAVITY>
0

>  <SCORE.RESTR.norm>
0

>  <SCORE.SYSTEM>
1.73457

>  <SCORE.SYSTEM.CONST>
0

>  <SCORE.SYSTEM.DIHEDRAL>
3.23489

>  <SCORE.SYSTEM.VDW>
0.11713

>  <SCORE.SYSTEM.norm>
0.115638

>  <SCORE.heavy>
15

>  <SCORE.norm>
-1.16462

>  <SMILES>
CC(=O)N[C@H]1[C@@H](O)O[C@H](CO)[C@@H](O)[C@@H]1O

>  <UniqueID>
183

$$$$
35717
  rDOCK(R)          3D
libRbt.so/2013.1/901 2013/11/27
 20 20  0  0  0  0  0  0  0  0999 V2000
   91.1687   15.9193 -105.2347 C   0  0  0  0  0  0
   89.8657   15.3160 -104.8229 C   0  0  0  0  0  0
   89.4522   14.2750 -105.4017 O   0  0  0  0  0  0
   89.0810   15.9425 -103.7985 N   0  0  0  0  0  0
   87.7558   15.4556 -103.4020 C   0  0  0  0  0  0
   87.4318   15.9073 -101.9589 C   0  0  0  0  0  0
   88.3459   15.3206 -101.0698 O   0  0  0  0  0  0
   86.1294   15.4871 -101.5897 O   0  0  0  0  0  0
   85.1521   16.1264 -102.3946 C   0  0  0  0  0  0
   83.7607   15.8189 -101.8307 C   0  0  0  0  0  0
   83.5977   14.4326 -101.7124 O   0  0  0  0  0  0
   85.2796   15.6612 -103.8633 C   0  0  0  0  0  0
   85.0631   14.2740 -103.9607 O   0  0  0  0  0  0
   86.6920   15.9961 -104.3749 C   0  0  0  0  0  0
   86.8928   15.4400 -105.6488 O   0  0  0  0  0  0
   89.4139   16.8543 -103.4095 H   0  0  0  0  0  0
   89.2464   15.6661 -101.3055 H   0  0  0  0  0  0
   83.8251   14.0518 -102.6003 H   0  0  0  0  0  0
   85.5565   13.9566 -104.7614 H   0  0  0  0  0  0
   87.7775   15.7615 -105.9648 H   0  0  0  0  0  0
  1  2  1  0  0  0
  2  3  2  0  0  0
  2  4  1  0  0  0
  4  5  1  0  0  0
  4 16  1  0  0  0
  5  6  1  0  0  0
  6  7  1  0  0  0
  6  8  1  0  0  0
  7 17  1  0  0  0
  8  9  1  0  0  0
  9 10  1  0  0  0
  9 12  1  0  0  0
 10 11  1  0  0  0
 11 18  1  0  0  0
 12 13  1  0  0  0
 12 14  1  0  0  0
 13 19  1  0  0  0
 14 15  1  0  0  0
 14  5  1  0  0  0
 15 20  1  0  0  0
M  END
>  <CHROM.0>
-178.87102643,153.41062404,-67.67695386

>  <CHROM.1>
156.21206931,63.08104411,-54.01179817,-52.32241307,-153.40711043,-63.86303449
87.02858810,15.38541253,-103.39964972,-0.45278317,0.10831308,1.42837822

>  <Energy>
23.527024053773218

>  <Genealogy>
CC(=O)N[C@H]1[C@H](O)O[C@H](CO)[C@H](O)[C@@H]1O (chirality)
CC(=O)N[C@H]1[C@H](O)O[C@H](CO)[C@H](O)[C@@H]1O (3D coordinates assigned)
CC(=O)N[C@H]1[C@H](O)O[C@H](CO)[C@H](O)[C@@H]1O (nonaromatic ring conformer: 23.527024053773218 kcal/mol)

>  <Name>
35717

>  <RI>
3.95439e+07

>  <Rbt.Current_Directory>
/home/edward/Documentos/Virtual_Screening/rDock/2

>  <Rbt.Executable>
rbdock ($Id: //depot/dev/client3/rdock/2013.1/src/exe/rbdock.cxx#4 $)

>  <Rbt.Library>
libRbt.so (2013.1, Build901 2013/11/27)

>  <Rbt.Parameter_File>
/home/edward/anaconda3/envs/MD/share/rdock-2013.1-1/data/scripts/dock.prm

>  <Rbt.Receptor>
parameters.prm

>  <SCORE>
-17.0749

>  <SCORE.INTER>
-14.9774

>  <SCORE.INTER.CONST>
1

>  <SCORE.INTER.POLAR>
-2.89977

>  <SCORE.INTER.REPUL>
0.00723094

>  <SCORE.INTER.ROT>
2

>  <SCORE.INTER.VDW>
-12.5543

>  <SCORE.INTER.norm>
-0.998491

>  <SCORE.INTRA>
-3.8356

>  <SCORE.INTRA.DIHEDRAL>
-3.82644

>  <SCORE.INTRA.DIHEDRAL.0>
8.2812

>  <SCORE.INTRA.POLAR>
-1.02571

>  <SCORE.INTRA.POLAR.0>
0

>  <SCORE.INTRA.REPUL>
0

>  <SCORE.INTRA.REPUL.0>
0

>  <SCORE.INTRA.VDW>
1.56503

>  <SCORE.INTRA.VDW.0>
-1.84677

>  <SCORE.INTRA.norm>
-0.255707

>  <SCORE.RESTR>
0

>  <SCORE.RESTR.CAVITY>
0

>  <SCORE.RESTR.norm>
0

>  <SCORE.SYSTEM>
1.7381

>  <SCORE.SYSTEM.CONST>
0

>  <SCORE.SYSTEM.DIHEDRAL>
3.26453

>  <SCORE.SYSTEM.VDW>
0.105835

>  <SCORE.SYSTEM.norm>
0.115873

>  <SCORE.heavy>
15

>  <SCORE.norm>
-1.13832

>  <SMILES>
CC(=O)N[C@H]1[C@H](O)O[C@H](CO)[C@H](O)[C@@H]1O

>  <UniqueID>
185

$$$$
29327
  rDOCK(R)          3D
libRbt.so/2013.1/901 2013/11/27
 23 23  0  0  0  0  0  0  0  0999 V2000
   84.6680   14.1176 -103.2873 C   0  0  0  0  0  0
   86.0113   14.6316 -103.0019 N   0  0  0  0  0  0
   86.5967   14.4215 -101.7402 N   0  0  0  0  0  0
   87.8258   14.5462 -101.5597 O   0  0  0  0  0  0
   86.8003   15.2225 -104.0514 C   0  0  0  0  0  0
   86.3504   15.2587 -105.2300 O   0  0  0  0  0  0
   88.1010   15.7665 -103.7696 N   0  0  0  0  0  0
   88.9252   16.4018 -104.8057 C   0  0  0  0  0  0
   89.2652   17.8530 -104.4091 C   0  0  0  0  0  0
   89.8609   17.8993 -103.1359 O   0  0  0  0  0  0
   90.0887   18.4717 -105.3865 O   0  0  0  0  0  0
   91.3366   17.8071 -105.5221 C   0  0  0  0  0  0
   92.2044   18.6043 -106.5076 C   0  0  0  0  0  0
   92.3026   19.9427 -106.0997 O   0  0  0  0  0  0
   91.1314   16.3561 -106.0192 C   0  0  0  0  0  0
   92.3676   15.6898 -106.0923 O   0  0  0  0  0  0
   90.2172   15.6005 -105.0413 C   0  0  0  0  0  0
   89.8890   14.3402 -105.5681 O   0  0  0  0  0  0
   88.4783   15.6968 -102.7978 H   0  0  0  0  0  0
   90.0758   18.8527 -102.9626 H   0  0  0  0  0  0
   92.6815   19.9365 -105.1822 H   0  0  0  0  0  0
   92.7902   15.7551 -105.1964 H   0  0  0  0  0  0
   89.3421   13.8743 -104.8831 H   0  0  0  0  0  0
  1  2  1  0  0  0
  2  3  1  0  0  0
  2  5  1  0  0  0
  3  4  2  0  0  0
  5  6  2  0  0  0
  5  7  1  0  0  0
  7  8  1  0  0  0
  7 19  1  0  0  0
  8  9  1  0  0  0
  9 10  1  0  0  0
  9 11  1  0  0  0
 10 20  1  0  0  0
 11 12  1  0  0  0
 12 13  1  0  0  0
 12 15  1  0  0  0
 13 14  1  0  0  0
 14 21  1  0  0  0
 15 16  1  0  0  0
 15 17  1  0  0  0
 16 22  1  0  0  0
 17 18  1  0  0  0
 17  8  1  0  0  0
 18 23  1  0  0  0
M  END
>  <CHROM.0>
-178.88648169,154.32623601,-66.98660452

>  <CHROM.1>
162.33206564,121.96076167,178.25641487,54.05441979,57.55742184,55.33159652
-62.34033014,89.15520871,16.29102564,-104.50477810,2.79038079,-0.61341135
-2.81457268

>  <Energy>
29.605579550964123

>  <Genealogy>
CN(N=O)C(=O)N[C@H]1[C@@H](O)O[C@H](CO)[C@@H](O)[C@@H]1O (3D coordinates assigned)
CN(N=O)C(=O)N[C@H]1[C@@H](O)O[C@H](CO)[C@@H](O)[C@@H]1O (nonaromatic ring conformer: 29.605579550964123 kcal/mol)

>  <Name>
29327

>  <RI>
3.95439e+07

>  <Rbt.Current_Directory>
/home/edward/Documentos/Virtual_Screening/rDock/2

>  <Rbt.Executable>
rbdock ($Id: //depot/dev/client3/rdock/2013.1/src/exe/rbdock.cxx#4 $)

>  <Rbt.Library>
libRbt.so (2013.1, Build901 2013/11/27)

>  <Rbt.Parameter_File>
/home/edward/anaconda3/envs/MD/share/rdock-2013.1-1/data/scripts/dock.prm

>  <Rbt.Receptor>
parameters.prm

>  <SCORE>
-19.728

>  <SCORE.INTER>
-16.9641

>  <SCORE.INTER.CONST>
1

>  <SCORE.INTER.POLAR>
-3.2118

>  <SCORE.INTER.REPUL>
0.0399062

>  <SCORE.INTER.ROT>
3

>  <SCORE.INTER.VDW>
-14.6435

>  <SCORE.INTER.norm>
-0.94245

>  <SCORE.INTRA>
-4.49931

>  <SCORE.INTRA.DIHEDRAL>
-8.60876

>  <SCORE.INTRA.DIHEDRAL.0>
10.5901

>  <SCORE.INTRA.POLAR>
0

>  <SCORE.INTRA.POLAR.0>
0

>  <SCORE.INTRA.REPUL>
0

>  <SCORE.INTRA.REPUL.0>
0

>  <SCORE.INTRA.VDW>
-0.194932

>  <SCORE.INTRA.VDW.0>
-0.844429

>  <SCORE.INTRA.norm>
-0.249962

>  <SCORE.RESTR>
0

>  <SCORE.RESTR.CAVITY>
0

>  <SCORE.RESTR.norm>
0

>  <SCORE.SYSTEM>
1.73545

>  <SCORE.SYSTEM.CONST>
0

>  <SCORE.SYSTEM.DIHEDRAL>
3.10096

>  <SCORE.SYSTEM.VDW>
0.184968

>  <SCORE.SYSTEM.norm>
0.0964139

>  <SCORE.heavy>
18

>  <SCORE.norm>
-1.096

>  <SMILES>
CN(N=O)C(=O)N[C@H]1[C@@H](O)O[C@H](CO)[C@@H](O)[C@@H]1O

>  <UniqueID>
187

$$$$
24154
  rDOCK(R)          3D
libRbt.so/2013.1/901 2013/11/27
 19 19  0  0  0  0  0  0  0  0999 V2000
   81.9144    8.8980  -98.2223 N   0  3  0  0  0  0
   82.5569    8.9909  -99.5401 C   0  0  0  0  0  0
   83.5262   10.1999  -99.5859 C   0  0  0  0  0  0
   82.8032   11.3585  -99.9024 O   0  0  0  0  0  0
   84.5128    9.9829 -100.5769 O   0  0  0  0  0  0
   85.4601    9.0099 -100.1504 C   0  0  0  0  0  0
   86.3394    8.6592 -101.3663 C   0  0  0  0  0  0
   85.5602    8.2276 -102.4500 O   0  0  0  0  0  0
   84.7783    7.7553  -99.4961 C   0  0  0  0  0  0
   85.4258    6.5527  -99.8289 O   0  0  0  0  0  0
   83.2957    7.6675  -99.8936 C   0  0  0  0  0  0
   83.2016    7.4172 -101.2739 O   0  0  0  0  0  0
   82.5873    8.4993  -97.5278 H   0  0  0  0  0  0
   81.6026    9.8415  -97.8957 H   0  0  0  0  0  0
   81.0861    8.2613  -98.2750 H   0  0  0  0  0  0
   82.2418   11.5640  -99.1099 H   0  0  0  0  0  0
   86.1921    7.9325 -103.1566 H   0  0  0  0  0  0
   86.3416    6.6043  -99.4485 H   0  0  0  0  0  0
   83.8389    6.6835 -101.4773 H   0  0  0  0  0  0
  1  2  1  0  0  0
  1 13  1  0  0  0
  1 14  1  0  0  0
  1 15  1  0  0  0
  2  3  1  0  0  0
  3  4  1  0  0  0
  3  5  1  0  0  0
  4 16  1  0  0  0
  5  6  1  0  0  0
  6  7  1  0  0  0
  6  9  1  0  0  0
  7  8  1  0  0  0
  8 17  1  0  0  0
  9 10  1  0  0  0
  9 11  1  0  0  0
 10 18  1  0  0  0
 11 12  1  0  0  0
 11  2  1  0  0  0
 12 19  1  0  0  0
M  END
>  <CHROM.0>
179.58431831,153.56748831,52.57011396

>  <CHROM.1>
-76.65108472,70.08363427,-55.85144647,-174.27801877,63.54106941,168.24576226
84.10285700,8.71610908,-100.21246109,2.74091120,0.65667968,-0.19058905

>  <Energy>
32.91655844603721

>  <Genealogy>
[NH3+][C@H]1C(O)O[C@H](CO)[C@H](O)[C@@H]1O (protonated)
[NH3+][C@H]1[C@H](O)O[C@H](CO)[C@H](O)[C@@H]1O (chirality)
[NH3+][C@H]1[C@H](O)O[C@H](CO)[C@H](O)[C@@H]1O (3D coordinates assigned)
[NH3+][C@H]1[C@H](O)O[C@H](CO)[C@H](O)[C@@H]1O (nonaromatic ring conformer: 32.91655844603721 kcal/mol)

>  <Name>
24154

>  <RI>
3.95439e+07

>  <Rbt.Current_Directory>
/home/edward/Documentos/Virtual_Screening/rDock/2

>  <Rbt.Executable>
rbdock ($Id: //depot/dev/client3/rdock/2013.1/src/exe/rbdock.cxx#4 $)

>  <Rbt.Library>
libRbt.so (2013.1, Build901 2013/11/27)

>  <Rbt.Parameter_File>
/home/edward/anaconda3/envs/MD/share/rdock-2013.1-1/data/scripts/dock.prm

>  <Rbt.Receptor>
parameters.prm

>  <SCORE>
-15.8815

>  <SCORE.INTER>
-16.4237

>  <SCORE.INTER.CONST>
1

>  <SCORE.INTER.POLAR>
-4.3024

>  <SCORE.INTER.REPUL>
0

>  <SCORE.INTER.ROT>
1

>  <SCORE.INTER.VDW>
-8.19554

>  <SCORE.INTER.norm>
-1.36864

>  <SCORE.INTRA>
-1.84603

>  <SCORE.INTRA.DIHEDRAL>
-3.49208

>  <SCORE.INTRA.DIHEDRAL.0>
5.64299

>  <SCORE.INTRA.POLAR>
-0.103221

>  <SCORE.INTRA.POLAR.0>
0

>  <SCORE.INTRA.REPUL>
0

>  <SCORE.INTRA.REPUL.0>
0

>  <SCORE.INTRA.VDW>
0.250967

>  <SCORE.INTRA.VDW.0>
-1.14035

>  <SCORE.INTRA.norm>
-0.153835

>  <SCORE.RESTR>
0

>  <SCORE.RESTR.CAVITY>
0

>  <SCORE.RESTR.norm>
0

>  <SCORE.SYSTEM>
2.3882

>  <SCORE.SYSTEM.CONST>
0

>  <SCORE.SYSTEM.DIHEDRAL>
3.23173

>  <SCORE.SYSTEM.VDW>
0.772333

>  <SCORE.SYSTEM.norm>
0.199016

>  <SCORE.heavy>
12

>  <SCORE.norm>
-1.32346

>  <SMILES>
[NH3+][C@H]1[C@H](O)O[C@H](CO)[C@H](O)[C@@H]1O

>  <UniqueID>
190

$$$$
24139
  rDOCK(R)          3D
libRbt.so/2013.1/901 2013/11/27
 20 20  0  0  0  0  0  0  0  0999 V2000
   82.8103   17.4310 -101.6427 H   0  0  0  0  0  0
   83.6409   16.8656 -101.7746 O   0  0  0  0  0  0
   84.6919   17.3067 -102.5737 C   0  0  0  0  0  0
   85.7709   16.5799 -102.6581 N   0  0  0  0  0  0
   86.9804   16.8820 -103.4325 C   0  0  0  0  0  0
   88.1168   17.3319 -102.4866 C   0  0  0  0  0  0
   87.7559   18.5253 -101.8429 O   0  0  0  0  0  0
   86.9656   18.3257 -101.2759 H   0  0  0  0  0  0
   89.3005   17.5751 -103.2252 O   0  0  0  0  0  0
   89.7869   16.3753 -103.8037 C   0  0  0  0  0  0
   91.1667   16.6520 -104.4203 C   0  0  0  0  0  0
   91.7256   15.4791 -104.9514 O   0  0  0  0  0  0
   92.6674   15.6879 -105.1852 H   0  0  0  0  0  0
   88.7876   15.8406 -104.8549 C   0  0  0  0  0  0
   89.2622   14.6286 -105.3843 O   0  0  0  0  0  0
   90.1861   14.7968 -105.7061 H   0  0  0  0  0  0
   87.4165   15.6171 -104.1946 C   0  0  0  0  0  0
   86.4715   15.3058 -105.1866 O   0  0  0  0  0  0
   86.7428   14.4368 -105.5826 H   0  0  0  0  0  0
   84.5232   18.5947 -103.3249 C   0  0  0  0  0  0
  1  2  1  0  0  0
  2  3  1  0  0  0
  3  4  2  0  0  0
  3 20  1  0  0  0
  4  5  1  0  0  0
  5  6  1  0  0  0
  6  7  1  0  0  0
  6  9  1  0  0  0
  7  8  1  0  0  0
  9 10  1  0  0  0
 10 11  1  0  0  0
 10 14  1  0  0  0
 11 12  1  0  0  0
 12 13  1  0  0  0
 14 15  1  0  0  0
 14 17  1  0  0  0
 15 16  1  0  0  0
 17 18  1  0  0  0
 17  5  1  0  0  0
 18 19  1  0  0  0
M  END
>  <CHROM.0>
-179.73898215,152.48694739,49.12327274

>  <CHROM.1>
176.35183069,105.48337832,63.95567852,177.10135439,-170.24110246,-53.39233292
-174.09789158,87.71624215,16.62102494,-103.62508233,2.70976215,0.09646416
0.73569350

>  <Energy>
27.008842124426874

>  <Genealogy>
CC(O)=N[C@H]1[C@H](O)O[C@H](CO)[C@@H](O)[C@@H]1O (tautomer)
C/C(O)=N\[C@H]1[C@H](O)O[C@H](CO)[C@@H](O)[C@@H]1O (cis-trans isomerization)
C/C(O)=N\[C@H]1[C@H](O)O[C@H](CO)[C@@H](O)[C@@H]1O (3D coordinates assigned)
C/C(O)=N\[C@H]1[C@H](O)O[C@H](CO)[C@@H](O)[C@@H]1O (nonaromatic ring conformer: 27.008842124426874 kcal/mol)

>  <Name>
24139

>  <RI>
3.95439e+07

>  <Rbt.Current_Directory>
/home/edward/Documentos/Virtual_Screening/rDock/2

>  <Rbt.Executable>
rbdock ($Id: //depot/dev/client3/rdock/2013.1/src/exe/rbdock.cxx#4 $)

>  <Rbt.Library>
libRbt.so (2013.1, Build901 2013/11/27)

>  <Rbt.Parameter_File>
/home/edward/anaconda3/envs/MD/share/rdock-2013.1-1/data/scripts/dock.prm

>  <Rbt.Receptor>
parameters.prm

>  <SCORE>
-20.655

>  <SCORE.INTER>
-17.4116

>  <SCORE.INTER.CONST>
1

>  <SCORE.INTER.POLAR>
-3.71623

>  <SCORE.INTER.REPUL>
0

>  <SCORE.INTER.ROT>
2

>  <SCORE.INTER.VDW>
-12.1764

>  <SCORE.INTER.norm>
-1.16077

>  <SCORE.INTRA>
-5.64873

>  <SCORE.INTRA.DIHEDRAL>
-9.72307

>  <SCORE.INTRA.DIHEDRAL.0>
11.1455

>  <SCORE.INTRA.POLAR>
-0.699034

>  <SCORE.INTRA.POLAR.0>
0

>  <SCORE.INTRA.REPUL>
0

>  <SCORE.INTRA.REPUL.0>
0

>  <SCORE.INTRA.VDW>
1.58952

>  <SCORE.INTRA.VDW.0>
-1.95933

>  <SCORE.INTRA.norm>
-0.376582

>  <SCORE.RESTR>
0

>  <SCORE.RESTR.CAVITY>
0

>  <SCORE.RESTR.norm>
0

>  <SCORE.SYSTEM>
2.40539

>  <SCORE.SYSTEM.CONST>
0

>  <SCORE.SYSTEM.DIHEDRAL>
3.43182

>  <SCORE.SYSTEM.VDW>
0.689474

>  <SCORE.SYSTEM.norm>
0.160359

>  <SCORE.heavy>
15

>  <SCORE.norm>
-1.377

>  <SMILES>
C/C(O)=N\[C@H]1[C@H](O)O[C@H](CO)[C@@H](O)[C@@H]1O

>  <UniqueID>
192

$$$$
18897
  rDOCK(R)          3D
libRbt.so/2013.1/901 2013/11/27
 19 19  0  0  0  0  0  0  0  0999 V2000
   92.5906   17.1573 -104.9354 N   0  3  0  0  0  0
   91.3064   16.7482 -104.3501 C   0  0  0  0  0  0
   90.9656   15.2834 -104.7005 C   0  0  0  0  0  0
   91.0197   15.0905 -106.0922 O   0  0  0  0  0  0
   89.5591   14.9357 -104.1737 C   0  0  0  0  0  0
   89.5703   14.8953 -102.7684 O   0  0  0  0  0  0
   88.5453   15.9985 -104.6607 C   0  0  0  0  0  0
   87.1266   15.6991 -104.1508 C   0  0  0  0  0  0
   86.2626   15.3938 -105.2128 O   0  0  0  0  0  0
   88.9195   17.2936 -104.2145 O   0  0  0  0  0  0
   90.1618   17.7007 -104.7728 C   0  0  0  0  0  0
   90.0774   17.8103 -106.1721 O   0  0  0  0  0  0
   93.2395   16.3378 -104.9690 H   0  0  0  0  0  0
   93.0286   17.8974 -104.3402 H   0  0  0  0  0  0
   92.4632   17.5314 -105.9034 H   0  0  0  0  0  0
   90.4526   15.7947 -106.5023 H   0  0  0  0  0  0
   89.8132   15.8062 -102.4570 H   0  0  0  0  0  0
   86.6015   14.5558 -105.6235 H   0  0  0  0  0  0
   89.3119   18.4136 -106.3597 H   0  0  0  0  0  0
  1  2  1  0  0  0
  1 13  1  0  0  0
  1 14  1  0  0  0
  1 15  1  0  0  0
  2  3  1  0  0  0
  3  4  1  0  0  0
  3  5  1  0  0  0
  4 16  1  0  0  0
  5  6  1  0  0  0
  5  7  1  0  0  0
  6 17  1  0  0  0
  7  8  1  0  0  0
  7 10  1  0  0  0
  8  9  1  0  0  0
  9 18  1  0  0  0
 10 11  1  0  0  0
 11 12  1  0  0  0
 11  2  1  0  0  0
 12 19  1  0  0  0
M  END
>  <CHROM.0>
-177.08461012,152.24279071,-66.12240925

>  <CHROM.1>
-32.69466129,-51.96343489,62.07656306,-114.53904276,64.06473972,178.55698982
89.67550894,16.18189094,-104.71815286,0.30692886,-0.04516803,-0.59741368

>  <Energy>
25.059616863585

>  <Genealogy>
[NH3+]C1C(O)[C@@H](O)C(CO)O[C@@H]1O (protonated)
[NH3+][C@H]1[C@@H](O)O[C@H](CO)[C@H](O)[C@H]1O (chirality)
[NH3+][C@H]1[C@@H](O)O[C@H](CO)[C@H](O)[C@H]1O (3D coordinates assigned)
[NH3+][C@H]1[C@@H](O)O[C@H](CO)[C@H](O)[C@H]1O (nonaromatic ring conformer: 25.059616863585 kcal/mol)

>  <Name>
18897

>  <RI>
3.95439e+07

>  <Rbt.Current_Directory>
/home/edward/Documentos/Virtual_Screening/rDock/2

>  <Rbt.Executable>
rbdock ($Id: //depot/dev/client3/rdock/2013.1/src/exe/rbdock.cxx#4 $)

>  <Rbt.Library>
libRbt.so (2013.1, Build901 2013/11/27)

>  <Rbt.Parameter_File>
/home/edward/anaconda3/envs/MD/share/rdock-2013.1-1/data/scripts/dock.prm

>  <Rbt.Receptor>
parameters.prm

>  <SCORE>
-21.4305

>  <SCORE.INTER>
-23.0177

>  <SCORE.INTER.CONST>
1

>  <SCORE.INTER.POLAR>
-5.1723

>  <SCORE.INTER.REPUL>
0

>  <SCORE.INTER.ROT>
1

>  <SCORE.INTER.VDW>
-11.8319

>  <SCORE.INTER.norm>
-1.91814

>  <SCORE.INTRA>
-0.179945

>  <SCORE.INTRA.DIHEDRAL>
3.23861

>  <SCORE.INTRA.DIHEDRAL.0>
4.03365

>  <SCORE.INTRA.POLAR>
-0.756809

>  <SCORE.INTRA.POLAR.0>
0

>  <SCORE.INTRA.REPUL>
0

>  <SCORE.INTRA.REPUL.0>
0

>  <SCORE.INTRA.VDW>
0.773902

>  <SCORE.INTRA.VDW.0>
-1.03535

>  <SCORE.INTRA.norm>
-0.0149954

>  <SCORE.RESTR>
0

>  <SCORE.RESTR.CAVITY>
0

>  <SCORE.RESTR.norm>
0

>  <SCORE.SYSTEM>
1.76716

>  <SCORE.SYSTEM.CONST>
0

>  <SCORE.SYSTEM.DIHEDRAL>
3.53161

>  <SCORE.SYSTEM.VDW>
0.00134944

>  <SCORE.SYSTEM.norm>
0.147263

>  <SCORE.heavy>
12

>  <SCORE.norm>
-1.78587

>  <SMILES>
[NH3+][C@H]1[C@@H](O)O[C@H](CO)[C@H](O)[C@H]1O

>  <UniqueID>
193

$$$$
5300
  rDOCK(R)          3D
libRbt.so/2013.1/901 2013/11/27
 23 23  0  0  0  0  0  0  0  0999 V2000
   84.3337   18.7998 -102.4792 C   0  0  0  0  0  0
   85.7927   18.6951 -102.5785 N   0  0  0  0  0  0
   86.6160   19.4048 -101.6858 N   0  0  0  0  0  0
   87.8551   19.4496 -101.8327 O   0  0  0  0  0  0
   86.3967   17.9991 -103.6843 C   0  0  0  0  0  0
   85.6705   17.5337 -104.6057 O   0  0  0  0  0  0
   87.8231   17.8302 -103.7489 N   0  0  0  0  0  0
   88.4800   17.1822 -104.8930 C   0  0  0  0  0  0
   88.2030   15.6537 -104.8936 C   0  0  0  0  0  0
   87.0096   15.3867 -105.5804 O   0  0  0  0  0  0
   89.2584   14.9807 -105.5505 O   0  0  0  0  0  0
   90.4190   14.9543 -104.7295 C   0  0  0  0  0  0
   91.5748   14.3834 -105.5595 C   0  0  0  0  0  0
   91.3181   13.0454 -105.8882 O   0  0  0  0  0  0
   90.7800   16.3646 -104.1502 C   0  0  0  0  0  0
   90.4648   16.4162 -102.7816 O   0  0  0  0  0  0
   90.0061   17.4752 -104.8811 C   0  0  0  0  0  0
   90.4856   17.5701 -106.1992 O   0  0  0  0  0  0
   88.3986   18.1388 -102.9339 H   0  0  0  0  0  0
   86.7890   14.4333 -105.4117 H   0  0  0  0  0  0
   92.0270   12.7789 -106.5295 H   0  0  0  0  0  0
   90.7763   17.2986 -102.4496 H   0  0  0  0  0  0
   89.9969   18.3195 -106.6302 H   0  0  0  0  0  0
  1  2  1  0  0  0
  2  3  1  0  0  0
  2  5  1  0  0  0
  3  4  2  0  0  0
  5  6  2  0  0  0
  5  7  1  0  0  0
  7  8  1  0  0  0
  7 19  1  0  0  0
  8  9  1  0  0  0
  9 10  1  0  0  0
  9 11  1  0  0  0
 10 20  1  0  0  0
 11 12  1  0  0  0
 12 13  1  0  0  0
 12 15  1  0  0  0
 13 14  1  0  0  0
 14 21  1  0  0  0
 15 16  1  0  0  0
 15 17  1  0  0  0
 16 22  1  0  0  0
 17 18  1  0  0  0
 17  8  1  0  0  0
 18 23  1  0  0  0
M  END
>  <CHROM.0>
179.95808834,153.42923621,-64.86294258

>  <CHROM.1>
-172.25489374,-71.69091509,-169.76741254,-65.24236363,171.82601141,175.66683681
60.50518668,88.49287188,16.80995543,-104.22832590,2.35447647,-0.10306664
0.70591390

>  <Energy>
36.799577805089406

>  <Genealogy>
CN(N=O)C(=O)N[C@@H]1[C@@H](O)O[C@@H](CO)[C@H](O)[C@H]1O (chirality)
CN(N=O)C(=O)N[C@@H]1[C@@H](O)O[C@@H](CO)[C@H](O)[C@H]1O (3D coordinates assigned)
CN(N=O)C(=O)N[C@@H]1[C@@H](O)O[C@@H](CO)[C@H](O)[C@H]1O (nonaromatic ring conformer: 36.799577805089406 kcal/mol)

>  <Name>
5300

>  <RI>
3.95439e+07

>  <Rbt.Current_Directory>
/home/edward/Documentos/Virtual_Screening/rDock/2

>  <Rbt.Executable>
rbdock ($Id: //depot/dev/client3/rdock/2013.1/src/exe/rbdock.cxx#4 $)

>  <Rbt.Library>
libRbt.so (2013.1, Build901 2013/11/27)

>  <Rbt.Parameter_File>
/home/edward/anaconda3/envs/MD/share/rdock-2013.1-1/data/scripts/dock.prm

>  <Rbt.Receptor>
parameters.prm

>  <SCORE>
-16.4716

>  <SCORE.INTER>
-16.9125

>  <SCORE.INTER.CONST>
1

>  <SCORE.INTER.POLAR>
-3.52067

>  <SCORE.INTER.REPUL>
0.138514

>  <SCORE.INTER.ROT>
3

>  <SCORE.INTER.VDW>
-14.0348

>  <SCORE.INTER.norm>
-0.939586

>  <SCORE.INTRA>
-1.4524

>  <SCORE.INTRA.DIHEDRAL>
-2.45795

>  <SCORE.INTRA.DIHEDRAL.0>
4.73472

>  <SCORE.INTRA.POLAR>
0

>  <SCORE.INTRA.POLAR.0>
0

>  <SCORE.INTRA.REPUL>
0

>  <SCORE.INTRA.REPUL.0>
0

>  <SCORE.INTRA.VDW>
-0.223422

>  <SCORE.INTRA.VDW.0>
-0.834834

>  <SCORE.INTRA.norm>
-0.0806889

>  <SCORE.RESTR>
0.153427

>  <SCORE.RESTR.CAVITY>
0.153427

>  <SCORE.RESTR.norm>
0.0085237

>  <SCORE.SYSTEM>
1.73994

>  <SCORE.SYSTEM.CONST>
0

>  <SCORE.SYSTEM.DIHEDRAL>
3.28815

>  <SCORE.SYSTEM.VDW>
0.0958601

>  <SCORE.SYSTEM.norm>
0.0966631

>  <SCORE.heavy>
18

>  <SCORE.norm>
-0.915088

>  <SMILES>
CN(N=O)C(=O)N[C@@H]1[C@@H](O)O[C@@H](CO)[C@H](O)[C@H]1O

>  <UniqueID>
195

$$$$
899
  rDOCK(R)          3D
libRbt.so/2013.1/901 2013/11/27
 20 20  0  0  0  0  0  0  0  0999 V2000
   83.4594   17.0902 -102.2131 H   0  0  0  0  0  0
   83.3736   16.1001 -102.4112 O   0  0  0  0  0  0
   84.4710   15.3520 -102.8282 C   0  0  0  0  0  0
   85.6285   15.9395 -102.9481 N   0  0  0  0  0  0
   86.8942   15.3163 -103.3506 C   0  0  0  0  0  0
   88.0373   15.7316 -102.3898 C   0  0  0  0  0  0
   87.9832   17.1004 -102.0614 O   0  0  0  0  0  0
   88.7361   17.3081 -101.4527 H   0  0  0  0  0  0
   89.4194   15.3483 -102.9651 C   0  0  0  0  0  0
   89.6029   13.9583 -102.8560 O   0  0  0  0  0  0
   88.8258   13.5290 -103.3006 H   0  0  0  0  0  0
   89.5213   15.7686 -104.4496 C   0  0  0  0  0  0
   90.8668   15.3386 -105.0531 C   0  0  0  0  0  0
   90.9294   13.9419 -105.1616 O   0  0  0  0  0  0
   90.9039   13.5828 -104.2363 H   0  0  0  0  0  0
   88.4716   15.1823 -105.1992 O   0  0  0  0  0  0
   87.2208   15.7200 -104.8029 C   0  0  0  0  0  0
   86.2240   15.2088 -105.6461 O   0  0  0  0  0  0
   86.2806   14.2198 -105.5812 H   0  0  0  0  0  0
   84.2652   13.8982 -103.1388 C   0  0  0  0  0  0
  1  2  1  0  0  0
  2  3  1  0  0  0
  3  4  2  0  0  0
  3 20  1  0  0  0
  4  5  1  0  0  0
  5  6  1  0  0  0
  6  7  1  0  0  0
  6  9  1  0  0  0
  7  8  1  0  0  0
  9 10  1  0  0  0
  9 12  1  0  0  0
 10 11  1  0  0  0
 12 13  1  0  0  0
 12 16  1  0  0  0
 13 14  1  0  0  0
 14 15  1  0  0  0
 16 17  1  0  0  0
 17 18  1  0  0  0
 17  5  1  0  0  0
 18 19  1  0  0  0
M  END
>  <CHROM.0>
179.95951531,154.43423597,53.19901884

>  <CHROM.1>
0.81885172,-132.63968143,-179.68860663,54.59139376,68.64878679,-64.44522545
-63.80767566,87.53995186,15.30618268,-103.69511848,-2.85818198,-0.00893693
-2.01007436

>  <Energy>
28.098061787065106

>  <Genealogy>
CC(O)=NC1C(O)OC(CO)C(O)C1O (tautomer)
CC(O)=N[C@@H]1[C@H](O)[C@@H](O)[C@@H](CO)O[C@H]1O (chirality)
C/C(O)=N/[C@@H]1[C@H](O)[C@@H](O)[C@@H](CO)O[C@H]1O (cis-trans isomerization)
C/C(O)=N/[C@@H]1[C@H](O)[C@@H](O)[C@@H](CO)O[C@H]1O (3D coordinates assigned)
C/C(O)=N/[C@@H]1[C@H](O)[C@@H](O)[C@@H](CO)O[C@H]1O (nonaromatic ring conformer: 28.098061787065106 kcal/mol)

>  <Name>
899

>  <RI>
3.95439e+07

>  <Rbt.Current_Directory>
/home/edward/Documentos/Virtual_Screening/rDock/2

>  <Rbt.Executable>
rbdock ($Id: //depot/dev/client3/rdock/2013.1/src/exe/rbdock.cxx#4 $)

>  <Rbt.Library>
libRbt.so (2013.1, Build901 2013/11/27)

>  <Rbt.Parameter_File>
/home/edward/anaconda3/envs/MD/share/rdock-2013.1-1/data/scripts/dock.prm

>  <Rbt.Receptor>
parameters.prm

>  <SCORE>
-16.3866

>  <SCORE.INTER>
-16.0402

>  <SCORE.INTER.CONST>
1

>  <SCORE.INTER.POLAR>
-2.91336

>  <SCORE.INTER.REPUL>
0

>  <SCORE.INTER.ROT>
2

>  <SCORE.INTER.VDW>
-13.5348

>  <SCORE.INTER.norm>
-1.06934

>  <SCORE.INTRA>
-2.73753

>  <SCORE.INTRA.DIHEDRAL>
-3.77992

>  <SCORE.INTRA.DIHEDRAL.0>
4.73452

>  <SCORE.INTRA.POLAR>
-0.379623

>  <SCORE.INTRA.POLAR.0>
0

>  <SCORE.INTRA.REPUL>
0

>  <SCORE.INTRA.REPUL.0>
0

>  <SCORE.INTRA.VDW>
0.443145

>  <SCORE.INTRA.VDW.0>
-1.54405

>  <SCORE.INTRA.norm>
-0.182502

>  <SCORE.RESTR>
0

>  <SCORE.RESTR.CAVITY>
0

>  <SCORE.RESTR.norm>
0

>  <SCORE.SYSTEM>
2.39112

>  <SCORE.SYSTEM.CONST>
0

>  <SCORE.SYSTEM.DIHEDRAL>
3.07681

>  <SCORE.SYSTEM.VDW>
0.852712

>  <SCORE.SYSTEM.norm>
0.159408

>  <SCORE.heavy>
15

>  <SCORE.norm>
-1.09244

>  <SMILES>
C/C(O)=N/[C@@H]1[C@H](O)[C@@H](O)[C@@H](CO)O[C@H]1O

>  <UniqueID>
197

$$$$
739
  rDOCK(R)          3D
libRbt.so/2013.1/901 2013/11/27
 19 19  0  0  0  0  0  0  0  0999 V2000
   83.2095   26.7920 -102.7160 N   0  3  0  0  0  0
   84.5249   27.3409 -103.0853 C   0  0  0  0  0  0
   85.6575   26.5065 -102.4481 C   0  0  0  0  0  0
   86.8848   27.1862 -102.5433 O   0  0  0  0  0  0
   85.7359   25.2129 -103.0296 O   0  0  0  0  0  0
   86.0589   25.2741 -104.4116 C   0  0  0  0  0  0
   86.2455   23.8409 -104.9238 C   0  0  0  0  0  0
   85.0010   23.2023 -105.0017 O   0  0  0  0  0  0
   84.9495   26.0025 -105.2088 C   0  0  0  0  0  0
   85.3356   26.1371 -106.5546 O   0  0  0  0  0  0
   84.7205   27.4052 -104.6177 C   0  0  0  0  0  0
   83.6095   28.0168 -105.2230 O   0  0  0  0  0  0
   82.4576   27.4965 -102.8910 H   0  0  0  0  0  0
   82.9985   25.9191 -103.2504 H   0  0  0  0  0  0
   83.1978   26.5680 -101.6944 H   0  0  0  0  0  0
   87.5672   26.5897 -102.1384 H   0  0  0  0  0  0
   85.1900   22.2591 -105.2461 H   0  0  0  0  0  0
   84.5411   26.4530 -107.0592 H   0  0  0  0  0  0
   83.6790   27.8453 -106.1984 H   0  0  0  0  0  0
  1  2  1  0  0  0
  1 13  1  0  0  0
  1 14  1  0  0  0
  1 15  1  0  0  0
  2  3  1  0  0  0
  3  4  1  0  0  0
  3  5  1  0  0  0
  4 16  1  0  0  0
  5  6  1  0  0  0
  6  7  1  0  0  0
  6  9  1  0  0  0
  7  8  1  0  0  0
  8 17  1  0  0  0
  9 10  1  0  0  0
  9 11  1  0  0  0
 10 18  1  0  0  0
 11 12  1  0  0  0
 11  2  1  0  0  0
 12 19  1  0  0  0
M  END
>  <CHROM.0>
179.60344644,153.09724211,52.30875096

>  <CHROM.1>
162.83039513,-178.64380860,72.25562381,-174.32445459,169.84852171,-166.98023667
85.13271825,26.06082523,-104.16713743,-2.11311315,0.95357750,-2.20637833

>  <Energy>
24.76480741120639

>  <Genealogy>
[NH3+]C1C(O)OC(CO)C(O)C1O (protonated)
[NH3+][C@@H]1[C@H](O)[C@@H](O)[C@H](CO)O[C@H]1O (chirality)
[NH3+][C@@H]1[C@H](O)[C@@H](O)[C@H](CO)O[C@H]1O (3D coordinates assigned)
[NH3+][C@@H]1[C@H](O)[C@@H](O)[C@H](CO)O[C@H]1O (nonaromatic ring conformer: 24.76480741120639 kcal/mol)

>  <Name>
739

>  <RI>
3.95439e+07

>  <Rbt.Current_Directory>
/home/edward/Documentos/Virtual_Screening/rDock/2

>  <Rbt.Executable>
rbdock ($Id: //depot/dev/client3/rdock/2013.1/src/exe/rbdock.cxx#4 $)

>  <Rbt.Library>
libRbt.so (2013.1, Build901 2013/11/27)

>  <Rbt.Parameter_File>
/home/edward/anaconda3/envs/MD/share/rdock-2013.1-1/data/scripts/dock.prm

>  <Rbt.Receptor>
parameters.prm

>  <SCORE>
-18.6407

>  <SCORE.INTER>
-20.2795

>  <SCORE.INTER.CONST>
1

>  <SCORE.INTER.POLAR>
-4.92797

>  <SCORE.INTER.REPUL>
0.0548481

>  <SCORE.INTER.ROT>
1

>  <SCORE.INTER.VDW>
-10.1987

>  <SCORE.INTER.norm>
-1.68996

>  <SCORE.INTRA>
-0.836559

>  <SCORE.INTRA.DIHEDRAL>
-4.16213

>  <SCORE.INTRA.DIHEDRAL.0>
6.86093

>  <SCORE.INTRA.POLAR>
0

>  <SCORE.INTRA.POLAR.0>
0

>  <SCORE.INTRA.REPUL>
0

>  <SCORE.INTRA.REPUL.0>
0

>  <SCORE.INTRA.VDW>
1.24451

>  <SCORE.INTRA.VDW.0>
-1.26832

>  <SCORE.INTRA.norm>
-0.0697132

>  <SCORE.RESTR>
0.0855305

>  <SCORE.RESTR.CAVITY>
0.0855305

>  <SCORE.RESTR.norm>
0.00712754

>  <SCORE.SYSTEM>
2.38981

>  <SCORE.SYSTEM.CONST>
0

>  <SCORE.SYSTEM.DIHEDRAL>
3.31699

>  <SCORE.SYSTEM.VDW>
0.731319

>  <SCORE.SYSTEM.norm>
0.199151

>  <SCORE.heavy>
12

>  <SCORE.norm>
-1.55339

>  <SMILES>
[NH3+][C@@H]1[C@H](O)[C@@H](O)[C@H](CO)O[C@H]1O

>  <UniqueID>
199

$$$$
ZINC000001471333
  rDOCK(R)          3D
libRbt.so/2013.1/901 2013/11/27
 26 27  0  0  0  0  0  0  0  0999 V2000
   90.5633   13.6918 -104.8633 C   0  0  0  0  0  0
   89.5519   14.3725 -103.9998 C   0  0  0  0  0  0
   89.4784   14.0792 -102.7757 O   0  0  0  0  0  0
   88.6737   15.3540 -104.5673 N   0  0  0  0  0  0
   87.6381   16.0315 -103.7781 C   0  0  0  0  0  0
   87.4894   17.5014 -104.2191 C   0  0  0  0  0  0
   88.7358   18.1679 -104.0217 O   0  0  0  0  0  0
   89.0910   19.3943 -104.6045 C   0  0  0  0  0  0
   88.5549   20.6233 -104.1727 C   0  0  0  0  0  0
   88.9432   21.8169 -104.7887 C   0  0  0  0  0  0
   89.8592   21.8008 -105.8509 C   0  0  0  0  0  0
   90.3045   23.0857 -106.4837 C   0  0  0  0  0  0
   90.4047   20.5787 -106.2706 C   0  0  0  0  0  0
   90.0163   19.3854 -105.6547 C   0  0  0  0  0  0
   86.4974   18.1441 -103.4375 O   0  0  0  0  0  0
   85.2185   17.5901 -103.6962 C   0  0  0  0  0  0
   84.1773   18.4474 -102.9572 C   0  0  0  0  0  0
   84.3971   18.4349 -101.5721 O   0  0  0  0  0  0
   85.1754   16.1146 -103.2262 C   0  0  0  0  0  0
   83.9205   15.5503 -103.5091 O   0  0  0  0  0  0
   86.2881   15.3044 -103.9243 C   0  0  0  0  0  0
   85.9875   15.1365 -105.2888 O   0  0  0  0  0  0
   88.7993   15.6038 -105.5752 H   0  0  0  0  0  0
   83.6033   18.8602 -101.1540 H   0  0  0  0  0  0
   83.2540   16.0510 -102.9700 H   0  0  0  0  0  0
   86.5707   14.4081 -105.6275 H   0  0  0  0  0  0
  1  2  1  0  0  0
  2  3  2  0  0  0
  2  4  1  0  0  0
  4  5  1  0  0  0
  4 23  1  0  0  0
  5  6  1  0  0  0
  6  7  1  0  0  0
  6 15  1  0  0  0
  7  8  1  0  0  0
  8  9  2  0  0  0
  9 10  1  0  0  0
 10 11  2  0  0  0
 11 12  1  0  0  0
 11 13  1  0  0  0
 13 14  2  0  0  0
 14  8  1  0  0  0
 15 16  1  0  0  0
 16 17  1  0  0  0
 16 19  1  0  0  0
 17 18  1  0  0  0
 18 24  1  0  0  0
 19 20  1  0  0  0
 19 21  1  0  0  0
 20 25  1  0  0  0
 21 22  1  0  0  0
 21  5  1  0  0  0
 22 26  1  0  0  0
M  END
>  <CHROM.0>
-179.23294473,154.94603243,-60.99848971

>  <CHROM.1>
143.51256456,163.16618316,74.00248955,-61.06671537,-169.72322146,-63.80276764
74.91818208,87.67855820,17.66327610,-104.21422714,-2.11493560,0.35866928
-0.12160991

>  <Energy>
37.85111654017617

>  <Genealogy>
CC(=O)N[C@H]1[C@H](Oc2ccc(C)cc2)O[C@H](CO)[C@@H](O)[C@H]1O (3D coordinates assigned)
CC(=O)N[C@H]1[C@H](Oc2ccc(C)cc2)O[C@H](CO)[C@@H](O)[C@H]1O (nonaromatic ring conformer: 37.85111654017617 kcal/mol)

>  <Name>
ZINC000001471333

>  <RI>
3.95439e+07

>  <Rbt.Current_Directory>
/home/edward/Documentos/Virtual_Screening/rDock/2

>  <Rbt.Executable>
rbdock ($Id: //depot/dev/client3/rdock/2013.1/src/exe/rbdock.cxx#4 $)

>  <Rbt.Library>
libRbt.so (2013.1, Build901 2013/11/27)

>  <Rbt.Parameter_File>
/home/edward/anaconda3/envs/MD/share/rdock-2013.1-1/data/scripts/dock.prm

>  <Rbt.Receptor>
parameters.prm

>  <SCORE>
-17.884

>  <SCORE.INTER>
-20.4155

>  <SCORE.INTER.CONST>
1

>  <SCORE.INTER.POLAR>
-3.67719

>  <SCORE.INTER.REPUL>
0

>  <SCORE.INTER.ROT>
4

>  <SCORE.INTER.VDW>
-17.3131

>  <SCORE.INTER.norm>
-0.927979

>  <SCORE.INTRA>
0.698998

>  <SCORE.INTRA.DIHEDRAL>
2.06688

>  <SCORE.INTRA.DIHEDRAL.0>
6.56072

>  <SCORE.INTRA.POLAR>
0

>  <SCORE.INTRA.POLAR.0>
0

>  <SCORE.INTRA.REPUL>
0

>  <SCORE.INTRA.REPUL.0>
0

>  <SCORE.INTRA.VDW>
-0.334444

>  <SCORE.INTRA.VDW.0>
-1.92731

>  <SCORE.INTRA.norm>
0.0317726

>  <SCORE.RESTR>
0

>  <SCORE.RESTR.CAVITY>
0

>  <SCORE.RESTR.norm>
0

>  <SCORE.SYSTEM>
1.8325

>  <SCORE.SYSTEM.CONST>
0

>  <SCORE.SYSTEM.DIHEDRAL>
3.11029

>  <SCORE.SYSTEM.VDW>
0.27736

>  <SCORE.SYSTEM.norm>
0.0832956

>  <SCORE.heavy>
22

>  <SCORE.norm>
-0.812911

>  <SMILES>
CC(=O)N[C@H]1[C@H](Oc2ccc(C)cc2)O[C@H](CO)[C@@H](O)[C@H]1O

>  <UniqueID>
201

$$$$
ZINC000003956714
  rDOCK(R)          3D
libRbt.so/2013.1/901 2013/11/27
 26 27  0  0  0  0  0  0  0  0999 V2000
   85.5676   14.6323 -105.3477 H   0  0  0  0  0  0
   86.4088   15.1778 -105.2039 O   0  0  0  0  0  0
   86.7394   15.6855 -103.9473 C   0  0  0  0  0  0
   87.8122   16.3984 -103.7835 N   0  0  0  0  0  0
   88.7738   16.7123 -104.8426 C   0  0  0  0  0  0
   89.2530   18.1687 -104.6814 C   0  0  0  0  0  0
   89.7710   18.3803 -103.3723 O   0  0  0  0  0  0
   90.1565   19.7259 -103.1726 C   0  0  0  0  0  0
   90.3269   20.0046 -101.7025 C   0  0  0  0  0  0
   90.9654   19.0617 -100.8803 C   0  0  0  0  0  0
   91.0812   19.2895  -99.5057 C   0  0  0  0  0  0
   90.5560   20.4556  -98.9425 C   0  0  0  0  0  0
   89.9159   21.3967  -99.7535 C   0  0  0  0  0  0
   89.7995   21.1736 -101.1291 C   0  0  0  0  0  0
   90.2225   18.5005 -105.6633 O   0  0  0  0  0  0
   91.3858   17.6927 -105.5533 C   0  0  0  0  0  0
   92.4193   18.1920 -106.5742 C   0  0  0  0  0  0
   92.6862   19.5541 -106.3725 O   0  0  0  0  0  0
   93.1390   19.6307 -105.4923 H   0  0  0  0  0  0
   91.0427   16.2066 -105.8079 C   0  0  0  0  0  0
   92.1972   15.4164 -105.6777 O   0  0  0  0  0  0
   91.9246   14.4798 -105.8628 H   0  0  0  0  0  0
   89.9638   15.7355 -104.8137 C   0  0  0  0  0  0
   90.4919   15.6606 -103.5115 O   0  0  0  0  0  0
   90.6462   16.5925 -103.2063 H   0  0  0  0  0  0
   85.8377   15.4494 -102.7789 C   0  0  0  0  0  0
  1  2  1  0  0  0
  2  3  1  0  0  0
  3  4  2  0  0  0
  3 26  1  0  0  0
  4  5  1  0  0  0
  5  6  1  0  0  0
  6  7  1  0  0  0
  6 15  1  0  0  0
  7  8  1  0  0  0
  8  9  1  0  0  0
  9 10  2  0  0  0
 10 11  1  0  0  0
 11 12  2  0  0  0
 12 13  1  0  0  0
 13 14  2  0  0  0
 14  9  1  0  0  0
 15 16  1  0  0  0
 16 17  1  0  0  0
 16 20  1  0  0  0
 17 18  1  0  0  0
 18 19  1  0  0  0
 20 21  1  0  0  0
 20 23  1  0  0  0
 21 22  1  0  0  0
 23 24  1  0  0  0
 23  5  1  0  0  0
 24 25  1  0  0  0
M  END
>  <CHROM.0>
-72.62068562,153.44901537,-60.18828608

>  <CHROM.1>
-179.05821313,140.67875899,-177.01915173,164.11044456,42.04144132,56.21286724
66.49191793,-179.21048170,-50.68459375,89.91337526,17.83115672,-103.64091573
1.78466373,-0.55666203,-2.18835881

>  <Energy>
41.876171255463774

>  <Genealogy>
CC(O)=N[C@H]1[C@@H](OCc2ccccc2)O[C@H](CO)[C@@H](O)[C@H]1O (tautomer)
C/C(O)=N/[C@H]1[C@@H](OCc2ccccc2)O[C@H](CO)[C@@H](O)[C@H]1O (cis-trans isomerization)
C/C(O)=N/[C@H]1[C@@H](OCc2ccccc2)O[C@H](CO)[C@@H](O)[C@H]1O (3D coordinates assigned)
C/C(O)=N/[C@H]1[C@@H](OCc2ccccc2)O[C@H](CO)[C@@H](O)[C@H]1O (nonaromatic ring conformer: 41.876171255463774 kcal/mol)

>  <Name>
ZINC000003956714

>  <RI>
3.95439e+07

>  <Rbt.Current_Directory>
/home/edward/Documentos/Virtual_Screening/rDock/2

>  <Rbt.Executable>
rbdock ($Id: //depot/dev/client3/rdock/2013.1/src/exe/rbdock.cxx#4 $)

>  <Rbt.Library>
libRbt.so (2013.1, Build901 2013/11/27)

>  <Rbt.Parameter_File>
/home/edward/anaconda3/envs/MD/share/rdock-2013.1-1/data/scripts/dock.prm

>  <Rbt.Receptor>
parameters.prm

>  <SCORE>
-23.0748

>  <SCORE.INTER>
-19.2323

>  <SCORE.INTER.CONST>
1

>  <SCORE.INTER.POLAR>
-2.9892

>  <SCORE.INTER.REPUL>
0.0212305

>  <SCORE.INTER.ROT>
5

>  <SCORE.INTER.VDW>
-19.5752

>  <SCORE.INTER.norm>
-0.874194

>  <SCORE.INTRA>
-7.20072

>  <SCORE.INTRA.DIHEDRAL>
-13.9469

>  <SCORE.INTRA.DIHEDRAL.0>
17.2302

>  <SCORE.INTRA.POLAR>
-0.765852

>  <SCORE.INTRA.POLAR.0>
0

>  <SCORE.INTRA.REPUL>
-0.0744435

>  <SCORE.INTRA.REPUL.0>
0.0744435

>  <SCORE.INTRA.VDW>
2.74883

>  <SCORE.INTRA.VDW.0>
-4.03616

>  <SCORE.INTRA.norm>
-0.327305

>  <SCORE.RESTR>
0

>  <SCORE.RESTR.CAVITY>
0

>  <SCORE.RESTR.norm>
0

>  <SCORE.SYSTEM>
3.35821

>  <SCORE.SYSTEM.CONST>
0

>  <SCORE.SYSTEM.DIHEDRAL>
4.16749

>  <SCORE.SYSTEM.VDW>
1.27446

>  <SCORE.SYSTEM.norm>
0.152646

>  <SCORE.heavy>
22

>  <SCORE.norm>
-1.04885

>  <SMILES>
C/C(O)=N/[C@H]1[C@@H](OCc2ccccc2)O[C@H](CO)[C@@H](O)[C@H]1O

>  <UniqueID>
203

$$$$
ZINC000004027857
  rDOCK(R)          3D
libRbt.so/2013.1/901 2013/11/27
 25 27  0  0  0  0  0  0  0  0999 V2000
   91.3557   17.9479 -102.5901 H   0  0  0  0  0  0
   90.4273   17.6823 -102.8857 O   0  0  0  0  0  0
   90.0290   17.5956 -104.2225 C   0  0  0  0  0  0
   88.8468   17.1794 -104.5792 N   0  0  0  0  0  0
   87.7366   16.7892 -103.7047 C   0  0  0  0  0  0
   87.2220   15.4011 -104.1382 C   0  0  0  0  0  0
   86.9738   15.3918 -105.5235 O   0  0  0  0  0  0
   87.7716   15.7867 -105.9630 H   0  0  0  0  0  0
   85.9393   15.0688 -103.3601 C   0  0  0  0  0  0
   85.3834   13.8509 -103.8172 O   0  0  0  0  0  0
   84.1805   13.5351 -103.1196 C   0  0  0  0  0  0
   84.4117   13.0676 -101.6883 C   0  0  0  0  0  0
   85.7187   12.8506 -101.2112 C   0  0  0  0  0  0
   85.9296   12.3669  -99.9165 C   0  0  0  0  0  0
   84.8413   12.0674  -99.0943 C   0  0  0  0  0  0
   83.5397   12.2396  -99.5699 C   0  0  0  0  0  0
   83.3235   12.7233 -100.8637 C   0  0  0  0  0  0
   83.1986   14.5632 -103.2317 O   0  0  0  0  0  0
   83.6839   15.8093 -102.7697 C   0  0  0  0  0  0
   84.9350   16.2091 -103.5358 C   0  0  0  0  0  0
   85.4616   17.4159 -103.0166 O   0  0  0  0  0  0
   86.5853   17.8294 -103.7845 C   0  0  0  0  0  0
   87.0242   19.0800 -103.3248 O   0  0  0  0  0  0
   86.3062   19.7349 -103.5277 H   0  0  0  0  0  0
   91.0103   17.9636 -105.2841 C   0  0  0  0  0  0
  1  2  1  0  0  0
  2  3  1  0  0  0
  3  4  2  0  0  0
  3 25  1  0  0  0
  4  5  1  0  0  0
  5  6  1  0  0  0
  6  7  1  0  0  0
  6  9  1  0  0  0
  7  8  1  0  0  0
  9 10  1  0  0  0
 10 11  1  0  0  0
 11 12  1  0  0  0
 11 18  1  0  0  0
 12 13  2  0  0  0
 13 14  1  0  0  0
 14 15  2  0  0  0
 15 16  1  0  0  0
 16 17  2  0  0  0
 17 12  1  0  0  0
 18 19  1  0  0  0
 19 20  1  0  0  0
 20 21  1  0  0  0
 20  9  1  0  0  0
 21 22  1  0  0  0
 22 23  1  0  0  0
 22  5  1  0  0  0
 23 24  1  0  0  0
M  END
>  <CHROM.0>
179.33121948,153.37173752,-66.63021318

>  <CHROM.1>
176.10946082,-128.72595562,48.04136969,-6.41164482,171.29378453,86.25953933
15.41243900,-102.92478065,-0.85921576,0.15667171,2.41086935

>  <Energy>
54.732051263083335

>  <Genealogy>
CC(O)=N[C@@H]1[C@H](O)[C@@H]2O[C@@H](c3ccccc3)OC[C@H]2O[C@H]1O (tautomer)
C/C(O)=N/[C@@H]1[C@H](O)[C@@H]2O[C@@H](c3ccccc3)OC[C@H]2O[C@H]1O (cis-trans isomerization)
C/C(O)=N/[C@@H]1[C@H](O)[C@@H]2O[C@@H](c3ccccc3)OC[C@H]2O[C@H]1O (3D coordinates assigned)
C/C(O)=N/[C@@H]1[C@H](O)[C@@H]2O[C@@H](c3ccccc3)OC[C@H]2O[C@H]1O (nonaromatic ring conformer: 54.732051263083335 kcal/mol)

>  <Name>
ZINC000004027857

>  <RI>
3.95439e+07

>  <Rbt.Current_Directory>
/home/edward/Documentos/Virtual_Screening/rDock/2

>  <Rbt.Executable>
rbdock ($Id: //depot/dev/client3/rdock/2013.1/src/exe/rbdock.cxx#4 $)

>  <Rbt.Library>
libRbt.so (2013.1, Build901 2013/11/27)

>  <Rbt.Parameter_File>
/home/edward/anaconda3/envs/MD/share/rdock-2013.1-1/data/scripts/dock.prm

>  <Rbt.Receptor>
parameters.prm

>  <SCORE>
-15.2827

>  <SCORE.INTER>
-15.1575

>  <SCORE.INTER.CONST>
1

>  <SCORE.INTER.POLAR>
-2.59007

>  <SCORE.INTER.REPUL>
0.719439

>  <SCORE.INTER.ROT>
2

>  <SCORE.INTER.VDW>
-17.3484

>  <SCORE.INTER.norm>
-0.688976

>  <SCORE.INTRA>
-1.85939

>  <SCORE.INTRA.DIHEDRAL>
-3.56739

>  <SCORE.INTRA.DIHEDRAL.0>
5.57561

>  <SCORE.INTRA.POLAR>
-0.197394

>  <SCORE.INTRA.POLAR.0>
0

>  <SCORE.INTRA.REPUL>
0

>  <SCORE.INTRA.REPUL.0>
0

>  <SCORE.INTRA.VDW>
0.595449

>  <SCORE.INTRA.VDW.0>
-2.04599

>  <SCORE.INTRA.norm>
-0.0845176

>  <SCORE.RESTR>
0

>  <SCORE.RESTR.CAVITY>
0

>  <SCORE.RESTR.norm>
0

>  <SCORE.SYSTEM>
1.73419

>  <SCORE.SYSTEM.CONST>
0

>  <SCORE.SYSTEM.DIHEDRAL>
3.27626

>  <SCORE.SYSTEM.VDW>
0.0960573

>  <SCORE.SYSTEM.norm>
0.0788268

>  <SCORE.heavy>
22

>  <SCORE.norm>
-0.694667

>  <SMILES>
C/C(O)=N/[C@@H]1[C@H](O)[C@@H]2O[C@@H](c3ccccc3)OC[C@H]2O[C@H]1O

>  <UniqueID>
206

$$$$
ZINC000004027859
  rDOCK(R)          3D
libRbt.so/2013.1/901 2013/11/27
 25 27  0  0  0  0  0  0  0  0999 V2000
   85.0887   13.1723 -105.1215 H   0  0  0  0  0  0
   84.4981   13.6708 -104.4667 O   0  0  0  0  0  0
   85.0211   14.5991 -103.5700 C   0  0  0  0  0  0
   86.3040   14.8223 -103.5910 N   0  0  0  0  0  0
   87.0462   15.7673 -102.7496 C   0  0  0  0  0  0
   87.3912   17.0450 -103.5477 C   0  0  0  0  0  0
   87.9897   16.6972 -104.7726 O   0  0  0  0  0  0
   88.0142   17.5203 -105.3270 H   0  0  0  0  0  0
   88.3419   17.9144 -102.7102 C   0  0  0  0  0  0
   88.7748   19.0417 -103.4452 O   0  0  0  0  0  0
   89.6320   19.8352 -102.6353 C   0  0  0  0  0  0
   90.0278   21.0573 -103.4211 C   0  0  0  0  0  0
   89.9341   22.3316 -102.8339 C   0  0  0  0  0  0
   90.2984   23.4713 -103.5574 C   0  0  0  0  0  0
   90.7577   23.3495 -104.8713 C   0  0  0  0  0  0
   90.8532   22.0877 -105.4642 C   0  0  0  0  0  0
   90.4902   20.9448 -104.7447 C   0  0  0  0  0  0
   90.8129   19.1241 -102.2902 O   0  0  0  0  0  0
   90.4877   17.9925 -101.5062 C   0  0  0  0  0  0
   89.5504   17.0710 -102.2816 C   0  0  0  0  0  0
   89.1325   15.9887 -101.4709 O   0  0  0  0  0  0
   88.3428   15.0884 -102.2381 C   0  0  0  0  0  0
   88.0196   13.9714 -101.4520 O   0  0  0  0  0  0
   87.5461   13.3266 -102.0404 H   0  0  0  0  0  0
   84.1000   15.2872 -102.5987 C   0  0  0  0  0  0
  1  2  1  0  0  0
  2  3  1  0  0  0
  3  4  2  0  0  0
  3 25  1  0  0  0
  4  5  1  0  0  0
  5  6  1  0  0  0
  6  7  1  0  0  0
  6  9  1  0  0  0
  7  8  1  0  0  0
  9 10  1  0  0  0
 10 11  1  0  0  0
 11 12  1  0  0  0
 11 18  1  0  0  0
 12 13  2  0  0  0
 13 14  1  0  0  0
 14 15  2  0  0  0
 15 16  1  0  0  0
 16 17  2  0  0  0
 17 12  1  0  0  0
 18 19  1  0  0  0
 19 20  1  0  0  0
 20 21  1  0  0  0
 20  9  1  0  0  0
 21 22  1  0  0  0
 22 23  1  0  0  0
 22  5  1  0  0  0
 23 24  1  0  0  0
M  END
>  <CHROM.0>
-178.56065760,153.83605727,-65.16643385

>  <CHROM.1>
0.22880688,-102.36390481,168.10647465,131.66251588,62.82299439,88.47818000
17.89789313,-103.17911873,2.24559317,0.60406452,2.60744906

>  <Energy>
48.699882878932875

>  <Genealogy>
CC(O)=N[C@@H]1[C@H](O)[C@@H]2O[C@H](c3ccccc3)OC[C@H]2O[C@H]1O (tautomer)
C/C(O)=N/[C@@H]1[C@H](O)[C@@H]2O[C@H](c3ccccc3)OC[C@H]2O[C@H]1O (cis-trans isomerization)
C/C(O)=N/[C@@H]1[C@H](O)[C@@H]2O[C@H](c3ccccc3)OC[C@H]2O[C@H]1O (3D coordinates assigned)
C/C(O)=N/[C@@H]1[C@H](O)[C@@H]2O[C@H](c3ccccc3)OC[C@H]2O[C@H]1O (nonaromatic ring conformer: 48.699882878932875 kcal/mol)

>  <Name>
ZINC000004027859

>  <RI>
3.95439e+07

>  <Rbt.Current_Directory>
/home/edward/Documentos/Virtual_Screening/rDock/2

>  <Rbt.Executable>
rbdock ($Id: //depot/dev/client3/rdock/2013.1/src/exe/rbdock.cxx#4 $)

>  <Rbt.Library>
libRbt.so (2013.1, Build901 2013/11/27)

>  <Rbt.Parameter_File>
/home/edward/anaconda3/envs/MD/share/rdock-2013.1-1/data/scripts/dock.prm

>  <Rbt.Receptor>
parameters.prm

>  <SCORE>
-15.2681

>  <SCORE.INTER>
-15.5005

>  <SCORE.INTER.CONST>
1

>  <SCORE.INTER.POLAR>
-1.95033

>  <SCORE.INTER.REPUL>
0.0167809

>  <SCORE.INTER.ROT>
2

>  <SCORE.INTER.VDW>
-16.3533

>  <SCORE.INTER.norm>
-0.70457

>  <SCORE.INTRA>
-1.51

>  <SCORE.INTRA.DIHEDRAL>
-2.57563

>  <SCORE.INTRA.DIHEDRAL.0>
4.51429

>  <SCORE.INTRA.POLAR>
-0.00404472

>  <SCORE.INTRA.POLAR.0>
0

>  <SCORE.INTRA.REPUL>
0

>  <SCORE.INTRA.REPUL.0>
0

>  <SCORE.INTRA.VDW>
-0.208439

>  <SCORE.INTRA.VDW.0>
-1.58074

>  <SCORE.INTRA.norm>
-0.0686366

>  <SCORE.RESTR>
0

>  <SCORE.RESTR.CAVITY>
0

>  <SCORE.RESTR.norm>
0

>  <SCORE.SYSTEM>
1.74248

>  <SCORE.SYSTEM.CONST>
0

>  <SCORE.SYSTEM.DIHEDRAL>
3.21812

>  <SCORE.SYSTEM.VDW>
0.133416

>  <SCORE.SYSTEM.norm>
0.0792035

>  <SCORE.heavy>
22

>  <SCORE.norm>
-0.694003

>  <SMILES>
C/C(O)=N/[C@@H]1[C@H](O)[C@@H]2O[C@H](c3ccccc3)OC[C@H]2O[C@H]1O

>  <UniqueID>
208

$$$$
ZINC000012364260
  rDOCK(R)          3D
libRbt.so/2013.1/901 2013/11/27
 25 27  0  0  0  0  0  0  0  0999 V2000
   88.0519   14.3541 -100.5227 C   0  0  0  0  0  0
   89.0709   15.1637 -101.2572 C   0  0  0  0  0  0
   89.8229   15.9474 -100.6164 O   0  0  0  0  0  0
   89.1727   15.0617 -102.6843 N   0  0  0  0  0  0
   90.1306   15.8588 -103.4614 C   0  0  0  0  0  0
   90.7147   15.0445 -104.6458 C   0  0  0  0  0  0
   89.6917   14.5304 -105.4698 O   0  0  0  0  0  0
   91.6226   15.8245 -105.4132 O   0  0  0  0  0  0
   90.9808   16.9637 -105.9673 C   0  0  0  0  0  0
   91.9581   17.7500 -106.8608 C   0  0  0  0  0  0
   92.0192   19.1180 -106.4993 O   0  0  0  0  0  0
   90.7066   19.6631 -106.4254 C   0  0  0  0  0  0
   90.8216   21.1370 -106.1412 C   0  0  0  0  0  0
   91.0750   22.0389 -107.1898 C   0  0  0  0  0  0
   91.1633   23.4108 -106.9356 C   0  0  0  0  0  0
   90.9837   23.8956 -105.6369 C   0  0  0  0  0  0
   90.7136   23.0089 -104.5909 C   0  0  0  0  0  0
   90.6306   21.6351 -104.8394 C   0  0  0  0  0  0
   89.8905   19.0637 -105.4165 O   0  0  0  0  0  0
   90.4862   17.9074 -104.8579 C   0  0  0  0  0  0
   89.4860   17.1732 -103.9579 C   0  0  0  0  0  0
   88.3012   16.9137 -104.6703 O   0  0  0  0  0  0
   88.5724   14.3550 -103.1651 H   0  0  0  0  0  0
   89.1229   15.2920 -105.7575 H   0  0  0  0  0  0
   87.9650   17.7881 -104.9988 H   0  0  0  0  0  0
  1  2  1  0  0  0
  2  3  2  0  0  0
  2  4  1  0  0  0
  4  5  1  0  0  0
  4 23  1  0  0  0
  5  6  1  0  0  0
  6  7  1  0  0  0
  6  8  1  0  0  0
  7 24  1  0  0  0
  8  9  1  0  0  0
  9 10  1  0  0  0
 10 11  1  0  0  0
 11 12  1  0  0  0
 12 13  1  0  0  0
 12 19  1  0  0  0
 13 14  2  0  0  0
 14 15  1  0  0  0
 15 16  2  0  0  0
 16 17  1  0  0  0
 17 18  2  0  0  0
 18 13  1  0  0  0
 19 20  1  0  0  0
 20 21  1  0  0  0
 20  9  1  0  0  0
 21 22  1  0  0  0
 21  5  1  0  0  0
 22 25  1  0  0  0
M  END
>  <CHROM.0>
-179.55009923,152.73477452,-66.90129123

>  <CHROM.1>
143.01788294,55.05005492,81.82505384,-177.16319069,90.30567337,18.11001250
-104.70599618,2.11444466,-1.15167396,-3.10749796

>  <Energy>
56.42878247662942

>  <Genealogy>
CC(=O)N[C@H]1[C@@H](O)O[C@@H]2CO[C@H](c3ccccc3)O[C@H]2[C@H]1O (3D coordinates assigned)
CC(=O)N[C@H]1[C@@H](O)O[C@@H]2CO[C@H](c3ccccc3)O[C@H]2[C@H]1O (nonaromatic ring conformer: 56.42878247662942 kcal/mol)

>  <Name>
ZINC000012364260

>  <RI>
3.95439e+07

>  <Rbt.Current_Directory>
/home/edward/Documentos/Virtual_Screening/rDock/2

>  <Rbt.Executable>
rbdock ($Id: //depot/dev/client3/rdock/2013.1/src/exe/rbdock.cxx#4 $)

>  <Rbt.Library>
libRbt.so (2013.1, Build901 2013/11/27)

>  <Rbt.Parameter_File>
/home/edward/anaconda3/envs/MD/share/rdock-2013.1-1/data/scripts/dock.prm

>  <Rbt.Receptor>
parameters.prm

>  <SCORE>
-19.4833

>  <SCORE.INTER>
-15.7228

>  <SCORE.INTER.CONST>
1

>  <SCORE.INTER.POLAR>
-2.12512

>  <SCORE.INTER.REPUL>
0.279289

>  <SCORE.INTER.ROT>
2

>  <SCORE.INTER.VDW>
-17.2938

>  <SCORE.INTER.norm>
-0.714672

>  <SCORE.INTRA>
-5.49945

>  <SCORE.INTRA.DIHEDRAL>
-8.25566

>  <SCORE.INTRA.DIHEDRAL.0>
10.4542

>  <SCORE.INTRA.POLAR>
-0.67104

>  <SCORE.INTRA.POLAR.0>
0

>  <SCORE.INTRA.REPUL>
0

>  <SCORE.INTRA.REPUL.0>
0

>  <SCORE.INTRA.VDW>
0.909915

>  <SCORE.INTRA.VDW.0>
-2.03607

>  <SCORE.INTRA.norm>
-0.249975

>  <SCORE.RESTR>
0

>  <SCORE.RESTR.CAVITY>
0

>  <SCORE.RESTR.norm>
0

>  <SCORE.SYSTEM>
1.73896

>  <SCORE.SYSTEM.CONST>
0

>  <SCORE.SYSTEM.DIHEDRAL>
3.39059

>  <SCORE.SYSTEM.VDW>
0.0436611

>  <SCORE.SYSTEM.norm>
0.0790435

>  <SCORE.heavy>
22

>  <SCORE.norm>
-0.885604

>  <SMILES>
CC(=O)N[C@H]1[C@@H](O)O[C@@H]2CO[C@H](c3ccccc3)O[C@H]2[C@H]1O

>  <UniqueID>
209

$$$$
ZINC000013545464
  rDOCK(R)          3D
libRbt.so/2013.1/901 2013/11/27
 25 26  0  0  0  0  0  0  0  0999 V2000
   89.8570   14.8197 -105.0141 H   0  0  0  0  0  0
   89.9516   15.8079 -105.2156 O   0  0  0  0  0  0
   91.0934   16.3115 -105.8380 C   0  0  0  0  0  0
   91.2229   17.5862 -106.0576 N   0  0  0  0  0  0
   90.2166   18.6004 -105.7253 C   0  0  0  0  0  0
   90.6302   19.2982 -104.4083 C   0  0  0  0  0  0
   90.0648   18.5876 -103.3071 O   0  0  0  0  0  0
   90.4504   18.7451 -101.9667 C   0  0  0  0  0  0
   90.6114   17.6536 -101.0891 C   0  0  0  0  0  0
   90.9973   17.8692  -99.7622 C   0  0  0  0  0  0
   91.2241   19.1679  -99.2996 C   0  0  0  0  0  0
   91.0651   20.2541 -100.1635 C   0  0  0  0  0  0
   90.6796   20.0427 -101.4909 C   0  0  0  0  0  0
   90.1569   20.6322 -104.3962 O   0  0  0  0  0  0
   90.9195   21.4355 -105.2876 C   0  0  0  0  0  0
   90.2758   22.8280 -105.3535 C   0  0  0  0  0  0
   88.9882   22.7594 -105.9079 O   0  0  0  0  0  0
   88.6313   23.6850 -105.9279 H   0  0  0  0  0  0
   91.0565   20.7972 -106.7105 C   0  0  0  0  0  0
   92.3625   20.3117 -106.8970 O   0  0  0  0  0  0
   92.4003   19.4200 -106.4618 H   0  0  0  0  0  0
   90.0581   19.6390 -106.8704 C   0  0  0  0  0  0
   90.2169   19.0468 -108.1346 O   0  0  0  0  0  0
   89.5566   18.3074 -108.1892 H   0  0  0  0  0  0
   92.1998   15.3834 -106.2232 C   0  0  0  0  0  0
  1  2  1  0  0  0
  2  3  1  0  0  0
  3  4  2  0  0  0
  3 25  1  0  0  0
  4  5  1  0  0  0
  5  6  1  0  0  0
  6  7  1  0  0  0
  6 14  1  0  0  0
  7  8  1  0  0  0
  8  9  2  0  0  0
  9 10  1  0  0  0
 10 11  2  0  0  0
 11 12  1  0  0  0
 12 13  2  0  0  0
 13  8  1  0  0  0
 14 15  1  0  0  0
 15 16  1  0  0  0
 15 19  1  0  0  0
 16 17  1  0  0  0
 17 18  1  0  0  0
 19 20  1  0  0  0
 19 22  1  0  0  0
 20 21  1  0  0  0
 22 23  1  0  0  0
 22  5  1  0  0  0
 23 24  1  0  0  0
M  END
>  <CHROM.0>
-179.41965481,150.99793801,-63.14073597

>  <CHROM.1>
-177.98659962,100.49409701,165.46529886,-137.83710009,-64.30759826,-179.66272389
81.86397659,56.11751360,90.66603367,19.19060809,-104.42585619,-1.36605852
1.42639279,-1.63104098

>  <Energy>
45.31746765311474

>  <Genealogy>
CC(O)=N[C@H]1[C@H](Oc2ccccc2)O[C@H](CO)[C@@H](O)[C@H]1O (tautomer)
C/C(O)=N/[C@H]1[C@H](Oc2ccccc2)O[C@H](CO)[C@@H](O)[C@H]1O (cis-trans isomerization)
C/C(O)=N/[C@H]1[C@H](Oc2ccccc2)O[C@H](CO)[C@@H](O)[C@H]1O (3D coordinates assigned)
C/C(O)=N/[C@H]1[C@H](Oc2ccccc2)O[C@H](CO)[C@@H](O)[C@H]1O (nonaromatic ring conformer: 45.31746765311474 kcal/mol)

>  <Name>
ZINC000013545464

>  <RI>
3.95439e+07

>  <Rbt.Current_Directory>
/home/edward/Documentos/Virtual_Screening/rDock/2

>  <Rbt.Executable>
rbdock ($Id: //depot/dev/client3/rdock/2013.1/src/exe/rbdock.cxx#4 $)

>  <Rbt.Library>
libRbt.so (2013.1, Build901 2013/11/27)

>  <Rbt.Parameter_File>
/home/edward/anaconda3/envs/MD/share/rdock-2013.1-1/data/scripts/dock.prm

>  <Rbt.Receptor>
parameters.prm

>  <SCORE>
-16.5977

>  <SCORE.INTER>
-15.7446

>  <SCORE.INTER.CONST>
1

>  <SCORE.INTER.POLAR>
-1.68721

>  <SCORE.INTER.REPUL>
0

>  <SCORE.INTER.ROT>
4

>  <SCORE.INTER.VDW>
-19.4081

>  <SCORE.INTER.norm>
-0.749743

>  <SCORE.INTRA>
-2.62343

>  <SCORE.INTRA.DIHEDRAL>
-1.52623

>  <SCORE.INTRA.DIHEDRAL.0>
7.63602

>  <SCORE.INTRA.POLAR>
-0.826993

>  <SCORE.INTRA.POLAR.0>
0

>  <SCORE.INTRA.REPUL>
0

>  <SCORE.INTRA.REPUL.0>
0

>  <SCORE.INTRA.VDW>
0.951464

>  <SCORE.INTRA.VDW.0>
-2.38213

>  <SCORE.INTRA.norm>
-0.124925

>  <SCORE.RESTR>
0

>  <SCORE.RESTR.CAVITY>
0

>  <SCORE.RESTR.norm>
0

>  <SCORE.SYSTEM>
1.77038

>  <SCORE.SYSTEM.CONST>
0

>  <SCORE.SYSTEM.DIHEDRAL>
3.77965

>  <SCORE.SYSTEM.VDW>
-0.119446

>  <SCORE.SYSTEM.norm>
0.0843038

>  <SCORE.heavy>
21

>  <SCORE.norm>
-0.790365

>  <SMILES>
C/C(O)=N/[C@H]1[C@H](Oc2ccccc2)O[C@H](CO)[C@@H](O)[C@H]1O

>  <UniqueID>
212

$$$$
ZINC000015205814
  rDOCK(R)          3D
libRbt.so/2013.1/901 2013/11/27
 28 29  0  0  0  0  0  0  0  0999 V2000
   92.7177   19.7990 -105.2667 H   0  0  0  0  0  0
   92.1245   19.9072 -106.0781 O   0  0  0  0  0  0
   90.7364   19.7477 -106.0474 C   0  0  0  0  0  0
   90.0795   19.5617 -104.9390 N   0  0  0  0  0  0
   90.6406   19.4728 -103.5902 C   0  0  0  0  0  0
   90.1742   20.6791 -102.7421 C   0  0  0  0  0  0
   90.6510   21.8953 -103.3259 O   0  0  0  0  0  0
   90.2280   22.4675 -104.5390 C   0  0  0  0  0  0
   88.9305   22.2993 -105.0614 C   0  0  0  0  0  0
   88.5776   22.8868 -106.2799 C   0  0  0  0  0  0
   89.5055   23.6605 -106.9965 C   0  0  0  0  0  0
   89.1380   24.2621 -108.2515 N   0  3  0  0  0  0
   89.9587   24.9515 -108.8919 O   0  0  0  0  0  0
   87.8747   24.0856 -108.7682 O   0  5  0  0  0  0
   90.7952   23.8369 -106.4657 C   0  0  0  0  0  0
   91.1475   23.2472 -105.2489 C   0  0  0  0  0  0
   90.7276   20.5861 -101.4412 O   0  0  0  0  0  0
   90.2069   19.4657 -100.7440 C   0  0  0  0  0  0
   90.7140   19.5340  -99.2967 C   0  0  0  0  0  0
   92.1147   19.5170  -99.2662 O   0  0  0  0  0  0
   92.3859   18.6131  -99.5732 H   0  0  0  0  0  0
   90.6528   18.1555 -101.4384 C   0  0  0  0  0  0
   90.1117   17.0430 -100.7726 O   0  0  0  0  0  0
   90.4877   16.2362 -101.2124 H   0  0  0  0  0  0
   90.1993   18.1610 -102.9121 C   0  0  0  0  0  0
   88.7997   18.0357 -102.9930 O   0  0  0  0  0  0
   88.5602   17.1686 -102.5729 H   0  0  0  0  0  0
   89.9765   19.8030 -107.3295 C   0  0  0  0  0  0
  1  2  1  0  0  0
  2  3  1  0  0  0
  3  4  2  0  0  0
  3 28  1  0  0  0
  4  5  1  0  0  0
  5  6  1  0  0  0
  6  7  1  0  0  0
  6 17  1  0  0  0
  7  8  1  0  0  0
  8  9  2  0  0  0
  9 10  1  0  0  0
 10 11  2  0  0  0
 11 12  1  0  0  0
 11 15  1  0  0  0
 12 13  2  0  0  0
 12 14  1  0  0  0
 15 16  2  0  0  0
 16  8  1  0  0  0
 17 18  1  0  0  0
 18 19  1  0  0  0
 18 22  1  0  0  0
 19 20  1  0  0  0
 20 21  1  0  0  0
 22 23  1  0  0  0
 22 25  1  0  0  0
 23 24  1  0  0  0
 25 26  1  0  0  0
 25  5  1  0  0  0
 26 27  1  0  0  0
M  END
>  <CHROM.0>
79.99527946,148.75942986,-69.87142986

>  <CHROM.1>
6.27190640,113.71058371,69.24304402,29.31439407,-59.37001267,-67.86117692
-175.50476258,178.22440910,90.18572454,20.90426401,-104.26073058,0.89743289
1.34799820,2.85840752

>  <Energy>
42.86369644860873

>  <Genealogy>
CC(O)=N[C@H]1[C@H](Oc2ccc([N+](=O)[O-])cc2)O[C@H](CO)[C@@H](O)[C@H]1O (tautomer)
C/C(O)=N/[C@H]1[C@H](Oc2ccc([N+](=O)[O-])cc2)O[C@H](CO)[C@@H](O)[C@H]1O (cis-trans isomerization)
C/C(O)=N/[C@H]1[C@H](Oc2ccc([N+](=O)[O-])cc2)O[C@H](CO)[C@@H](O)[C@H]1O (3D coordinates assigned)
C/C(O)=N/[C@H]1[C@H](Oc2ccc([N+](=O)[O-])cc2)O[C@H](CO)[C@@H](O)[C@H]1O (nonaromatic ring conformer: 42.86369644860873 kcal/mol)

>  <Name>
ZINC000015205814

>  <RI>
3.95439e+07

>  <Rbt.Current_Directory>
/home/edward/Documentos/Virtual_Screening/rDock/2

>  <Rbt.Executable>
rbdock ($Id: //depot/dev/client3/rdock/2013.1/src/exe/rbdock.cxx#4 $)

>  <Rbt.Library>
libRbt.so (2013.1, Build901 2013/11/27)

>  <Rbt.Parameter_File>
/home/edward/anaconda3/envs/MD/share/rdock-2013.1-1/data/scripts/dock.prm

>  <Rbt.Receptor>
parameters.prm

>  <SCORE>
-19.7169

>  <SCORE.INTER>
-19.2877

>  <SCORE.INTER.CONST>
1

>  <SCORE.INTER.POLAR>
-2.55927

>  <SCORE.INTER.REPUL>
0

>  <SCORE.INTER.ROT>
4

>  <SCORE.INTER.VDW>
-19.9862

>  <SCORE.INTER.norm>
-0.803656

>  <SCORE.INTRA>
-3.65031

>  <SCORE.INTRA.DIHEDRAL>
-5.89633

>  <SCORE.INTRA.DIHEDRAL.0>
8.1983

>  <SCORE.INTRA.POLAR>
-6.41442e-06

>  <SCORE.INTRA.POLAR.0>
0

>  <SCORE.INTRA.REPUL>
0

>  <SCORE.INTRA.REPUL.0>
0

>  <SCORE.INTRA.VDW>
-0.70212

>  <SCORE.INTRA.VDW.0>
-2.81115

>  <SCORE.INTRA.norm>
-0.152096

>  <SCORE.RESTR>
0

>  <SCORE.RESTR.CAVITY>
0

>  <SCORE.RESTR.norm>
0

>  <SCORE.SYSTEM>
3.22119

>  <SCORE.SYSTEM.CONST>
0

>  <SCORE.SYSTEM.DIHEDRAL>
5.92481

>  <SCORE.SYSTEM.VDW>
0.258781

>  <SCORE.SYSTEM.norm>
0.134216

>  <SCORE.heavy>
24

>  <SCORE.norm>
-0.821536

>  <SMILES>
C/C(O)=N/[C@H]1[C@H](Oc2ccc([N+](=O)[O-])cc2)O[C@H](CO)[C@@H](O)[C@H]1O

>  <UniqueID>
214

$$$$
ZINC000015205840
  rDOCK(R)          3D
libRbt.so/2013.1/901 2013/11/27
 28 29  0  0  0  0  0  0  0  0999 V2000
   92.8744   19.4546 -105.4148 H   0  0  0  0  0  0
   92.5529   19.6924 -106.3455 O   0  0  0  0  0  0
   91.2707   19.3506 -106.7751 C   0  0  0  0  0  0
   90.3931   18.8895 -105.9352 N   0  0  0  0  0  0
   90.6499   18.6804 -104.5074 C   0  0  0  0  0  0
   89.3096   18.6403 -103.7058 C   0  0  0  0  0  0
   89.4069   19.5547 -102.6136 O   0  0  0  0  0  0
   90.2071   19.3820 -101.4712 C   0  0  0  0  0  0
   90.6296   18.1012 -101.0565 C   0  0  0  0  0  0
   91.4073   17.9468  -99.9088 C   0  0  0  0  0  0
   91.7730   19.0605  -99.1574 C   0  0  0  0  0  0
   91.3664   20.3351  -99.5527 C   0  0  0  0  0  0
   90.5858   20.5168 -100.7116 C   0  0  0  0  0  0
   90.1867   21.8493 -101.0997 N   0  3  0  0  0  0
   90.3499   22.8094 -100.3182 O   0  0  0  0  0  0
   89.6707   22.1049 -102.3493 O   0  5  0  0  0  0
   89.0126   17.3490 -103.1918 O   0  0  0  0  0  0
   89.0993   16.3778 -104.2168 C   0  0  0  0  0  0
   88.3818   15.0991 -103.7651 C   0  0  0  0  0  0
   89.1011   14.4559 -102.7447 O   0  0  0  0  0  0
   88.5814   13.6530 -102.4801 H   0  0  0  0  0  0
   90.5895   16.1142 -104.5611 C   0  0  0  0  0  0
   90.7211   15.6398 -105.8800 O   0  0  0  0  0  0
   90.3215   14.7330 -105.9204 H   0  0  0  0  0  0
   91.4536   17.3770 -104.3066 C   0  0  0  0  0  0
   92.5969   17.3616 -105.1241 O   0  0  0  0  0  0
   93.0789   16.5158 -104.9283 H   0  0  0  0  0  0
   90.8897   19.5437 -108.2071 C   0  0  0  0  0  0
  1  2  1  0  0  0
  2  3  1  0  0  0
  3  4  2  0  0  0
  3 28  1  0  0  0
  4  5  1  0  0  0
  5  6  1  0  0  0
  6  7  1  0  0  0
  6 17  1  0  0  0
  7  8  1  0  0  0
  8  9  2  0  0  0
  9 10  1  0  0  0
 10 11  2  0  0  0
 11 12  1  0  0  0
 12 13  2  0  0  0
 13 14  1  0  0  0
 13  8  1  0  0  0
 14 15  2  0  0  0
 14 16  1  0  0  0
 17 18  1  0  0  0
 18 19  1  0  0  0
 18 22  1  0  0  0
 19 20  1  0  0  0
 20 21  1  0  0  0
 22 23  1  0  0  0
 22 25  1  0  0  0
 23 24  1  0  0  0
 25 26  1  0  0  0
 25  5  1  0  0  0
 26 27  1  0  0  0
M  END
>  <CHROM.0>
-90.83794224,107.62872218,-68.48593171

>  <CHROM.1>
9.82186140,158.86401847,-70.84173344,-22.94911915,-70.24028540,178.68555549
-68.07815615,178.38017340,90.48145225,18.56080440,-103.30504136,-1.59067169
1.31470054,0.94967912

>  <Energy>
51.15983541568761

>  <Genealogy>
CC(O)=N[C@H]1[C@H](Oc2ccccc2[N+](=O)[O-])O[C@H](CO)[C@@H](O)[C@H]1O (tautomer)
C/C(O)=N\[C@H]1[C@H](Oc2ccccc2[N+](=O)[O-])O[C@H](CO)[C@@H](O)[C@H]1O (cis-trans isomerization)
C/C(O)=N\[C@H]1[C@H](Oc2ccccc2[N+](=O)[O-])O[C@H](CO)[C@@H](O)[C@H]1O (3D coordinates assigned)
C/C(O)=N\[C@H]1[C@H](Oc2ccccc2[N+](=O)[O-])O[C@H](CO)[C@@H](O)[C@H]1O (nonaromatic ring conformer: 51.15983541568761 kcal/mol)

>  <Name>
ZINC000015205840

>  <RI>
3.95439e+07

>  <Rbt.Current_Directory>
/home/edward/Documentos/Virtual_Screening/rDock/2

>  <Rbt.Executable>
rbdock ($Id: //depot/dev/client3/rdock/2013.1/src/exe/rbdock.cxx#4 $)

>  <Rbt.Library>
libRbt.so (2013.1, Build901 2013/11/27)

>  <Rbt.Parameter_File>
/home/edward/anaconda3/envs/MD/share/rdock-2013.1-1/data/scripts/dock.prm

>  <Rbt.Receptor>
parameters.prm

>  <SCORE>
-17.5742

>  <SCORE.INTER>
-19.1848

>  <SCORE.INTER.CONST>
1

>  <SCORE.INTER.POLAR>
-3.25329

>  <SCORE.INTER.REPUL>
0.735563

>  <SCORE.INTER.ROT>
4

>  <SCORE.INTER.VDW>
-21.2015

>  <SCORE.INTER.norm>
-0.799367

>  <SCORE.INTRA>
-2.99894

>  <SCORE.INTRA.DIHEDRAL>
-4.88586

>  <SCORE.INTRA.DIHEDRAL.0>
9.36959

>  <SCORE.INTRA.POLAR>
-0.166696

>  <SCORE.INTRA.POLAR.0>
0

>  <SCORE.INTRA.REPUL>
0

>  <SCORE.INTRA.REPUL.0>
0

>  <SCORE.INTRA.VDW>
0.0107633

>  <SCORE.INTRA.VDW.0>
-2.18052

>  <SCORE.INTRA.norm>
-0.124956

>  <SCORE.RESTR>
0

>  <SCORE.RESTR.CAVITY>
0

>  <SCORE.RESTR.norm>
0

>  <SCORE.SYSTEM>
4.60957

>  <SCORE.SYSTEM.CONST>
0

>  <SCORE.SYSTEM.DIHEDRAL>
10.5131

>  <SCORE.SYSTEM.VDW>
-0.646975

>  <SCORE.SYSTEM.norm>
0.192066

>  <SCORE.heavy>
24

>  <SCORE.norm>
-0.732258

>  <SMILES>
C/C(O)=N\[C@H]1[C@H](Oc2ccccc2[N+](=O)[O-])O[C@H](CO)[C@@H](O)[C@H]1O

>  <UniqueID>
216

$$$$
ZINC000015205946
  rDOCK(R)          3D
libRbt.so/2013.1/901 2013/11/27
 28 29  0  0  0  0  0  0  0  0999 V2000
   92.0726   18.9665  -98.7559 H   0  0  0  0  0  0
   91.7094   19.4492  -99.5662 O   0  0  0  0  0  0
   90.3495   19.5148  -99.8804 C   0  0  0  0  0  0
   89.9173   19.9929 -101.0118 N   0  0  0  0  0  0
   90.7359   20.5208 -102.1091 C   0  0  0  0  0  0
   90.2167   21.9104 -102.5767 C   0  0  0  0  0  0
   88.8295   22.0281 -102.3652 O   0  0  0  0  0  0
   88.6569   21.7926 -101.4164 H   0  0  0  0  0  0
   90.5110   22.1027 -104.0726 C   0  0  0  0  0  0
   90.0358   23.3504 -104.5100 O   0  0  0  0  0  0
   90.5387   24.0419 -104.0053 H   0  0  0  0  0  0
   89.8310   20.9652 -104.8878 C   0  0  0  0  0  0
   90.5424   20.7192 -106.2258 C   0  0  0  0  0  0
   91.9298   20.7721 -106.0403 O   0  0  0  0  0  0
   92.1447   20.0739 -105.3685 H   0  0  0  0  0  0
   89.6797   19.7448 -104.1647 O   0  0  0  0  0  0
   90.7620   19.5033 -103.2846 C   0  0  0  0  0  0
   90.6523   18.1616 -102.8003 O   0  0  0  0  0  0
   90.6645   16.9924 -103.5826 C   0  0  0  0  0  0
   91.4648   16.8859 -104.7393 C   0  0  0  0  0  0
   91.4494   15.7226 -105.5090 C   0  0  0  0  0  0
   90.6363   14.6532 -105.1434 C   0  0  0  0  0  0
   89.8357   14.7407 -104.0045 C   0  0  0  0  0  0
   89.8400   15.9014 -103.2081 C   0  0  0  0  0  0
   89.0120   15.9492 -102.0268 N   0  3  0  0  0  0
   89.1768   16.8285 -101.1563 O   0  0  0  0  0  0
   88.0581   14.9814 -101.8087 O   0  5  0  0  0  0
   89.3561   19.0251  -98.8817 C   0  0  0  0  0  0
  1  2  1  0  0  0
  2  3  1  0  0  0
  3  4  2  0  0  0
  3 28  1  0  0  0
  4  5  1  0  0  0
  5  6  1  0  0  0
  6  7  1  0  0  0
  6  9  1  0  0  0
  7  8  1  0  0  0
  9 10  1  0  0  0
  9 12  1  0  0  0
 10 11  1  0  0  0
 12 13  1  0  0  0
 12 16  1  0  0  0
 13 14  1  0  0  0
 14 15  1  0  0  0
 16 17  1  0  0  0
 17 18  1  0  0  0
 17  5  1  0  0  0
 18 19  1  0  0  0
 19 20  2  0  0  0
 20 21  1  0  0  0
 21 22  2  0  0  0
 22 23  1  0  0  0
 23 24  2  0  0  0
 24 25  1  0  0  0
 24 19  1  0  0  0
 25 26  2  0  0  0
 25 27  1  0  0  0
M  END
>  <CHROM.0>
-177.17974907,156.77237561,-68.81657975

>  <CHROM.1>
-171.06922773,-130.40291467,52.18017761,62.68216323,41.43786562,58.65070655
-178.87082303,35.53014458,90.20049177,18.85543463,-103.02167489,1.95271692
-1.36419218,-2.87033625

>  <Energy>
52.68764705537755

>  <Genealogy>
CC(O)=N[C@@H]1[C@H](O)[C@H](O)[C@@H](CO)O[C@@H]1Oc1ccccc1[N+](=O)[O-] (tautomer)
C/C(O)=N\[C@@H]1[C@H](O)[C@H](O)[C@@H](CO)O[C@@H]1Oc1ccccc1[N+](=O)[O-] (cis-trans isomerization)
C/C(O)=N\[C@@H]1[C@H](O)[C@H](O)[C@@H](CO)O[C@@H]1Oc1ccccc1[N+](=O)[O-] (3D coordinates assigned)
C/C(O)=N\[C@@H]1[C@H](O)[C@H](O)[C@@H](CO)O[C@@H]1Oc1ccccc1[N+](=O)[O-] (nonaromatic ring conformer: 52.68764705537755 kcal/mol)

>  <Name>
ZINC000015205946

>  <RI>
3.95439e+07

>  <Rbt.Current_Directory>
/home/edward/Documentos/Virtual_Screening/rDock/2

>  <Rbt.Executable>
rbdock ($Id: //depot/dev/client3/rdock/2013.1/src/exe/rbdock.cxx#4 $)

>  <Rbt.Library>
libRbt.so (2013.1, Build901 2013/11/27)

>  <Rbt.Parameter_File>
/home/edward/anaconda3/envs/MD/share/rdock-2013.1-1/data/scripts/dock.prm

>  <Rbt.Receptor>
parameters.prm

>  <SCORE>
-17.8465

>  <SCORE.INTER>
-18.0947

>  <SCORE.INTER.CONST>
1

>  <SCORE.INTER.POLAR>
-2.21962

>  <SCORE.INTER.REPUL>
0

>  <SCORE.INTER.ROT>
4

>  <SCORE.INTER.VDW>
-19.948

>  <SCORE.INTER.norm>
-0.753948

>  <SCORE.INTRA>
-1.57989

>  <SCORE.INTRA.DIHEDRAL>
-3.48036

>  <SCORE.INTRA.DIHEDRAL.0>
7.45588

>  <SCORE.INTRA.POLAR>
-0.0980111

>  <SCORE.INTRA.POLAR.0>
0

>  <SCORE.INTRA.REPUL>
0

>  <SCORE.INTRA.REPUL.0>
0

>  <SCORE.INTRA.VDW>
0.493525

>  <SCORE.INTRA.VDW.0>
-3.15367

>  <SCORE.INTRA.norm>
-0.0658288

>  <SCORE.RESTR>
0

>  <SCORE.RESTR.CAVITY>
0

>  <SCORE.RESTR.norm>
0

>  <SCORE.SYSTEM>
1.82814

>  <SCORE.SYSTEM.CONST>
0

>  <SCORE.SYSTEM.DIHEDRAL>
2.68437

>  <SCORE.SYSTEM.VDW>
0.485954

>  <SCORE.SYSTEM.norm>
0.0761724

>  <SCORE.heavy>
24

>  <SCORE.norm>
-0.743604

>  <SMILES>
C/C(O)=N\[C@@H]1[C@H](O)[C@H](O)[C@@H](CO)O[C@@H]1Oc1ccccc1[N+](=O)[O-]

>  <UniqueID>
218

$$$$
ZINC000015205949
  rDOCK(R)          3D
libRbt.so/2013.1/901 2013/11/27
 28 29  0  0  0  0  0  0  0  0999 V2000
   86.6622   14.5117 -106.1993 H   0  0  0  0  0  0
   85.9224   14.8470 -105.5974 O   0  0  0  0  0  0
   86.1452   15.4114 -104.3384 C   0  0  0  0  0  0
   87.2758   15.9707 -104.0138 N   0  0  0  0  0  0
   88.4527   16.1262 -104.8716 C   0  0  0  0  0  0
   89.3799   14.9136 -104.6921 C   0  0  0  0  0  0
   89.6789   14.7321 -103.3289 O   0  0  0  0  0  0
   89.9065   15.6250 -102.9599 H   0  0  0  0  0  0
   90.6708   15.1271 -105.5059 C   0  0  0  0  0  0
   91.5921   14.1025 -105.2319 O   0  0  0  0  0  0
   91.1992   13.2626 -105.5867 H   0  0  0  0  0  0
   91.2911   16.5019 -105.1617 C   0  0  0  0  0  0
   92.5541   16.7710 -105.9964 C   0  0  0  0  0  0
   92.8901   18.1335 -105.9866 O   0  0  0  0  0  0
   93.1195   18.3652 -105.0491 H   0  0  0  0  0  0
   90.3626   17.5515 -105.3964 O   0  0  0  0  0  0
   89.2172   17.4414 -104.5657 C   0  0  0  0  0  0
   89.6002   17.5321 -103.1850 O   0  0  0  0  0  0
   89.8763   18.7087 -102.4700 C   0  0  0  0  0  0
   90.4958   18.5867 -101.2220 C   0  0  0  0  0  0
   90.7846   19.7188 -100.4554 C   0  0  0  0  0  0
   90.4666   21.0026 -100.9322 C   0  0  0  0  0  0
   90.7568   22.1723 -100.1453 N   0  3  0  0  0  0
   91.2926   22.0677  -99.0223 O   0  0  0  0  0  0
   90.4452   23.4272 -100.6165 O   0  5  0  0  0  0
   89.8640   21.1267 -102.1952 C   0  0  0  0  0  0
   89.5769   19.9929 -102.9611 C   0  0  0  0  0  0
   85.0534   15.3529 -103.3237 C   0  0  0  0  0  0
  1  2  1  0  0  0
  2  3  1  0  0  0
  3  4  2  0  0  0
  3 28  1  0  0  0
  4  5  1  0  0  0
  5  6  1  0  0  0
  6  7  1  0  0  0
  6  9  1  0  0  0
  7  8  1  0  0  0
  9 10  1  0  0  0
  9 12  1  0  0  0
 10 11  1  0  0  0
 12 13  1  0  0  0
 12 16  1  0  0  0
 13 14  1  0  0  0
 14 15  1  0  0  0
 16 17  1  0  0  0
 17 18  1  0  0  0
 17  5  1  0  0  0
 18 19  1  0  0  0
 19 20  2  0  0  0
 20 21  1  0  0  0
 21 22  2  0  0  0
 22 23  1  0  0  0
 22 26  1  0  0  0
 23 24  2  0  0  0
 23 25  1  0  0  0
 26 27  2  0  0  0
 27 19  1  0  0  0
M  END
>  <CHROM.0>
-74.33794332,155.54262223,-65.10003348

>  <CHROM.1>
24.15758275,-91.16264110,-45.60555216,66.43709034,162.61181096,64.31047578
-156.73311448,-167.06373469,89.75952425,17.76149786,-103.42057740,1.83998141
-0.30331561,-2.46296119

>  <Energy>
44.86730244561036

>  <Genealogy>
CC(O)=N[C@@H]1[C@H](O)[C@H](O)[C@@H](CO)O[C@@H]1Oc1ccc([N+](=O)[O-])cc1 (tautomer)
C/C(O)=N/[C@@H]1[C@H](O)[C@H](O)[C@@H](CO)O[C@@H]1Oc1ccc([N+](=O)[O-])cc1 (cis-trans isomerization)
C/C(O)=N/[C@@H]1[C@H](O)[C@H](O)[C@@H](CO)O[C@@H]1Oc1ccc([N+](=O)[O-])cc1 (3D coordinates assigned)
C/C(O)=N/[C@@H]1[C@H](O)[C@H](O)[C@@H](CO)O[C@@H]1Oc1ccc([N+](=O)[O-])cc1 (nonaromatic ring conformer: 44.86730244561036 kcal/mol)

>  <Name>
ZINC000015205949

>  <RI>
3.95439e+07

>  <Rbt.Current_Directory>
/home/edward/Documentos/Virtual_Screening/rDock/2

>  <Rbt.Executable>
rbdock ($Id: //depot/dev/client3/rdock/2013.1/src/exe/rbdock.cxx#4 $)

>  <Rbt.Library>
libRbt.so (2013.1, Build901 2013/11/27)

>  <Rbt.Parameter_File>
/home/edward/anaconda3/envs/MD/share/rdock-2013.1-1/data/scripts/dock.prm

>  <Rbt.Receptor>
parameters.prm

>  <SCORE>
-21.9652

>  <SCORE.INTER>
-24.495

>  <SCORE.INTER.CONST>
1

>  <SCORE.INTER.POLAR>
-3.60293

>  <SCORE.INTER.REPUL>
0

>  <SCORE.INTER.ROT>
4

>  <SCORE.INTER.VDW>
-21.6451

>  <SCORE.INTER.norm>
-1.02063

>  <SCORE.INTRA>
-0.762849

>  <SCORE.INTRA.DIHEDRAL>
0.638844

>  <SCORE.INTRA.DIHEDRAL.0>
9.39772

>  <SCORE.INTRA.POLAR>
-0.868408

>  <SCORE.INTRA.POLAR.0>
0

>  <SCORE.INTRA.REPUL>
0

>  <SCORE.INTRA.REPUL.0>
0

>  <SCORE.INTRA.VDW>
1.87031

>  <SCORE.INTRA.VDW.0>
-3.7531

>  <SCORE.INTRA.norm>
-0.0317854

>  <SCORE.RESTR>
0

>  <SCORE.RESTR.CAVITY>
0

>  <SCORE.RESTR.norm>
0

>  <SCORE.SYSTEM>
3.29265

>  <SCORE.SYSTEM.CONST>
0

>  <SCORE.SYSTEM.DIHEDRAL>
3.86565

>  <SCORE.SYSTEM.VDW>
1.35982

>  <SCORE.SYSTEM.norm>
0.137194

>  <SCORE.heavy>
24

>  <SCORE.norm>
-0.915218

>  <SMILES>
C/C(O)=N/[C@@H]1[C@H](O)[C@H](O)[C@@H](CO)O[C@@H]1Oc1ccc([N+](=O)[O-])cc1

>  <UniqueID>
219

$$$$
ZINC000015205956
  rDOCK(R)          3D
libRbt.so/2013.1/901 2013/11/27
 25 26  0  0  0  0  0  0  0  0999 V2000
   93.7633   16.2853 -105.7010 H   0  0  0  0  0  0
   93.3226   17.1820 -105.8701 O   0  0  0  0  0  0
   91.9776   17.3887 -105.5774 C   0  0  0  0  0  0
   91.4705   18.5786 -105.7387 N   0  0  0  0  0  0
   90.0799   18.9853 -105.4965 C   0  0  0  0  0  0
   89.5796   19.9199 -106.6112 C   0  0  0  0  0  0
   89.7832   19.3241 -107.8668 O   0  0  0  0  0  0
   89.2867   18.4644 -107.8604 H   0  0  0  0  0  0
   90.2858   21.2874 -106.5433 C   0  0  0  0  0  0
   91.6159   21.1504 -106.9777 O   0  0  0  0  0  0
   91.9604   20.3027 -106.5922 H   0  0  0  0  0  0
   90.2646   21.8528 -105.0998 C   0  0  0  0  0  0
   88.9048   22.4617 -104.6883 C   0  0  0  0  0  0
   89.0219   23.1483 -103.4699 O   0  0  0  0  0  0
   89.3415   22.4927 -102.7969 H   0  0  0  0  0  0
   90.7450   20.9088 -104.1497 O   0  0  0  0  0  0
   89.9893   19.7077 -104.1368 C   0  0  0  0  0  0
   90.5238   18.8673 -103.1108 O   0  0  0  0  0  0
   90.6554   19.2037 -101.7529 C   0  0  0  0  0  0
   90.4556   20.5405 -101.3841 C   0  0  0  0  0  0
   90.5791   20.9357 -100.0487 C   0  0  0  0  0  0
   90.8993   19.9946  -99.0677 C   0  0  0  0  0  0
   91.0930   18.6570  -99.4208 C   0  0  0  0  0  0
   90.9699   18.2577 -100.7555 C   0  0  0  0  0  0
   91.1742   16.2311 -105.0621 C   0  0  0  0  0  0
  1  2  1  0  0  0
  2  3  1  0  0  0
  3  4  2  0  0  0
  3 25  1  0  0  0
  4  5  1  0  0  0
  5  6  1  0  0  0
  6  7  1  0  0  0
  6  9  1  0  0  0
  7  8  1  0  0  0
  9 10  1  0  0  0
  9 12  1  0  0  0
 10 11  1  0  0  0
 12 13  1  0  0  0
 12 16  1  0  0  0
 13 14  1  0  0  0
 14 15  1  0  0  0
 16 17  1  0  0  0
 17 18  1  0  0  0
 17  5  1  0  0  0
 18 19  1  0  0  0
 19 20  2  0  0  0
 20 21  1  0  0  0
 21 22  2  0  0  0
 22 23  1  0  0  0
 23 24  2  0  0  0
 24 19  1  0  0  0
M  END
>  <CHROM.0>
-178.30857046,147.78055163,-67.96701276

>  <CHROM.1>
176.10827968,-138.17466502,58.69543339,-41.15902095,-170.08017472,-58.68403782
177.50530347,-11.06320596,90.65158933,19.74993670,-104.06451439,-1.50659713
-1.14394126,1.56163514

>  <Energy>
44.29462639315299

>  <Genealogy>
CC(O)=N[C@@H]1[C@H](O)[C@H](O)[C@@H](CO)O[C@@H]1Oc1ccccc1 (tautomer)
C/C(O)=N\[C@@H]1[C@H](O)[C@H](O)[C@@H](CO)O[C@@H]1Oc1ccccc1 (cis-trans isomerization)
C/C(O)=N\[C@@H]1[C@H](O)[C@H](O)[C@@H](CO)O[C@@H]1Oc1ccccc1 (3D coordinates assigned)
C/C(O)=N\[C@@H]1[C@H](O)[C@H](O)[C@@H](CO)O[C@@H]1Oc1ccccc1 (nonaromatic ring conformer: 44.29462639315299 kcal/mol)

>  <Name>
ZINC000015205956

>  <RI>
3.95439e+07

>  <Rbt.Current_Directory>
/home/edward/Documentos/Virtual_Screening/rDock/2

>  <Rbt.Executable>
rbdock ($Id: //depot/dev/client3/rdock/2013.1/src/exe/rbdock.cxx#4 $)

>  <Rbt.Library>
libRbt.so (2013.1, Build901 2013/11/27)

>  <Rbt.Parameter_File>
/home/edward/anaconda3/envs/MD/share/rdock-2013.1-1/data/scripts/dock.prm

>  <Rbt.Receptor>
parameters.prm

>  <SCORE>
-18.9093

>  <SCORE.INTER>
-16.7757

>  <SCORE.INTER.CONST>
1

>  <SCORE.INTER.POLAR>
-2.38183

>  <SCORE.INTER.REPUL>
0.0726328

>  <SCORE.INTER.ROT>
4

>  <SCORE.INTER.VDW>
-18.4406

>  <SCORE.INTER.norm>
-0.798843

>  <SCORE.INTRA>
-4.44726

>  <SCORE.INTRA.DIHEDRAL>
-5.64662

>  <SCORE.INTRA.DIHEDRAL.0>
8.64537

>  <SCORE.INTRA.POLAR>
-0.907281

>  <SCORE.INTRA.POLAR.0>
0

>  <SCORE.INTRA.REPUL>
0

>  <SCORE.INTRA.REPUL.0>
0

>  <SCORE.INTRA.VDW>
1.4608

>  <SCORE.INTRA.VDW.0>
-2.951

>  <SCORE.INTRA.norm>
-0.211774

>  <SCORE.RESTR>
0.46677

>  <SCORE.RESTR.CAVITY>
0.46677

>  <SCORE.RESTR.norm>
0.0222272

>  <SCORE.SYSTEM>
1.84691

>  <SCORE.SYSTEM.CONST>
0

>  <SCORE.SYSTEM.DIHEDRAL>
4.32472

>  <SCORE.SYSTEM.VDW>
-0.31545

>  <SCORE.SYSTEM.norm>
0.0879482

>  <SCORE.heavy>
21

>  <SCORE.norm>
-0.900442

>  <SMILES>
C/C(O)=N\[C@@H]1[C@H](O)[C@H](O)[C@@H](CO)O[C@@H]1Oc1ccccc1

>  <UniqueID>
222

$$$$
ZINC000019893747
  rDOCK(R)          3D
libRbt.so/2013.1/901 2013/11/27
 28 29  0  0  0  0  0  0  0  0999 V2000
   84.1170   18.7628  -99.6916 H   0  0  0  0  0  0
   84.5903   19.5793 -100.0611 O   0  0  0  0  0  0
   85.6055   19.4594 -101.0053 C   0  0  0  0  0  0
   85.9615   18.2647 -101.3865 N   0  0  0  0  0  0
   86.9494   17.9336 -102.4195 C   0  0  0  0  0  0
   86.3538   16.9551 -103.4541 C   0  0  0  0  0  0
   85.8858   15.7903 -102.7923 O   0  0  0  0  0  0
   84.2325   15.9105 -102.4198 S   0  0  0  0  0  0
   84.0993   16.1321 -100.9398 O   0  0  0  0  0  0
   83.6232   17.0825 -103.1341 O   0  0  0  0  0  0
   83.3418   14.4233 -102.8387 C   0  0  0  0  0  0
   87.4701   16.5658 -104.4452 C   0  0  0  0  0  0
   87.0094   15.6165 -105.3749 O   0  0  0  0  0  0
   86.6848   14.8269 -104.8693 H   0  0  0  0  0  0
   88.7228   16.0618 -103.6743 C   0  0  0  0  0  0
   89.8716   15.7058 -104.6295 C   0  0  0  0  0  0
   89.5357   14.6071 -105.4352 O   0  0  0  0  0  0
   88.6501   14.8037 -105.8380 H   0  0  0  0  0  0
   89.1785   17.0530 -102.7673 O   0  0  0  0  0  0
   88.2023   17.3147 -101.7689 C   0  0  0  0  0  0
   88.7274   18.2492 -100.8445 O   0  0  0  0  0  0
   89.7908   17.6696 -100.1193 C   0  0  0  0  0  0
   86.2280   20.6879 -101.5463 C   0  0  0  0  0  0
   86.1778   21.8924 -100.8255 C   0  0  0  0  0  0
   86.7504   23.0533 -101.3544 C   0  0  0  0  0  0
   87.3575   23.0237 -102.6128 C   0  0  0  0  0  0
   87.3797   21.8366 -103.3503 C   0  0  0  0  0  0
   86.8068   20.6745 -102.8250 C   0  0  0  0  0  0
  1  2  1  0  0  0
  2  3  1  0  0  0
  3  4  2  0  0  0
  3 23  1  0  0  0
  4  5  1  0  0  0
  5  6  1  0  0  0
  6  7  1  0  0  0
  6 12  1  0  0  0
  7  8  1  0  0  0
  8  9  2  0  0  0
  8 10  2  0  0  0
  8 11  1  0  0  0
 12 13  1  0  0  0
 12 15  1  0  0  0
 13 14  1  0  0  0
 15 16  1  0  0  0
 15 19  1  0  0  0
 16 17  1  0  0  0
 17 18  1  0  0  0
 19 20  1  0  0  0
 20 21  1  0  0  0
 20  5  1  0  0  0
 21 22  1  0  0  0
 23 24  2  0  0  0
 24 25  1  0  0  0
 25 26  2  0  0  0
 26 27  1  0  0  0
 27 28  2  0  0  0
 28 23  1  0  0  0
M  END
>  <CHROM.0>
177.96004565,156.19270805,-73.16245277

>  <CHROM.1>
-1.58610432,22.81794997,-127.79582457,94.01099016,-106.65463999,-57.80941840
-65.72518708,50.68026571,173.66368536,86.65645750,17.81634850,-102.49633421
1.61477875,0.30842890,0.36093533

>  <Energy>
53.109003955865155

>  <Genealogy>
CO[C@@H]1O[C@H](CO)[C@@H](O)[C@@H](OS(C)(=O)=O)[C@H]1N=C(O)c1ccccc1 (tautomer)
CO[C@@H]1O[C@H](CO)[C@@H](O)[C@@H](OS(C)(=O)=O)[C@H]1/N=C(/O)c1ccccc1 (cis-trans isomerization)
CO[C@@H]1O[C@H](CO)[C@@H](O)[C@@H](OS(C)(=O)=O)[C@H]1/N=C(/O)c1ccccc1 (3D coordinates assigned)
CO[C@@H]1O[C@H](CO)[C@@H](O)[C@@H](OS(C)(=O)=O)[C@H]1/N=C(/O)c1ccccc1 (nonaromatic ring conformer: 53.109003955865155 kcal/mol)

>  <Name>
ZINC000019893747

>  <RI>
3.95439e+07

>  <Rbt.Current_Directory>
/home/edward/Documentos/Virtual_Screening/rDock/2

>  <Rbt.Executable>
rbdock ($Id: //depot/dev/client3/rdock/2013.1/src/exe/rbdock.cxx#4 $)

>  <Rbt.Library>
libRbt.so (2013.1, Build901 2013/11/27)

>  <Rbt.Parameter_File>
/home/edward/anaconda3/envs/MD/share/rdock-2013.1-1/data/scripts/dock.prm

>  <Rbt.Receptor>
parameters.prm

>  <SCORE>
-17.2357

>  <SCORE.INTER>
-12.2589

>  <SCORE.INTER.CONST>
1

>  <SCORE.INTER.POLAR>
-2.00049

>  <SCORE.INTER.REPUL>
0.0230235

>  <SCORE.INTER.ROT>
6

>  <SCORE.INTER.VDW>
-16.9723

>  <SCORE.INTER.norm>
-0.490356

>  <SCORE.INTRA>
-6.8459

>  <SCORE.INTRA.DIHEDRAL>
-16.4736

>  <SCORE.INTRA.DIHEDRAL.0>
25.0107

>  <SCORE.INTRA.POLAR>
-0.446346

>  <SCORE.INTRA.POLAR.0>
0

>  <SCORE.INTRA.REPUL>
0

>  <SCORE.INTRA.REPUL.0>
0

>  <SCORE.INTRA.VDW>
2.90848

>  <SCORE.INTRA.VDW.0>
-4.64774

>  <SCORE.INTRA.norm>
-0.273836

>  <SCORE.RESTR>
0

>  <SCORE.RESTR.CAVITY>
0

>  <SCORE.RESTR.norm>
0

>  <SCORE.SYSTEM>
1.86904

>  <SCORE.SYSTEM.CONST>
0

>  <SCORE.SYSTEM.DIHEDRAL>
2.80142

>  <SCORE.SYSTEM.VDW>
0.468334

>  <SCORE.SYSTEM.norm>
0.0747617

>  <SCORE.heavy>
25

>  <SCORE.norm>
-0.68943

>  <SMILES>
CO[C@@H]1O[C@H](CO)[C@@H](O)[C@@H](OS(C)(=O)=O)[C@H]1/N=C(/O)c1ccccc1

>  <UniqueID>
224

$$$$
ZINC000019898298
  rDOCK(R)          3D
libRbt.so/2013.1/901 2013/11/27
 25 26  0  0  0  0  0  0  0  0999 V2000
   86.2566   19.2104 -101.1482 C   0  0  0  0  0  0
   87.1477   18.2064 -101.5829 O   0  0  0  0  0  0
   86.5389   17.4174 -102.5879 C   0  0  0  0  0  0
   85.5110   16.6350 -101.9999 O   0  0  0  0  0  0
   84.8131   15.8949 -102.9876 C   0  0  0  0  0  0
   83.5978   15.2209 -102.3302 C   0  0  0  0  0  0
   82.7934   14.5793 -103.2843 O   0  0  0  0  0  0
   85.7513   14.8547 -103.6453 C   0  0  0  0  0  0
   85.0608   14.1502 -104.6458 O   0  0  0  0  0  0
   86.9782   15.5618 -104.2494 C   0  0  0  0  0  0
   86.5874   16.2964 -105.3845 O   0  0  0  0  0  0
   87.6165   16.4934 -103.1969 C   0  0  0  0  0  0
   88.7015   17.2795 -103.7970 N   0  0  0  0  0  0
   89.9672   16.6925 -104.1422 C   0  0  0  0  0  0
   90.2556   15.5395 -103.7187 O   0  0  0  0  0  0
   90.9485   17.4274 -104.9753 C   0  0  0  0  0  0
   90.6237   18.6691 -105.5544 C   0  0  0  0  0  0
   91.5572   19.3470 -106.3447 C   0  0  0  0  0  0
   92.8190   18.7932 -106.5710 C   0  0  0  0  0  0
   93.1487   17.5568 -106.0118 C   0  0  0  0  0  0
   92.2190   16.8738 -105.2215 C   0  0  0  0  0  0
   83.3978   14.0214 -103.8400 H   0  0  0  0  0  0
   85.7264   13.5667 -105.0954 H   0  0  0  0  0  0
   87.4180   16.6199 -105.8218 H   0  0  0  0  0  0
   88.5701   18.3081 -103.9271 H   0  0  0  0  0  0
  1  2  1  0  0  0
  2  3  1  0  0  0
  3  4  1  0  0  0
  4  5  1  0  0  0
  5  6  1  0  0  0
  5  8  1  0  0  0
  6  7  1  0  0  0
  7 22  1  0  0  0
  8  9  1  0  0  0
  8 10  1  0  0  0
  9 23  1  0  0  0
 10 11  1  0  0  0
 10 12  1  0  0  0
 11 24  1  0  0  0
 12 13  1  0  0  0
 12  3  1  0  0  0
 13 14  1  0  0  0
 13 25  1  0  0  0
 14 15  2  0  0  0
 14 16  1  0  0  0
 16 17  2  0  0  0
 17 18  1  0  0  0
 18 19  2  0  0  0
 19 20  1  0  0  0
 20 21  2  0  0  0
 21 16  1  0  0  0
M  END
>  <CHROM.0>
-75.91415818,153.81504448,-66.25581746

>  <CHROM.1>
-69.95781220,174.22466297,49.53092332,174.33748232,-171.50769026,164.79036203
-5.87016443,87.86794322,16.73646830,-103.91855031,3.13599069,-0.45454917
-2.43137269

>  <Energy>
41.938635285159485

>  <Genealogy>
CO[C@@H]1O[C@H](CO)[C@@H](O)[C@@H](O)[C@H]1NC(=O)c1ccccc1 (3D coordinates assigned)
CO[C@@H]1O[C@H](CO)[C@@H](O)[C@@H](O)[C@H]1NC(=O)c1ccccc1 (nonaromatic ring conformer: 41.938635285159485 kcal/mol)

>  <Name>
ZINC000019898298

>  <RI>
3.95439e+07

>  <Rbt.Current_Directory>
/home/edward/Documentos/Virtual_Screening/rDock/2

>  <Rbt.Executable>
rbdock ($Id: //depot/dev/client3/rdock/2013.1/src/exe/rbdock.cxx#4 $)

>  <Rbt.Library>
libRbt.so (2013.1, Build901 2013/11/27)

>  <Rbt.Parameter_File>
/home/edward/anaconda3/envs/MD/share/rdock-2013.1-1/data/scripts/dock.prm

>  <Rbt.Receptor>
parameters.prm

>  <SCORE>
-17.5734

>  <SCORE.INTER>
-15.9859

>  <SCORE.INTER.CONST>
1

>  <SCORE.INTER.POLAR>
-2.47983

>  <SCORE.INTER.REPUL>
0

>  <SCORE.INTER.ROT>
4

>  <SCORE.INTER.VDW>
-16.9544

>  <SCORE.INTER.norm>
-0.761232

>  <SCORE.INTRA>
-4.87412

>  <SCORE.INTRA.DIHEDRAL>
-7.16686

>  <SCORE.INTRA.DIHEDRAL.0>
10.1861

>  <SCORE.INTRA.POLAR>
-0.77358

>  <SCORE.INTRA.POLAR.0>
0

>  <SCORE.INTRA.REPUL>
0

>  <SCORE.INTRA.REPUL.0>
0

>  <SCORE.INTRA.VDW>
1.33948

>  <SCORE.INTRA.VDW.0>
-1.85163

>  <SCORE.INTRA.norm>
-0.232101

>  <SCORE.RESTR>
0.0573108

>  <SCORE.RESTR.CAVITY>
0.0573108

>  <SCORE.RESTR.norm>
0.00272909

>  <SCORE.SYSTEM>
3.22926

>  <SCORE.SYSTEM.CONST>
0

>  <SCORE.SYSTEM.DIHEDRAL>
4.3755

>  <SCORE.SYSTEM.VDW>
1.04151

>  <SCORE.SYSTEM.norm>
0.153774

>  <SCORE.heavy>
21

>  <SCORE.norm>
-0.836829

>  <SMILES>
CO[C@@H]1O[C@H](CO)[C@@H](O)[C@@H](O)[C@H]1NC(=O)c1ccccc1

>  <UniqueID>
225

$$$$
ZINC000032106887
  rDOCK(R)          3D
libRbt.so/2013.1/901 2013/11/27
 23 25  0  0  0  0  0  0  0  0999 V2000
   89.9063   23.1026 -102.6091 H   0  0  0  0  0  0
   89.2280   22.3830 -102.5240 O   0  0  0  0  0  0
   88.3858   22.4764 -103.6473 C   0  0  0  0  0  0
   89.1473   22.0458 -104.9049 C   0  0  0  0  0  0
   89.7228   20.7666 -104.7292 O   0  0  0  0  0  0
   90.3909   20.3814 -105.9248 C   0  0  0  0  0  0
   90.8957   18.9604 -105.7902 C   0  0  0  0  0  0
   91.3217   18.2430 -106.9256 C   0  0  0  0  0  0
   91.7371   16.9129 -106.8105 C   0  0  0  0  0  0
   91.7110   16.2753 -105.5686 C   0  0  0  0  0  0
   91.2586   16.9630 -104.4409 C   0  0  0  0  0  0
   90.8419   18.2933 -104.5499 C   0  0  0  0  0  0
   91.4852   21.2533 -106.1804 O   0  0  0  0  0  0
   91.0140   22.5654 -106.4214 C   0  0  0  0  0  0
   90.2444   23.0746 -105.2058 C   0  0  0  0  0  0
   89.6771   24.3450 -105.4727 O   0  0  0  0  0  0
   89.0252   24.8626 -104.3157 C   0  0  0  0  0  0
   89.9461   25.0878 -103.2590 O   0  0  0  0  0  0
   90.8243   26.1391 -103.5961 C   0  0  0  0  0  0
   87.8832   23.9237 -103.8415 C   0  0  0  0  0  0
   87.2794   24.4149 -102.6052 N   0  0  0  0  0  0
   86.1543   24.9159 -102.6007 N   0  3  0  0  0  0
   85.0309   25.4165 -102.5963 N   0  5  0  0  0  0
  1  2  1  0  0  0
  2  3  1  0  0  0
  3  4  1  0  0  0
  4  5  1  0  0  0
  5  6  1  0  0  0
  6  7  1  0  0  0
  6 13  1  0  0  0
  7  8  2  0  0  0
  8  9  1  0  0  0
  9 10  2  0  0  0
 10 11  1  0  0  0
 11 12  2  0  0  0
 12  7  1  0  0  0
 13 14  1  0  0  0
 14 15  1  0  0  0
 15 16  1  0  0  0
 15  4  1  0  0  0
 16 17  1  0  0  0
 17 18  1  0  0  0
 17 20  1  0  0  0
 18 19  1  0  0  0
 20 21  1  0  0  0
 20  3  1  0  0  0
 21 22  2  0  0  0
 22 23  2  0  0  0
M  END
>  <CHROM.0>
179.38225420,151.20712449,-68.45121641

>  <CHROM.1>
70.15008423,165.69111269,67.55313758,-128.50812710,89.68109592,21.92576099
-104.59168334,2.11048537,0.61384964,0.02071622

>  <Energy>
50.41788203122478

>  <Genealogy>
CO[C@H]1O[C@@H]2CO[C@@H](c3ccccc3)O[C@H]2[C@@H](O)[C@H]1N=[N+]=[N-] (cis-trans isomerization)
CO[C@H]1O[C@@H]2CO[C@@H](c3ccccc3)O[C@H]2[C@@H](O)[C@H]1N=[N+]=[N-] (3D coordinates assigned)
CO[C@H]1O[C@@H]2CO[C@@H](c3ccccc3)O[C@H]2[C@@H](O)[C@H]1N=[N+]=[N-] (nonaromatic ring conformer: 50.41788203122478 kcal/mol)

>  <Name>
ZINC000032106887

>  <RI>
3.95439e+07

>  <Rbt.Current_Directory>
/home/edward/Documentos/Virtual_Screening/rDock/2

>  <Rbt.Executable>
rbdock ($Id: //depot/dev/client3/rdock/2013.1/src/exe/rbdock.cxx#4 $)

>  <Rbt.Library>
libRbt.so (2013.1, Build901 2013/11/27)

>  <Rbt.Parameter_File>
/home/edward/anaconda3/envs/MD/share/rdock-2013.1-1/data/scripts/dock.prm

>  <Rbt.Receptor>
parameters.prm

>  <SCORE>
-14.6073

>  <SCORE.INTER>
-11.9291

>  <SCORE.INTER.CONST>
1

>  <SCORE.INTER.POLAR>
-2.24913

>  <SCORE.INTER.REPUL>
0.07068

>  <SCORE.INTER.ROT>
3

>  <SCORE.INTER.VDW>
-13.0355

>  <SCORE.INTER.norm>
-0.542233

>  <SCORE.INTRA>
-4.42469

>  <SCORE.INTRA.DIHEDRAL>
-4.81318

>  <SCORE.INTRA.DIHEDRAL.0>
6.43511

>  <SCORE.INTRA.POLAR>
-0.735266

>  <SCORE.INTRA.POLAR.0>
0

>  <SCORE.INTRA.REPUL>
0

>  <SCORE.INTRA.REPUL.0>
0

>  <SCORE.INTRA.VDW>
0.481806

>  <SCORE.INTRA.VDW.0>
-0.800014

>  <SCORE.INTRA.norm>
-0.201122

>  <SCORE.RESTR>
0

>  <SCORE.RESTR.CAVITY>
0

>  <SCORE.RESTR.norm>
0

>  <SCORE.SYSTEM>
1.74647

>  <SCORE.SYSTEM.CONST>
0

>  <SCORE.SYSTEM.DIHEDRAL>
3.6676

>  <SCORE.SYSTEM.VDW>
-0.0873302

>  <SCORE.SYSTEM.norm>
0.0793851

>  <SCORE.heavy>
22

>  <SCORE.norm>
-0.66397

>  <SMILES>
CO[C@H]1O[C@@H]2CO[C@@H](c3ccccc3)O[C@H]2[C@@H](O)[C@H]1N=[N+]=[N-]

>  <UniqueID>
227

$$$$
ZINC000032106889
  rDOCK(R)          3D
libRbt.so/2013.1/901 2013/11/27
 23 25  0  0  0  0  0  0  0  0999 V2000
   86.1594   14.1350 -105.3406 H   0  0  0  0  0  0
   85.8249   15.0359 -105.5909 O   0  0  0  0  0  0
   85.8353   15.8214 -104.4225 C   0  0  0  0  0  0
   87.2722   15.9634 -103.8610 C   0  0  0  0  0  0
   88.2268   15.8763 -104.9038 O   0  0  0  0  0  0
   89.5583   15.9885 -104.4102 C   0  0  0  0  0  0
   89.9338   17.4009 -103.9803 C   0  0  0  0  0  0
   89.6884   18.4959 -104.8308 C   0  0  0  0  0  0
   89.9789   19.7978 -104.4123 C   0  0  0  0  0  0
   90.4896   20.0250 -103.1326 C   0  0  0  0  0  0
   90.6987   18.9515 -102.2642 C   0  0  0  0  0  0
   90.4095   17.6478 -102.6781 C   0  0  0  0  0  0
   89.8607   14.9941 -103.4361 O   0  0  0  0  0  0
   88.9722   15.0479 -102.3376 C   0  0  0  0  0  0
   87.5321   14.8821 -102.7997 C   0  0  0  0  0  0
   86.6609   14.9461 -101.6725 O   0  0  0  0  0  0
   85.3891   15.5371 -101.9410 C   0  0  0  0  0  0
   84.4443   15.0731 -100.9943 O   0  0  0  0  0  0
   84.7437   15.5829  -99.7127 C   0  0  0  0  0  0
   84.8698   15.2192 -103.3669 C   0  0  0  0  0  0
   84.7409   13.7724 -103.5568 N   0  0  0  0  0  0
   84.9833   12.9794 -102.6462 N   0  3  0  0  0  0
   85.2250   12.1867 -101.7373 N   0  5  0  0  0  0
  1  2  1  0  0  0
  2  3  1  0  0  0
  3  4  1  0  0  0
  4  5  1  0  0  0
  5  6  1  0  0  0
  6  7  1  0  0  0
  6 13  1  0  0  0
  7  8  2  0  0  0
  8  9  1  0  0  0
  9 10  2  0  0  0
 10 11  1  0  0  0
 11 12  2  0  0  0
 12  7  1  0  0  0
 13 14  1  0  0  0
 14 15  1  0  0  0
 15 16  1  0  0  0
 15  4  1  0  0  0
 16 17  1  0  0  0
 17 18  1  0  0  0
 17 20  1  0  0  0
 18 19  1  0  0  0
 20 21  1  0  0  0
 20  3  1  0  0  0
 21 22  2  0  0  0
 22 23  2  0  0  0
M  END
>  <CHROM.0>
-74.57415490,154.25931455,-67.17152431

>  <CHROM.1>
61.45181158,-49.30429711,68.38011867,124.07019639,87.44034562,15.88195524
-103.10667641,-3.13991935,0.71460065,1.22714982

>  <Energy>
65.59287181211691

>  <Genealogy>
CO[C@H]1O[C@@H]2CO[C@H](c3ccccc3)O[C@H]2[C@@H](O)[C@H]1N=[N+]=[N-] (cis-trans isomerization)
CO[C@H]1O[C@@H]2CO[C@H](c3ccccc3)O[C@H]2[C@@H](O)[C@H]1N=[N+]=[N-] (3D coordinates assigned)
CO[C@H]1O[C@@H]2CO[C@H](c3ccccc3)O[C@H]2[C@@H](O)[C@H]1N=[N+]=[N-] (nonaromatic ring conformer: 65.59287181211691 kcal/mol)

>  <Name>
ZINC000032106889

>  <RI>
3.95439e+07

>  <Rbt.Current_Directory>
/home/edward/Documentos/Virtual_Screening/rDock/2

>  <Rbt.Executable>
rbdock ($Id: //depot/dev/client3/rdock/2013.1/src/exe/rbdock.cxx#4 $)

>  <Rbt.Library>
libRbt.so (2013.1, Build901 2013/11/27)

>  <Rbt.Parameter_File>
/home/edward/anaconda3/envs/MD/share/rdock-2013.1-1/data/scripts/dock.prm

>  <Rbt.Receptor>
parameters.prm

>  <SCORE>
-15.0207

>  <SCORE.INTER>
-16.9305

>  <SCORE.INTER.CONST>
1

>  <SCORE.INTER.POLAR>
-2.72053

>  <SCORE.INTER.REPUL>
0

>  <SCORE.INTER.ROT>
3

>  <SCORE.INTER.VDW>
-16.0807

>  <SCORE.INTER.norm>
-0.769568

>  <SCORE.INTRA>
-1.32833

>  <SCORE.INTRA.DIHEDRAL>
-5.11541

>  <SCORE.INTRA.DIHEDRAL.0>
6.26561

>  <SCORE.INTRA.POLAR>
0

>  <SCORE.INTRA.POLAR.0>
0

>  <SCORE.INTRA.REPUL>
0

>  <SCORE.INTRA.REPUL.0>
0

>  <SCORE.INTRA.VDW>
1.22937

>  <SCORE.INTRA.VDW.0>
-1.3859

>  <SCORE.INTRA.norm>
-0.0603787

>  <SCORE.RESTR>
0

>  <SCORE.RESTR.CAVITY>
0

>  <SCORE.RESTR.norm>
0

>  <SCORE.SYSTEM>
3.23813

>  <SCORE.SYSTEM.CONST>
0

>  <SCORE.SYSTEM.DIHEDRAL>
4.10382

>  <SCORE.SYSTEM.VDW>
1.18622

>  <SCORE.SYSTEM.norm>
0.147188

>  <SCORE.heavy>
22

>  <SCORE.norm>
-0.682759

>  <SMILES>
CO[C@H]1O[C@@H]2CO[C@H](c3ccccc3)O[C@H]2[C@@H](O)[C@H]1N=[N+]=[N-]

>  <UniqueID>
229

$$$$
ZINC000044021353
  rDOCK(R)          3D
libRbt.so/2013.1/901 2013/11/27
 25 26  0  0  0  0  0  0  0  0999 V2000
   83.6706   15.9061 -102.3801 C   0  0  0  0  0  0
   84.7106   15.5082 -101.4928 O   0  0  0  0  0  0
   85.0412   14.1750 -101.2073 C   0  0  0  0  0  0
   86.3687   13.7523 -101.0064 C   0  0  0  0  0  0
   86.6469   12.4114 -100.7243 C   0  0  0  0  0  0
   85.6086   11.4718 -100.6379 C   0  0  0  0  0  0
   85.9292   10.0620 -100.3400 C   0  0  0  0  0  0
   84.9967    9.1597 -100.2909 N   0  0  0  0  0  0
   85.2650    7.7482 -100.0066 C   0  0  0  0  0  0
   85.7846    7.0215 -101.2694 C   0  0  0  0  0  0
   85.1715    7.5488 -102.4221 O   0  0  0  0  0  0
   85.4843    5.5226 -101.1549 C   0  0  0  0  0  0
   85.9959    4.8560 -102.2817 O   0  0  0  0  0  0
   83.9455    5.3125 -101.0483 C   0  0  0  0  0  0
   83.5739    3.9870 -100.3627 C   0  0  0  0  0  0
   83.8263    2.9112 -101.2238 O   0  0  0  0  0  0
   83.2450    6.4003 -100.4436 O   0  0  0  0  0  0
   83.9848    7.0753  -99.4371 C   0  0  0  0  0  0
   84.3021    6.1933  -98.3883 O   0  0  0  0  0  0
   84.2832   11.8962 -100.8392 C   0  0  0  0  0  0
   84.0065   13.2370 -101.1212 C   0  0  0  0  0  0
   85.5756    7.0872 -103.2026 H   0  0  0  0  0  0
   85.4666    5.1588 -103.0646 H   0  0  0  0  0  0
   83.3272    3.1037 -102.0597 H   0  0  0  0  0  0
   83.4596    5.7358  -98.1295 H   0  0  0  0  0  0
  1  2  1  0  0  0
  2  3  1  0  0  0
  3  4  2  0  0  0
  4  5  1  0  0  0
  5  6  2  0  0  0
  6  7  1  0  0  0
  6 20  1  0  0  0
  7  8  2  0  0  0
  8  9  1  0  0  0
  9 10  1  0  0  0
 10 11  1  0  0  0
 10 12  1  0  0  0
 11 22  1  0  0  0
 12 13  1  0  0  0
 12 14  1  0  0  0
 13 23  1  0  0  0
 14 15  1  0  0  0
 14 17  1  0  0  0
 15 16  1  0  0  0
 16 24  1  0  0  0
 17 18  1  0  0  0
 18 19  1  0  0  0
 18  9  1  0  0  0
 19 25  1  0  0  0
 20 21  2  0  0  0
 21  3  1  0  0  0
M  END
>  <CHROM.0>
-179.49698103,155.37164698,-67.07423547

>  <CHROM.1>
143.35470755,-178.00700640,-79.71680835,176.81696448,-67.13484524,-73.27274308
-55.01750561,-174.72797445,84.81068166,8.98597599,-100.88829725,1.49205201
0.81933469,-0.00054610

>  <Energy>
49.05235903673406

>  <Genealogy>
COc1ccc(/C=N/[C@@H]2[C@H](O)[C@H](O)[C@@H](CO)O[C@H]2O)cc1 (3D coordinates assigned)
COc1ccc(/C=N/[C@@H]2[C@H](O)[C@H](O)[C@@H](CO)O[C@H]2O)cc1 (nonaromatic ring conformer: 49.05235903673406 kcal/mol)

>  <Name>
ZINC000044021353

>  <RI>
3.95439e+07

>  <Rbt.Current_Directory>
/home/edward/Documentos/Virtual_Screening/rDock/2

>  <Rbt.Executable>
rbdock ($Id: //depot/dev/client3/rdock/2013.1/src/exe/rbdock.cxx#4 $)

>  <Rbt.Library>
libRbt.so (2013.1, Build901 2013/11/27)

>  <Rbt.Parameter_File>
/home/edward/anaconda3/envs/MD/share/rdock-2013.1-1/data/scripts/dock.prm

>  <Rbt.Receptor>
parameters.prm

>  <SCORE>
-19.1388

>  <SCORE.INTER>
-19.4428

>  <SCORE.INTER.CONST>
1

>  <SCORE.INTER.POLAR>
-4.73391

>  <SCORE.INTER.REPUL>
0.00332611

>  <SCORE.INTER.ROT>
4

>  <SCORE.INTER.VDW>
-12.7641

>  <SCORE.INTER.norm>
-0.925848

>  <SCORE.INTRA>
-1.47267

>  <SCORE.INTRA.DIHEDRAL>
-4.19961

>  <SCORE.INTRA.DIHEDRAL.0>
9.0956

>  <SCORE.INTRA.POLAR>
0

>  <SCORE.INTRA.POLAR.0>
0

>  <SCORE.INTRA.REPUL>
0

>  <SCORE.INTRA.REPUL.0>
0

>  <SCORE.INTRA.VDW>
0.62713

>  <SCORE.INTRA.VDW.0>
-0.526836

>  <SCORE.INTRA.norm>
-0.0701273

>  <SCORE.RESTR>
0

>  <SCORE.RESTR.CAVITY>
0

>  <SCORE.RESTR.norm>
0

>  <SCORE.SYSTEM>
1.77672

>  <SCORE.SYSTEM.CONST>
0

>  <SCORE.SYSTEM.DIHEDRAL>
2.90514

>  <SCORE.SYSTEM.VDW>
0.324149

>  <SCORE.SYSTEM.norm>
0.0846057

>  <SCORE.heavy>
21

>  <SCORE.norm>
-0.911369

>  <SMILES>
COc1ccc(/C=N/[C@@H]2[C@H](O)[C@H](O)[C@@H](CO)O[C@H]2O)cc1

>  <UniqueID>
232

$$$$
ZINC000056871016
  rDOCK(R)          3D
libRbt.so/2013.1/901 2013/11/27
 20 20  0  0  0  0  0  0  0  0999 V2000
   92.5018   13.7836 -105.1960 H   0  0  0  0  0  0
   91.5027   13.8024 -105.0306 O   0  0  0  0  0  0
   90.7767   14.9902 -105.0718 C   0  0  0  0  0  0
   91.4219   16.1004 -105.2890 N   0  0  0  0  0  0
   90.8467   17.4466 -105.3882 C   0  0  0  0  0  0
   91.6368   18.2955 -106.4044 C   0  0  0  0  0  0
   93.0115   18.2295 -106.1088 O   0  0  0  0  0  0
   93.1269   18.5650 -105.1815 H   0  0  0  0  0  0
   91.1481   19.7553 -106.3578 C   0  0  0  0  0  0
   91.9851   20.5528 -107.1582 O   0  0  0  0  0  0
   91.8770   20.2440 -108.0954 H   0  0  0  0  0  0
   91.1468   20.2640 -104.8957 C   0  0  0  0  0  0
   90.5976   21.6959 -104.8120 C   0  0  0  0  0  0
   91.4524   22.5880 -105.4752 O   0  0  0  0  0  0
   91.5331   22.2627 -106.4099 H   0  0  0  0  0  0
   90.3342   19.4265 -104.0901 O   0  0  0  0  0  0
   90.8852   18.1213 -104.0033 C   0  0  0  0  0  0
   90.1029   17.3489 -103.1120 O   0  0  0  0  0  0
   90.2609   17.8227 -101.7921 C   0  0  0  0  0  0
   89.2901   14.9554 -104.8398 C   0  0  0  0  0  0
  1  2  1  0  0  0
  2  3  1  0  0  0
  3  4  2  0  0  0
  3 20  1  0  0  0
  4  5  1  0  0  0
  5  6  1  0  0  0
  6  7  1  0  0  0
  6  9  1  0  0  0
  7  8  1  0  0  0
  9 10  1  0  0  0
  9 12  1  0  0  0
 10 11  1  0  0  0
 12 13  1  0  0  0
 12 16  1  0  0  0
 13 14  1  0  0  0
 14 15  1  0  0  0
 16 17  1  0  0  0
 17 18  1  0  0  0
 17  5  1  0  0  0
 18 19  1  0  0  0
M  END
>  <CHROM.0>
-178.14905856,153.96926315,-63.86336317

>  <CHROM.1>
-2.14268653,-146.28402810,-58.62257592,64.56092913,-65.46740354,57.23480077
171.78996504,91.05399487,18.24332495,-104.99503983,-1.79495450,1.07891285
0.02579882

>  <Energy>
31.10114128229588

>  <Genealogy>
CO[C@@H]1O[C@H](CO)[C@@H](O)[C@@H](O)[C@H]1N=C(C)O (tautomer)
CO[C@@H]1O[C@H](CO)[C@@H](O)[C@@H](O)[C@H]1/N=C(/C)O (cis-trans isomerization)
CO[C@@H]1O[C@H](CO)[C@@H](O)[C@@H](O)[C@H]1/N=C(/C)O (3D coordinates assigned)
CO[C@@H]1O[C@H](CO)[C@@H](O)[C@@H](O)[C@H]1/N=C(/C)O (nonaromatic ring conformer: 31.10114128229588 kcal/mol)

>  <Name>
ZINC000056871016

>  <RI>
3.95439e+07

>  <Rbt.Current_Directory>
/home/edward/Documentos/Virtual_Screening/rDock/2

>  <Rbt.Executable>
rbdock ($Id: //depot/dev/client3/rdock/2013.1/src/exe/rbdock.cxx#4 $)

>  <Rbt.Library>
libRbt.so (2013.1, Build901 2013/11/27)

>  <Rbt.Parameter_File>
/home/edward/anaconda3/envs/MD/share/rdock-2013.1-1/data/scripts/dock.prm

>  <Rbt.Receptor>
parameters.prm

>  <SCORE>
-17.1355

>  <SCORE.INTER>
-13.1461

>  <SCORE.INTER.CONST>
1

>  <SCORE.INTER.POLAR>
-1.69072

>  <SCORE.INTER.REPUL>
0.0317359

>  <SCORE.INTER.ROT>
3

>  <SCORE.INTER.VDW>
-15.9563

>  <SCORE.INTER.norm>
-0.821629

>  <SCORE.INTRA>
-5.74589

>  <SCORE.INTRA.DIHEDRAL>
-9.16582

>  <SCORE.INTRA.DIHEDRAL.0>
10.7477

>  <SCORE.INTRA.POLAR>
-0.653204

>  <SCORE.INTRA.POLAR.0>
0

>  <SCORE.INTRA.REPUL>
0

>  <SCORE.INTRA.REPUL.0>
0

>  <SCORE.INTRA.VDW>
1.05792

>  <SCORE.INTRA.VDW.0>
-1.27324

>  <SCORE.INTRA.norm>
-0.359118

>  <SCORE.RESTR>
0

>  <SCORE.RESTR.CAVITY>
0

>  <SCORE.RESTR.norm>
0

>  <SCORE.SYSTEM>
1.75641

>  <SCORE.SYSTEM.CONST>
0

>  <SCORE.SYSTEM.DIHEDRAL>
3.225

>  <SCORE.SYSTEM.VDW>
0.143913

>  <SCORE.SYSTEM.norm>
0.109776

>  <SCORE.heavy>
16

>  <SCORE.norm>
-1.07097

>  <SMILES>
CO[C@@H]1O[C@H](CO)[C@@H](O)[C@@H](O)[C@H]1/N=C(/C)O

>  <UniqueID>
234

$$$$
ZINC000077269504
  rDOCK(R)          3D
libRbt.so/2013.1/901 2013/11/27
 25 27  0  0  0  0  0  0  0  0999 V2000
   89.4577   15.5579 -100.6797 H   0  0  0  0  0  0
   88.6286   14.9980 -100.5211 O   0  0  0  0  0  0
   87.8369   14.5631 -101.5837 C   0  0  0  0  0  0
   88.1518   14.8591 -102.8091 N   0  0  0  0  0  0
   89.3047   15.6771 -103.1927 C   0  0  0  0  0  0
   90.1340   14.9470 -104.2813 C   0  0  0  0  0  0
   89.3318   14.5590 -105.3720 O   0  0  0  0  0  0
   88.8563   15.3705 -105.6895 H   0  0  0  0  0  0
   91.2270   15.7400 -104.7282 O   0  0  0  0  0  0
   90.7699   16.9607 -105.2851 C   0  0  0  0  0  0
   91.9423   17.7721 -105.8297 C   0  0  0  0  0  0
   91.4879   19.0279 -106.2965 O   0  0  0  0  0  0
   90.8671   19.7468 -105.2396 C   0  0  0  0  0  0
   90.4456   21.0932 -105.7660 C   0  0  0  0  0  0
   90.9865   22.2772 -105.2330 C   0  0  0  0  0  0
   90.5867   23.5215 -105.7310 C   0  0  0  0  0  0
   89.6469   23.5951 -106.7623 C   0  0  0  0  0  0
   89.1045   22.4244 -107.2984 C   0  0  0  0  0  0
   89.5008   21.1780 -106.8041 C   0  0  0  0  0  0
   89.7095   19.0687 -104.7697 O   0  0  0  0  0  0
   90.0855   17.8233 -104.2166 C   0  0  0  0  0  0
   88.8606   17.0789 -103.6750 C   0  0  0  0  0  0
   87.8803   16.9770 -104.6788 O   0  0  0  0  0  0
   87.6945   17.8987 -104.9968 H   0  0  0  0  0  0
   86.6353   13.7151 -101.3173 C   0  0  0  0  0  0
  1  2  1  0  0  0
  2  3  1  0  0  0
  3  4  2  0  0  0
  3 25  1  0  0  0
  4  5  1  0  0  0
  5  6  1  0  0  0
  6  7  1  0  0  0
  6  9  1  0  0  0
  7  8  1  0  0  0
  9 10  1  0  0  0
 10 11  1  0  0  0
 11 12  1  0  0  0
 12 13  1  0  0  0
 13 14  1  0  0  0
 13 20  1  0  0  0
 14 15  2  0  0  0
 15 16  1  0  0  0
 16 17  2  0  0  0
 17 18  1  0  0  0
 18 19  2  0  0  0
 19 14  1  0  0  0
 20 21  1  0  0  0
 21 22  1  0  0  0
 21 10  1  0  0  0
 22 23  1  0  0  0
 22  5  1  0  0  0
 23 24  1  0  0  0
M  END
>  <CHROM.0>
-178.88114483,153.63654452,50.63566793

>  <CHROM.1>
0.53398497,129.29870192,53.73760196,-117.66150027,-175.36593419,89.66497590
17.93950746,-104.57113520,1.87112167,-0.73188410,2.87152439

>  <Energy>
48.03382814000505

>  <Genealogy>
CC(O)=N[C@H]1[C@@H](O)O[C@@H]2CO[C@@H](c3ccccc3)O[C@H]2[C@H]1O (tautomer)
C/C(O)=N\[C@H]1[C@@H](O)O[C@@H]2CO[C@@H](c3ccccc3)O[C@H]2[C@H]1O (cis-trans isomerization)
C/C(O)=N\[C@H]1[C@@H](O)O[C@@H]2CO[C@@H](c3ccccc3)O[C@H]2[C@H]1O (3D coordinates assigned)
C/C(O)=N\[C@H]1[C@@H](O)O[C@@H]2CO[C@@H](c3ccccc3)O[C@H]2[C@H]1O (nonaromatic ring conformer: 48.03382814000505 kcal/mol)

>  <Name>
ZINC000077269504

>  <RI>
3.95439e+07

>  <Rbt.Current_Directory>
/home/edward/Documentos/Virtual_Screening/rDock/2

>  <Rbt.Executable>
rbdock ($Id: //depot/dev/client3/rdock/2013.1/src/exe/rbdock.cxx#4 $)

>  <Rbt.Library>
libRbt.so (2013.1, Build901 2013/11/27)

>  <Rbt.Parameter_File>
/home/edward/anaconda3/envs/MD/share/rdock-2013.1-1/data/scripts/dock.prm

>  <Rbt.Receptor>
parameters.prm

>  <SCORE>
-17.5734

>  <SCORE.INTER>
-15.1511

>  <SCORE.INTER.CONST>
1

>  <SCORE.INTER.POLAR>
-2.12204

>  <SCORE.INTER.REPUL>
0.00442426

>  <SCORE.INTER.ROT>
2

>  <SCORE.INTER.VDW>
-15.3583

>  <SCORE.INTER.norm>
-0.688687

>  <SCORE.INTRA>
-4.81282

>  <SCORE.INTRA.DIHEDRAL>
-5.64888

>  <SCORE.INTRA.DIHEDRAL.0>
6.89544

>  <SCORE.INTRA.POLAR>
-0.713133

>  <SCORE.INTRA.POLAR.0>
0

>  <SCORE.INTRA.REPUL>
0

>  <SCORE.INTRA.REPUL.0>
0

>  <SCORE.INTRA.VDW>
0.436276

>  <SCORE.INTRA.VDW.0>
-1.71346

>  <SCORE.INTRA.norm>
-0.218764

>  <SCORE.RESTR>
0

>  <SCORE.RESTR.CAVITY>
0

>  <SCORE.RESTR.norm>
0

>  <SCORE.SYSTEM>
2.39056

>  <SCORE.SYSTEM.CONST>
0

>  <SCORE.SYSTEM.DIHEDRAL>
3.2183

>  <SCORE.SYSTEM.VDW>
0.781413

>  <SCORE.SYSTEM.norm>
0.108662

>  <SCORE.heavy>
22

>  <SCORE.norm>
-0.798789

>  <SMILES>
C/C(O)=N\[C@H]1[C@@H](O)O[C@@H]2CO[C@@H](c3ccccc3)O[C@H]2[C@H]1O

>  <UniqueID>
236

$$$$
ZINC000082114392
  rDOCK(R)          3D
libRbt.so/2013.1/901 2013/11/27
 19 19  0  0  0  0  0  0  0  0999 V2000
   89.9353   19.5361 -106.7087 C   0  0  0  0  0  0
   90.5407   18.3009 -106.3956 O   0  0  0  0  0  0
   90.6076   18.1328 -104.9875 C   0  0  0  0  0  0
   89.3259   17.8662 -104.4330 O   0  0  0  0  0  0
   88.7649   16.6660 -104.9456 C   0  0  0  0  0  0
   87.3380   16.5437 -104.3923 C   0  0  0  0  0  0
   86.5888   15.6423 -105.1600 O   0  0  0  0  0  0
   89.6322   15.4472 -104.5440 C   0  0  0  0  0  0
   89.0835   14.2649 -105.0682 O   0  0  0  0  0  0
   91.0727   15.6326 -105.0598 C   0  0  0  0  0  0
   91.1074   15.5277 -106.4625 O   0  0  0  0  0  0
   91.6049   17.0100 -104.6154 C   0  0  0  0  0  0
   92.9412   17.2742 -105.1663 N   0  3  0  0  0  0
   87.0738   14.7773 -105.1205 H   0  0  0  0  0  0
   89.6859   13.5244 -104.7951 H   0  0  0  0  0  0
   90.5855   16.2910 -106.8241 H   0  0  0  0  0  0
   93.6240   16.5820 -104.7807 H   0  0  0  0  0  0
   92.9209   17.1685 -106.2067 H   0  0  0  0  0  0
   93.2650   18.2393 -104.9276 H   0  0  0  0  0  0
  1  2  1  0  0  0
  2  3  1  0  0  0
  3  4  1  0  0  0
  4  5  1  0  0  0
  5  6  1  0  0  0
  5  8  1  0  0  0
  6  7  1  0  0  0
  7 14  1  0  0  0
  8  9  1  0  0  0
  8 10  1  0  0  0
  9 15  1  0  0  0
 10 11  1  0  0  0
 10 12  1  0  0  0
 11 16  1  0  0  0
 12 13  1  0  0  0
 12  3  1  0  0  0
 13 17  1  0  0  0
 13 18  1  0  0  0
 13 19  1  0  0  0
M  END
>  <CHROM.0>
-77.56059695,149.49821854,-65.86382493

>  <CHROM.1>
72.53013305,161.44517098,58.67329182,178.97346230,65.00943731,171.42187445
89.88846672,16.73355198,-105.26488553,0.53034119,0.08957290,-0.19286384

>  <Energy>
29.276905073789976

>  <Genealogy>
CO[C@H]1O[C@H](CO)[C@@H](O)[C@@H](O)[C@H]1[NH3+] (protonated)
CO[C@H]1O[C@H](CO)[C@@H](O)[C@@H](O)[C@H]1[NH3+] (3D coordinates assigned)
CO[C@H]1O[C@H](CO)[C@@H](O)[C@@H](O)[C@H]1[NH3+] (nonaromatic ring conformer: 29.276905073789976 kcal/mol)

>  <Name>
ZINC000082114392

>  <RI>
3.95439e+07

>  <Rbt.Current_Directory>
/home/edward/Documentos/Virtual_Screening/rDock/2

>  <Rbt.Executable>
rbdock ($Id: //depot/dev/client3/rdock/2013.1/src/exe/rbdock.cxx#4 $)

>  <Rbt.Library>
libRbt.so (2013.1, Build901 2013/11/27)

>  <Rbt.Parameter_File>
/home/edward/anaconda3/envs/MD/share/rdock-2013.1-1/data/scripts/dock.prm

>  <Rbt.Receptor>
parameters.prm

>  <SCORE>
-23.3102

>  <SCORE.INTER>
-21.3011

>  <SCORE.INTER.CONST>
1

>  <SCORE.INTER.POLAR>
-4.81682

>  <SCORE.INTER.REPUL>
0.00877941

>  <SCORE.INTER.ROT>
2

>  <SCORE.INTER.VDW>
-12.3678

>  <SCORE.INTER.norm>
-1.63855

>  <SCORE.INTRA>
-5.63991

>  <SCORE.INTRA.DIHEDRAL>
-2.43927

>  <SCORE.INTRA.DIHEDRAL.0>
4.76229

>  <SCORE.INTRA.POLAR>
-1.34032

>  <SCORE.INTRA.POLAR.0>
0

>  <SCORE.INTRA.REPUL>
-0.0733014

>  <SCORE.INTRA.REPUL.0>
0.0733014

>  <SCORE.INTRA.VDW>
0.503307

>  <SCORE.INTRA.VDW.0>
-0.962757

>  <SCORE.INTRA.norm>
-0.433839

>  <SCORE.RESTR>
0.341237

>  <SCORE.RESTR.CAVITY>
0.341237

>  <SCORE.RESTR.norm>
0.026249

>  <SCORE.SYSTEM>
3.28955

>  <SCORE.SYSTEM.CONST>
0

>  <SCORE.SYSTEM.DIHEDRAL>
5.42557

>  <SCORE.SYSTEM.VDW>
0.576763

>  <SCORE.SYSTEM.norm>
0.253042

>  <SCORE.heavy>
13

>  <SCORE.norm>
-1.79309

>  <SMILES>
CO[C@H]1O[C@H](CO)[C@@H](O)[C@@H](O)[C@H]1[NH3+]

>  <UniqueID>
238

$$$$
ZINC000100342293
  rDOCK(R)          3D
libRbt.so/2013.1/901 2013/11/27
 25 26  0  0  0  0  0  0  0  0999 V2000
   84.8938   16.0780  -98.1417 C   0  0  0  0  0  0
   84.4045   15.1231  -99.0777 O   0  0  0  0  0  0
   84.7367   13.7602  -99.0654 C   0  0  0  0  0  0
   85.8602   13.2627  -98.3785 C   0  0  0  0  0  0
   86.1491   11.8948  -98.3965 C   0  0  0  0  0  0
   85.3249   11.0023  -99.0981 C   0  0  0  0  0  0
   85.6509    9.5625  -99.1004 C   0  0  0  0  0  0
   84.9771    8.7262  -99.8294 N   0  0  0  0  0  0
   85.2521    7.2893  -99.8638 C   0  0  0  0  0  0
   83.9663    6.4665  -99.5627 C   0  0  0  0  0  0
   82.8141    6.9297 -100.2290 O   0  0  0  0  0  0
   84.1489    5.0721  -99.7526 O   0  0  0  0  0  0
   84.5789    4.7573 -101.0670 C   0  0  0  0  0  0
   84.6290    3.2270 -101.1983 C   0  0  0  0  0  0
   83.3428    2.6818 -101.0752 O   0  0  0  0  0  0
   85.9677    5.3780 -101.3452 C   0  0  0  0  0  0
   86.4059    5.0515 -102.6413 O   0  0  0  0  0  0
   85.8953    6.9047 -101.2120 C   0  0  0  0  0  0
   85.1756    7.4441 -102.2941 O   0  0  0  0  0  0
   84.2029   11.5012  -99.7832 C   0  0  0  0  0  0
   83.9152   12.8690  -99.7644 C   0  0  0  0  0  0
   82.6529    7.8714  -99.9752 H   0  0  0  0  0  0
   82.7842    3.1099 -101.7756 H   0  0  0  0  0  0
   85.6862    5.3176 -103.2712 H   0  0  0  0  0  0
   85.7132    7.2818 -103.1129 H   0  0  0  0  0  0
  1  2  1  0  0  0
  2  3  1  0  0  0
  3  4  2  0  0  0
  4  5  1  0  0  0
  5  6  2  0  0  0
  6  7  1  0  0  0
  6 20  1  0  0  0
  7  8  2  0  0  0
  8  9  1  0  0  0
  9 10  1  0  0  0
 10 11  1  0  0  0
 10 12  1  0  0  0
 11 22  1  0  0  0
 12 13  1  0  0  0
 13 14  1  0  0  0
 13 16  1  0  0  0
 14 15  1  0  0  0
 15 23  1  0  0  0
 16 17  1  0  0  0
 16 18  1  0  0  0
 17 24  1  0  0  0
 18 19  1  0  0  0
 18  9  1  0  0  0
 19 25  1  0  0  0
 20 21  2  0  0  0
 21  3  1  0  0  0
M  END
>  <CHROM.0>
-75.07194062,152.49040008,-65.90583646

>  <CHROM.1>
-18.41763978,-174.13331061,126.47649324,-58.33286505,64.63634217,57.09235750
53.32654789,171.40558107,84.83124818,8.66924491,-100.11390581,1.53696780
0.54424812,0.26455009

>  <Energy>
42.75587343532495

>  <Genealogy>
COc1ccc(/C=N/[C@H]2[C@@H](O)O[C@H](CO)[C@@H](O)[C@H]2O)cc1 (3D coordinates assigned)
COc1ccc(/C=N/[C@H]2[C@@H](O)O[C@H](CO)[C@@H](O)[C@H]2O)cc1 (nonaromatic ring conformer: 42.75587343532495 kcal/mol)

>  <Name>
ZINC000100342293

>  <RI>
3.95439e+07

>  <Rbt.Current_Directory>
/home/edward/Documentos/Virtual_Screening/rDock/2

>  <Rbt.Executable>
rbdock ($Id: //depot/dev/client3/rdock/2013.1/src/exe/rbdock.cxx#4 $)

>  <Rbt.Library>
libRbt.so (2013.1, Build901 2013/11/27)

>  <Rbt.Parameter_File>
/home/edward/anaconda3/envs/MD/share/rdock-2013.1-1/data/scripts/dock.prm

>  <Rbt.Receptor>
parameters.prm

>  <SCORE>
-20.4121

>  <SCORE.INTER>
-19.3741

>  <SCORE.INTER.CONST>
1

>  <SCORE.INTER.POLAR>
-4.65459

>  <SCORE.INTER.REPUL>
0.0197272

>  <SCORE.INTER.ROT>
4

>  <SCORE.INTER.VDW>
-13.0471

>  <SCORE.INTER.norm>
-0.922574

>  <SCORE.INTRA>
-4.28136

>  <SCORE.INTRA.DIHEDRAL>
-9.91886

>  <SCORE.INTRA.DIHEDRAL.0>
11.6325

>  <SCORE.INTRA.POLAR>
0.0938451

>  <SCORE.INTRA.POLAR.0>
-0.0977556

>  <SCORE.INTRA.REPUL>
0

>  <SCORE.INTRA.REPUL.0>
0

>  <SCORE.INTRA.VDW>
0.358997

>  <SCORE.INTRA.VDW.0>
-0.466596

>  <SCORE.INTRA.norm>
-0.203874

>  <SCORE.RESTR>
0

>  <SCORE.RESTR.CAVITY>
0

>  <SCORE.RESTR.norm>
0

>  <SCORE.SYSTEM>
3.24335

>  <SCORE.SYSTEM.CONST>
0

>  <SCORE.SYSTEM.DIHEDRAL>
4.51038

>  <SCORE.SYSTEM.VDW>
0.988164

>  <SCORE.SYSTEM.norm>
0.154445

>  <SCORE.heavy>
21

>  <SCORE.norm>
-0.972003

>  <SMILES>
COc1ccc(/C=N/[C@H]2[C@@H](O)O[C@H](CO)[C@@H](O)[C@H]2O)cc1

>  <UniqueID>
239

$$$$
ZINC000100656214
  rDOCK(R)          3D
libRbt.so/2013.1/901 2013/11/27
 26 27  0  0  0  0  0  0  0  0999 V2000
   88.8895   24.2048 -100.8922 H   0  0  0  0  0  0
   88.1258   24.6335 -101.4010 O   0  0  0  0  0  0
   86.9813   23.9084 -101.7318 C   0  0  0  0  0  0
   86.0036   24.4692 -102.3792 N   0  0  0  0  0  0
   86.0026   25.8546 -102.8571 C   0  0  0  0  0  0
   84.7656   26.5898 -102.3025 C   0  0  0  0  0  0
   83.5932   25.8616 -102.5811 O   0  0  0  0  0  0
   82.8733   26.2382 -102.0106 H   0  0  0  0  0  0
   84.6601   27.9912 -102.9280 C   0  0  0  0  0  0
   83.4391   28.5741 -102.5453 O   0  0  0  0  0  0
   82.7131   28.0089 -102.9184 H   0  0  0  0  0  0
   84.7583   27.8880 -104.4712 C   0  0  0  0  0  0
   84.7404   29.2739 -105.1368 C   0  0  0  0  0  0
   85.8505   30.0383 -104.7494 O   0  0  0  0  0  0
   86.6572   29.5189 -105.0046 H   0  0  0  0  0  0
   85.9717   27.2520 -104.8317 O   0  0  0  0  0  0
   85.9869   25.9009 -104.4006 C   0  0  0  0  0  0
   87.1675   25.2865 -104.8897 O   0  0  0  0  0  0
   87.0347   23.8771 -104.9492 C   0  0  0  0  0  0
   88.3348   23.2147 -105.3274 C   0  0  0  0  0  0
   88.7592   23.2108 -106.6658 C   0  0  0  0  0  0
   89.9377   22.5511 -107.0281 C   0  0  0  0  0  0
   90.6950   21.8866 -106.0593 C   0  0  0  0  0  0
   90.2751   21.8806 -104.7264 C   0  0  0  0  0  0
   89.0981   22.5404 -104.3596 C   0  0  0  0  0  0
   86.8555   22.4827 -101.3017 C   0  0  0  0  0  0
  1  2  1  0  0  0
  2  3  1  0  0  0
  3  4  2  0  0  0
  3 26  1  0  0  0
  4  5  1  0  0  0
  5  6  1  0  0  0
  6  7  1  0  0  0
  6  9  1  0  0  0
  7  8  1  0  0  0
  9 10  1  0  0  0
  9 12  1  0  0  0
 10 11  1  0  0  0
 12 13  1  0  0  0
 12 16  1  0  0  0
 13 14  1  0  0  0
 14 15  1  0  0  0
 16 17  1  0  0  0
 17 18  1  0  0  0
 17  5  1  0  0  0
 18 19  1  0  0  0
 19 20  1  0  0  0
 20 21  2  0  0  0
 21 22  1  0  0  0
 22 23  2  0  0  0
 23 24  1  0  0  0
 24 25  2  0  0  0
 25 20  1  0  0  0
M  END
>  <CHROM.0>
-178.46922986,154.45868488,-68.31056075

>  <CHROM.1>
179.65358074,-124.58117585,165.35950656,-62.80320084,62.81993912,57.94724011
83.09743683,-173.91098664,-77.85758598,86.67946736,25.35487238,-103.92591063
0.33097827,-0.83887181,2.27193968

>  <Energy>
42.480863317579264

>  <Genealogy>
CC(O)=N[C@@H]1[C@H](O)[C@H](O)[C@@H](CO)O[C@H]1OCc1ccccc1 (tautomer)
C/C(O)=N\[C@@H]1[C@H](O)[C@H](O)[C@@H](CO)O[C@H]1OCc1ccccc1 (cis-trans isomerization)
C/C(O)=N\[C@@H]1[C@H](O)[C@H](O)[C@@H](CO)O[C@H]1OCc1ccccc1 (3D coordinates assigned)
C/C(O)=N\[C@@H]1[C@H](O)[C@H](O)[C@@H](CO)O[C@H]1OCc1ccccc1 (nonaromatic ring conformer: 42.480863317579264 kcal/mol)

>  <Name>
ZINC000100656214

>  <RI>
3.95439e+07

>  <Rbt.Current_Directory>
/home/edward/Documentos/Virtual_Screening/rDock/2

>  <Rbt.Executable>
rbdock ($Id: //depot/dev/client3/rdock/2013.1/src/exe/rbdock.cxx#4 $)

>  <Rbt.Library>
libRbt.so (2013.1, Build901 2013/11/27)

>  <Rbt.Parameter_File>
/home/edward/anaconda3/envs/MD/share/rdock-2013.1-1/data/scripts/dock.prm

>  <Rbt.Receptor>
parameters.prm

>  <SCORE>
-18.1379

>  <SCORE.INTER>
-16.0826

>  <SCORE.INTER.CONST>
1

>  <SCORE.INTER.POLAR>
-2.81265

>  <SCORE.INTER.REPUL>
0

>  <SCORE.INTER.ROT>
5

>  <SCORE.INTER.VDW>
-16.9196

>  <SCORE.INTER.norm>
-0.731028

>  <SCORE.INTRA>
-3.83215

>  <SCORE.INTRA.DIHEDRAL>
-10.7756

>  <SCORE.INTRA.DIHEDRAL.0>
15.1098

>  <SCORE.INTRA.POLAR>
-0.0304677

>  <SCORE.INTRA.POLAR.0>
0

>  <SCORE.INTRA.REPUL>
0

>  <SCORE.INTRA.REPUL.0>
0

>  <SCORE.INTRA.VDW>
1.65927

>  <SCORE.INTRA.VDW.0>
-3.50005

>  <SCORE.INTRA.norm>
-0.174189

>  <SCORE.RESTR>
0.0165796

>  <SCORE.RESTR.CAVITY>
0.0165796

>  <SCORE.RESTR.norm>
0.000753618

>  <SCORE.SYSTEM>
1.76024

>  <SCORE.SYSTEM.CONST>
0

>  <SCORE.SYSTEM.DIHEDRAL>
3.07396

>  <SCORE.SYSTEM.VDW>
0.223259

>  <SCORE.SYSTEM.norm>
0.0800109

>  <SCORE.heavy>
22

>  <SCORE.norm>
-0.824452

>  <SMILES>
C/C(O)=N\[C@@H]1[C@H](O)[C@H](O)[C@@H](CO)O[C@H]1OCc1ccccc1

>  <UniqueID>
242

$$$$
ZINC000100815672
  rDOCK(R)          3D
libRbt.so/2013.1/901 2013/11/27
 29 30  0  0  0  0  0  0  0  0999 V2000
   90.3484   13.7157 -105.5482 H   0  0  0  0  0  0
   89.7630   14.4539 -105.1765 O   0  0  0  0  0  0
   90.2733   15.7255 -104.9242 C   0  0  0  0  0  0
   89.5913   16.6058 -104.2479 N   0  0  0  0  0  0
   88.2602   16.4620 -103.6393 C   0  0  0  0  0  0
   87.3357   15.5328 -104.4482 C   0  0  0  0  0  0
   87.1680   16.0196 -105.7558 O   0  0  0  0  0  0
   86.9509   16.9854 -105.6814 H   0  0  0  0  0  0
   85.9670   15.4410 -103.7381 C   0  0  0  0  0  0
   85.0506   14.7493 -104.5476 O   0  0  0  0  0  0
   85.4855   13.8948 -104.8055 H   0  0  0  0  0  0
   85.4333   16.8630 -103.4160 C   0  0  0  0  0  0
   84.1134   16.8019 -102.6347 C   0  0  0  0  0  0
   84.3315   16.3124 -101.3402 O   0  0  0  0  0  0
   83.4451   16.3092 -100.8939 H   0  0  0  0  0  0
   86.3737   17.5763 -102.6256 O   0  0  0  0  0  0
   87.5693   17.8115 -103.3526 C   0  0  0  0  0  0
   88.4432   18.5973 -102.5648 O   0  0  0  0  0  0
   87.8770   19.8677 -102.3208 C   0  0  0  0  0  0
   88.6555   20.5395 -101.2278 C   0  0  0  0  0  0
   89.6814   21.4449 -101.5467 C   0  0  0  0  0  0
   90.4348   22.0415 -100.5308 C   0  0  0  0  0  0
   90.1780   21.7293  -99.1929 C   0  0  0  0  0  0
   89.1710   20.8158  -98.8688 C   0  0  0  0  0  0
   88.4154   20.2167  -99.8817 C   0  0  0  0  0  0
   91.6203   16.0949 -105.4691 C   0  0  0  0  0  0
   91.4637   16.8231 -106.6338 F   0  0  0  0  0  0
   92.3688   14.9634 -105.7456 F   0  0  0  0  0  0
   92.2931   16.8646 -104.5389 F   0  0  0  0  0  0
  1  2  1  0  0  0
  2  3  1  0  0  0
  3  4  2  0  0  0
  3 26  1  0  0  0
  4  5  1  0  0  0
  5  6  1  0  0  0
  6  7  1  0  0  0
  6  9  1  0  0  0
  7  8  1  0  0  0
  9 10  1  0  0  0
  9 12  1  0  0  0
 10 11  1  0  0  0
 12 13  1  0  0  0
 12 16  1  0  0  0
 13 14  1  0  0  0
 14 15  1  0  0  0
 16 17  1  0  0  0
 17 18  1  0  0  0
 17  5  1  0  0  0
 18 19  1  0  0  0
 19 20  1  0  0  0
 20 21  2  0  0  0
 21 22  1  0  0  0
 22 23  2  0  0  0
 23 24  1  0  0  0
 24 25  2  0  0  0
 25 20  1  0  0  0
 26 27  1  0  0  0
 26 28  1  0  0  0
 26 29  1  0  0  0
M  END
>  <CHROM.0>
-75.07773689,154.00580020,-65.30347984

>  <CHROM.1>
-168.57883515,98.64217486,-33.02044176,-48.06765807,51.92755516,69.20397090
179.42009739,177.59822683,166.37963120,96.07874198,88.52332867,17.45669306
-103.28922216,-1.45529876,0.25947612,0.72927792

>  <Energy>
45.04426487040549

>  <Genealogy>
OC[C@H]1O[C@@H](OCc2ccccc2)[C@H](N=C(O)C(F)(F)F)[C@H](O)[C@@H]1O (tautomer)
OC[C@H]1O[C@@H](OCc2ccccc2)[C@H](/N=C(/O)C(F)(F)F)[C@H](O)[C@@H]1O (cis-trans isomerization)
OC[C@H]1O[C@@H](OCc2ccccc2)[C@H](/N=C(/O)C(F)(F)F)[C@H](O)[C@@H]1O (3D coordinates assigned)
OC[C@H]1O[C@@H](OCc2ccccc2)[C@H](/N=C(/O)C(F)(F)F)[C@H](O)[C@@H]1O (nonaromatic ring conformer: 45.04426487040549 kcal/mol)

>  <Name>
ZINC000100815672

>  <RI>
3.95439e+07

>  <Rbt.Current_Directory>
/home/edward/Documentos/Virtual_Screening/rDock/2

>  <Rbt.Executable>
rbdock ($Id: //depot/dev/client3/rdock/2013.1/src/exe/rbdock.cxx#4 $)

>  <Rbt.Library>
libRbt.so (2013.1, Build901 2013/11/27)

>  <Rbt.Parameter_File>
/home/edward/anaconda3/envs/MD/share/rdock-2013.1-1/data/scripts/dock.prm

>  <Rbt.Receptor>
parameters.prm

>  <SCORE>
-11.2875

>  <SCORE.INTER>
-14.8977

>  <SCORE.INTER.CONST>
1

>  <SCORE.INTER.POLAR>
-2.96242

>  <SCORE.INTER.REPUL>
0

>  <SCORE.INTER.ROT>
6

>  <SCORE.INTER.VDW>
-16.2255

>  <SCORE.INTER.norm>
-0.595908

>  <SCORE.INTRA>
0.373541

>  <SCORE.INTRA.DIHEDRAL>
-2.74001

>  <SCORE.INTRA.DIHEDRAL.0>
8.89591

>  <SCORE.INTRA.POLAR>
0

>  <SCORE.INTRA.POLAR.0>
0

>  <SCORE.INTRA.REPUL>
-0.0702247

>  <SCORE.INTRA.REPUL.0>
0.0702247

>  <SCORE.INTRA.VDW>
2.09467

>  <SCORE.INTRA.VDW.0>
-3.20853

>  <SCORE.INTRA.norm>
0.0149417

>  <SCORE.RESTR>
0

>  <SCORE.RESTR.CAVITY>
0

>  <SCORE.RESTR.norm>
0

>  <SCORE.SYSTEM>
3.2366

>  <SCORE.SYSTEM.CONST>
0

>  <SCORE.SYSTEM.DIHEDRAL>
4.23926

>  <SCORE.SYSTEM.VDW>
1.11697

>  <SCORE.SYSTEM.norm>
0.129464

>  <SCORE.heavy>
25

>  <SCORE.norm>
-0.451502

>  <SMILES>
OC[C@H]1O[C@@H](OCc2ccccc2)[C@H](/N=C(/O)C(F)(F)F)[C@H](O)[C@@H]1O

>  <UniqueID>
244

$$$$
ZINC000101073479
  rDOCK(R)          3D
libRbt.so/2013.1/901 2013/11/27
 25 26  0  0  0  0  0  0  0  0999 V2000
   90.6792   21.7377 -105.4727 C   0  0  0  0  0  0
   91.5436   20.6272 -105.6894 O   0  0  0  0  0  0
   91.1654   19.2863 -105.5270 C   0  0  0  0  0  0
   90.0137   19.0049 -104.7826 C   0  0  0  0  0  0
   89.5997   17.6843 -104.5868 C   0  0  0  0  0  0
   90.3580   16.6240 -105.0997 C   0  0  0  0  0  0
   89.8801   15.2403 -104.9614 C   0  0  0  0  0  0
   88.8255   14.8722 -104.2864 N   0  0  0  0  0  0
   87.7962   15.6388 -103.5615 C   0  0  0  0  0  0
   88.0827   15.7329 -102.0528 C   0  0  0  0  0  0
   88.0965   14.4535 -101.4771 O   0  0  0  0  0  0
   86.9905   16.5983 -101.3862 C   0  0  0  0  0  0
   87.1213   16.5522  -99.9880 O   0  0  0  0  0  0
   85.5844   16.0975 -101.8037 C   0  0  0  0  0  0
   84.4901   16.9939 -101.2059 C   0  0  0  0  0  0
   84.6203   18.3074 -101.6790 O   0  0  0  0  0  0
   85.4503   16.1091 -103.2182 O   0  0  0  0  0  0
   86.3451   15.1841 -103.8143 C   0  0  0  0  0  0
   86.1093   15.1511 -105.1954 O   0  0  0  0  0  0
   91.4790   16.9017 -105.8948 C   0  0  0  0  0  0
   91.8948   18.2219 -106.0913 C   0  0  0  0  0  0
   88.8372   13.9494 -101.9045 H   0  0  0  0  0  0
   88.0030   16.9536  -99.7707 H   0  0  0  0  0  0
   83.8415   18.8142 -101.3288 H   0  0  0  0  0  0
   86.6763   14.4216 -105.5589 H   0  0  0  0  0  0
  1  2  1  0  0  0
  2  3  1  0  0  0
  3  4  2  0  0  0
  4  5  1  0  0  0
  5  6  2  0  0  0
  6  7  1  0  0  0
  6 20  1  0  0  0
  7  8  2  0  0  0
  8  9  1  0  0  0
  9 10  1  0  0  0
 10 11  1  0  0  0
 10 12  1  0  0  0
 11 22  1  0  0  0
 12 13  1  0  0  0
 12 14  1  0  0  0
 13 23  1  0  0  0
 14 15  1  0  0  0
 14 17  1  0  0  0
 15 16  1  0  0  0
 16 24  1  0  0  0
 17 18  1  0  0  0
 18 19  1  0  0  0
 18  9  1  0  0  0
 19 25  1  0  0  0
 20 21  2  0  0  0
 21  3  1  0  0  0
M  END
>  <CHROM.0>
-77.15325808,153.66984329,-64.66263866

>  <CHROM.1>
-17.68632162,-6.00938203,-96.83736193,62.28478499,63.14695263,61.42688129
174.78296155,67.07840365,88.27964233,16.99829354,-103.62702205,0.38397669
0.65588451,0.09554856

>  <Energy>
53.40477815364038

>  <Genealogy>
COc1ccc(/C=N\[C@@H]2[C@H](O)[C@H](O)[C@@H](CO)O[C@H]2O)cc1 (3D coordinates assigned)
COc1ccc(/C=N\[C@@H]2[C@H](O)[C@H](O)[C@@H](CO)O[C@H]2O)cc1 (nonaromatic ring conformer: 53.40477815364038 kcal/mol)

>  <Name>
ZINC000101073479

>  <RI>
3.95439e+07

>  <Rbt.Current_Directory>
/home/edward/Documentos/Virtual_Screening/rDock/2

>  <Rbt.Executable>
rbdock ($Id: //depot/dev/client3/rdock/2013.1/src/exe/rbdock.cxx#4 $)

>  <Rbt.Library>
libRbt.so (2013.1, Build901 2013/11/27)

>  <Rbt.Parameter_File>
/home/edward/anaconda3/envs/MD/share/rdock-2013.1-1/data/scripts/dock.prm

>  <Rbt.Receptor>
parameters.prm

>  <SCORE>
-21.6606

>  <SCORE.INTER>
-18.5105

>  <SCORE.INTER.CONST>
1

>  <SCORE.INTER.POLAR>
-3.68367

>  <SCORE.INTER.REPUL>
0.0076178

>  <SCORE.INTER.ROT>
4

>  <SCORE.INTER.VDW>
-15.4241

>  <SCORE.INTER.norm>
-0.881453

>  <SCORE.INTRA>
-6.39222

>  <SCORE.INTRA.DIHEDRAL>
-17.4309

>  <SCORE.INTRA.DIHEDRAL.0>
19.246

>  <SCORE.INTRA.POLAR>
0

>  <SCORE.INTRA.POLAR.0>
0

>  <SCORE.INTRA.REPUL>
0

>  <SCORE.INTRA.REPUL.0>
0

>  <SCORE.INTRA.VDW>
2.32325

>  <SCORE.INTRA.VDW.0>
-2.09274

>  <SCORE.INTRA.norm>
-0.304392

>  <SCORE.RESTR>
0

>  <SCORE.RESTR.CAVITY>
0

>  <SCORE.RESTR.norm>
0

>  <SCORE.SYSTEM>
3.2421

>  <SCORE.SYSTEM.CONST>
0

>  <SCORE.SYSTEM.DIHEDRAL>
4.60426

>  <SCORE.SYSTEM.VDW>
0.939969

>  <SCORE.SYSTEM.norm>
0.154386

>  <SCORE.heavy>
21

>  <SCORE.norm>
-1.03146

>  <SMILES>
COc1ccc(/C=N\[C@@H]2[C@H](O)[C@H](O)[C@@H](CO)O[C@H]2O)cc1

>  <UniqueID>
245

$$$$
ZINC000101135603
  rDOCK(R)          3D
libRbt.so/2013.1/901 2013/11/27
 32 34  0  0  0  0  0  0  0  0999 V2000
   88.0015   18.1727  -99.1812 C   0  0  0  0  0  0
   87.8049   18.9629 -100.4332 C   0  0  0  0  0  0
   86.9977   19.9317 -100.4372 O   0  0  0  0  0  0
   88.5126   18.5978 -101.6269 N   0  0  0  0  0  0
   88.3116   19.2862 -102.9094 C   0  0  0  0  0  0
   88.3732   18.3025 -104.0895 C   0  0  0  0  0  0
   87.5170   17.2018 -103.8266 O   0  0  0  0  0  0
   86.1629   17.5548 -104.0078 C   0  0  0  0  0  0
   85.3157   16.3399 -103.7688 C   0  0  0  0  0  0
   84.2353   16.3984 -102.8729 C   0  0  0  0  0  0
   83.4729   15.2551 -102.6141 C   0  0  0  0  0  0
   83.7912   14.0450 -103.2370 C   0  0  0  0  0  0
   84.8764   13.9750 -104.1151 C   0  0  0  0  0  0
   85.6418   15.1158 -104.3762 C   0  0  0  0  0  0
   89.8136   17.8080 -104.3031 C   0  0  0  0  0  0
   90.1701   16.9246 -103.2690 O   0  0  0  0  0  0
   90.8128   18.9907 -104.3535 C   0  0  0  0  0  0
   90.8474   19.6917 -105.7258 C   0  0  0  0  0  0
   91.5098   20.9214 -105.6169 O   0  0  0  0  0  0
   90.6727   19.8992 -103.2637 O   0  0  0  0  0  0
   89.3572   20.4085 -103.0831 C   0  0  0  0  0  0
   88.9989   21.2555 -104.1688 O   0  0  0  0  0  0
   87.8621   22.0485 -103.8826 C   0  0  0  0  0  0
   87.5287   22.9457 -105.0453 C   0  0  0  0  0  0
   88.4290   23.0693 -106.1159 C   0  0  0  0  0  0
   88.0994   23.8532 -107.2258 C   0  0  0  0  0  0
   86.8690   24.5141 -107.2758 C   0  0  0  0  0  0
   85.9658   24.3914 -106.2162 C   0  0  0  0  0  0
   86.2916   23.6086 -105.1044 C   0  0  0  0  0  0
   89.1764   17.7914 -101.5794 H   0  0  0  0  0  0
   91.1078   16.6448 -103.4368 H   0  0  0  0  0  0
   90.9494   21.4853 -105.0229 H   0  0  0  0  0  0
  1  2  1  0  0  0
  2  3  2  0  0  0
  2  4  1  0  0  0
  4  5  1  0  0  0
  4 30  1  0  0  0
  5  6  1  0  0  0
  6  7  1  0  0  0
  6 15  1  0  0  0
  7  8  1  0  0  0
  8  9  1  0  0  0
  9 10  2  0  0  0
 10 11  1  0  0  0
 11 12  2  0  0  0
 12 13  1  0  0  0
 13 14  2  0  0  0
 14  9  1  0  0  0
 15 16  1  0  0  0
 15 17  1  0  0  0
 16 31  1  0  0  0
 17 18  1  0  0  0
 17 20  1  0  0  0
 18 19  1  0  0  0
 19 32  1  0  0  0
 20 21  1  0  0  0
 21 22  1  0  0  0
 21  5  1  0  0  0
 22 23  1  0  0  0
 23 24  1  0  0  0
 24 25  2  0  0  0
 25 26  1  0  0  0
 26 27  2  0  0  0
 27 28  1  0  0  0
 28 29  2  0  0  0
 29 24  1  0  0  0
M  END
>  <CHROM.0>
-178.76831365,153.43768785,-63.19508862

>  <CHROM.1>
-142.77484634,75.58798217,177.79512275,128.16931952,-178.97712969,165.92757633
-64.97644083,70.29038757,179.07477204,-10.15945689,87.77203264,19.28529259
-103.82564610,-1.94083291,-0.25192040,-0.47646534

>  <Energy>
64.9550597252443

>  <Genealogy>
CC(=O)N[C@@H]1[C@H](OCc2ccccc2)[C@H](O)[C@@H](CO)O[C@H]1OCc1ccccc1 (3D coordinates assigned)
CC(=O)N[C@@H]1[C@H](OCc2ccccc2)[C@H](O)[C@@H](CO)O[C@H]1OCc1ccccc1 (nonaromatic ring conformer: 64.9550597252443 kcal/mol)

>  <Name>
ZINC000101135603

>  <RI>
3.95439e+07

>  <Rbt.Current_Directory>
/home/edward/Documentos/Virtual_Screening/rDock/2

>  <Rbt.Executable>
rbdock ($Id: //depot/dev/client3/rdock/2013.1/src/exe/rbdock.cxx#4 $)

>  <Rbt.Library>
libRbt.so (2013.1, Build901 2013/11/27)

>  <Rbt.Parameter_File>
/home/edward/anaconda3/envs/MD/share/rdock-2013.1-1/data/scripts/dock.prm

>  <Rbt.Receptor>
parameters.prm

>  <SCORE>
-17.3527

>  <SCORE.INTER>
-11.3492

>  <SCORE.INTER.CONST>
1

>  <SCORE.INTER.POLAR>
-0.739815

>  <SCORE.INTER.REPUL>
0.0120472

>  <SCORE.INTER.ROT>
8

>  <SCORE.INTER.VDW>
-22.294

>  <SCORE.INTER.norm>
-0.391351

>  <SCORE.INTRA>
-7.76413

>  <SCORE.INTRA.DIHEDRAL>
-13.0805

>  <SCORE.INTRA.DIHEDRAL.0>
18.4379

>  <SCORE.INTRA.POLAR>
-1.17162

>  <SCORE.INTRA.POLAR.0>
0

>  <SCORE.INTRA.REPUL>
0

>  <SCORE.INTRA.REPUL.0>
0

>  <SCORE.INTRA.VDW>
2.75962

>  <SCORE.INTRA.VDW.0>
-5.17259

>  <SCORE.INTRA.norm>
-0.267729

>  <SCORE.RESTR>
0

>  <SCORE.RESTR.CAVITY>
0

>  <SCORE.RESTR.norm>
0

>  <SCORE.SYSTEM>
1.76055

>  <SCORE.SYSTEM.CONST>
0

>  <SCORE.SYSTEM.DIHEDRAL>
3.32894

>  <SCORE.SYSTEM.VDW>
0.0960837

>  <SCORE.SYSTEM.norm>
0.0607088

>  <SCORE.heavy>
29

>  <SCORE.norm>
-0.598371

>  <SMILES>
CC(=O)N[C@@H]1[C@H](OCc2ccccc2)[C@H](O)[C@@H](CO)O[C@H]1OCc1ccccc1

>  <UniqueID>
248

$$$$
ZINC000101136391
  rDOCK(R)          3D
libRbt.so/2013.1/901 2013/11/27
 25 26  0  0  0  0  0  0  0  0999 V2000
   92.5723   17.4074 -105.1472 N   0  3  0  0  0  0
   91.2558   17.2255 -104.5189 C   0  0  0  0  0  0
   90.7872   15.7513 -104.6163 C   0  0  0  0  0  0
   90.9884   15.2130 -105.9030 O   0  0  0  0  0  0
   89.3173   15.6072 -104.1607 C   0  0  0  0  0  0
   88.8271   14.3347 -104.4984 O   0  0  0  0  0  0
   88.4328   16.7026 -104.8034 C   0  0  0  0  0  0
   86.9845   16.6299 -104.2958 C   0  0  0  0  0  0
   86.2610   15.6375 -104.9756 O   0  0  0  0  0  0
   88.9491   17.9892 -104.5089 O   0  0  0  0  0  0
   90.2076   18.1824 -105.1333 C   0  0  0  0  0  0
   90.6278   19.5140 -104.8959 O   0  0  0  0  0  0
   89.7710   20.4388 -105.5382 C   0  0  0  0  0  0
   90.2506   21.8463 -105.3014 C   0  0  0  0  0  0
   90.9488   22.5288 -106.3107 C   0  0  0  0  0  0
   91.3719   23.8459 -106.1071 C   0  0  0  0  0  0
   91.0985   24.4903 -104.8974 C   0  0  0  0  0  0
   90.4001   23.8189 -103.8900 C   0  0  0  0  0  0
   89.9751   22.5018 -104.0896 C   0  0  0  0  0  0
   93.2542   16.7209 -104.7498 H   0  0  0  0  0  0
   92.5125   17.2745 -106.1829 H   0  0  0  0  0  0
   92.9303   18.3700 -104.9505 H   0  0  0  0  0  0
   90.5163   15.7847 -106.5594 H   0  0  0  0  0  0
   89.3961   13.6742 -104.0232 H   0  0  0  0  0  0
   86.7700   14.7907 -104.8788 H   0  0  0  0  0  0
  1  2  1  0  0  0
  1 20  1  0  0  0
  1 21  1  0  0  0
  1 22  1  0  0  0
  2  3  1  0  0  0
  3  4  1  0  0  0
  3  5  1  0  0  0
  4 23  1  0  0  0
  5  6  1  0  0  0
  5  7  1  0  0  0
  6 24  1  0  0  0
  7  8  1  0  0  0
  7 10  1  0  0  0
  8  9  1  0  0  0
  9 25  1  0  0  0
 10 11  1  0  0  0
 11 12  1  0  0  0
 11  2  1  0  0  0
 12 13  1  0  0  0
 13 14  1  0  0  0
 14 15  2  0  0  0
 15 16  1  0  0  0
 16 17  2  0  0  0
 17 18  1  0  0  0
 18 19  2  0  0  0
 19 14  1  0  0  0
M  END
>  <CHROM.0>
-176.21344904,154.20884714,-169.50027646

>  <CHROM.1>
-53.11122663,-56.65845126,60.60183349,-80.92098166,54.72444905,174.76983725
-178.70432982,102.05252407,89.92162109,18.71520438,-104.93357628,-1.80951750
0.16679069,-0.00608732

>  <Energy>
42.11744204521355

>  <Genealogy>
[NH3+][C@@H]1[C@H](O)[C@H](O)[C@@H](CO)O[C@H]1OCc1ccccc1 (protonated)
[NH3+][C@@H]1[C@H](O)[C@H](O)[C@@H](CO)O[C@H]1OCc1ccccc1 (3D coordinates assigned)
[NH3+][C@@H]1[C@H](O)[C@H](O)[C@@H](CO)O[C@H]1OCc1ccccc1 (nonaromatic ring conformer: 42.11744204521355 kcal/mol)

>  <Name>
ZINC000101136391

>  <RI>
3.95439e+07

>  <Rbt.Current_Directory>
/home/edward/Documentos/Virtual_Screening/rDock/2

>  <Rbt.Executable>
rbdock ($Id: //depot/dev/client3/rdock/2013.1/src/exe/rbdock.cxx#4 $)

>  <Rbt.Library>
libRbt.so (2013.1, Build901 2013/11/27)

>  <Rbt.Parameter_File>
/home/edward/anaconda3/envs/MD/share/rdock-2013.1-1/data/scripts/dock.prm

>  <Rbt.Receptor>
parameters.prm

>  <SCORE>
-25.0833

>  <SCORE.INTER>
-23.3114

>  <SCORE.INTER.CONST>
1

>  <SCORE.INTER.POLAR>
-4.63767

>  <SCORE.INTER.REPUL>
0

>  <SCORE.INTER.ROT>
4

>  <SCORE.INTER.VDW>
-16.9433

>  <SCORE.INTER.norm>
-1.22692

>  <SCORE.INTRA>
-5.4268

>  <SCORE.INTRA.DIHEDRAL>
-8.65573

>  <SCORE.INTRA.DIHEDRAL.0>
11.3884

>  <SCORE.INTRA.POLAR>
-0.675182

>  <SCORE.INTRA.POLAR.0>
0

>  <SCORE.INTRA.REPUL>
0

>  <SCORE.INTRA.REPUL.0>
0

>  <SCORE.INTRA.VDW>
1.19669

>  <SCORE.INTRA.VDW.0>
-2.3355

>  <SCORE.INTRA.norm>
-0.285621

>  <SCORE.RESTR>
0

>  <SCORE.RESTR.CAVITY>
0

>  <SCORE.RESTR.norm>
0

>  <SCORE.SYSTEM>
3.65486

>  <SCORE.SYSTEM.CONST>
0

>  <SCORE.SYSTEM.DIHEDRAL>
3.90755

>  <SCORE.SYSTEM.VDW>
1.70108

>  <SCORE.SYSTEM.norm>
0.192361

>  <SCORE.heavy>
19

>  <SCORE.norm>
-1.32018

>  <SMILES>
[NH3+][C@@H]1[C@H](O)[C@H](O)[C@@H](CO)O[C@H]1OCc1ccccc1

>  <UniqueID>
250

$$$$
ZINC000101178654
  rDOCK(R)          3D
libRbt.so/2013.1/901 2013/11/27
 22 22  0  0  0  0  0  0  0  0999 V2000
   91.3334   17.3863 -102.6446 H   0  0  0  0  0  0
   90.3425   17.2359 -102.7901 O   0  0  0  0  0  0
   89.5757   18.1390 -103.5259 C   0  0  0  0  0  0
   88.3030   17.9418 -103.7014 N   0  0  0  0  0  0
   87.5425   16.8246 -103.1339 C   0  0  0  0  0  0
   86.7751   16.1012 -104.2585 C   0  0  0  0  0  0
   86.0208   17.0235 -105.0083 O   0  0  0  0  0  0
   86.6586   17.6840 -105.3856 H   0  0  0  0  0  0
   85.8426   15.0389 -103.6464 C   0  0  0  0  0  0
   85.0568   14.4295 -104.6426 O   0  0  0  0  0  0
   85.6635   13.9263 -105.2459 H   0  0  0  0  0  0
   84.9754   15.6666 -102.5247 C   0  0  0  0  0  0
   84.0928   14.6008 -101.8595 C   0  0  0  0  0  0
   83.0930   14.1716 -102.7441 O   0  0  0  0  0  0
   83.5536   13.8797 -103.5738 H   0  0  0  0  0  0
   85.8091   16.2417 -101.5328 O   0  0  0  0  0  0
   86.5497   17.3304 -102.0624 C   0  0  0  0  0  0
   87.2839   17.9276 -101.0106 O   0  0  0  0  0  0
   87.6994   19.2402 -101.3473 C   0  0  0  0  0  0
   88.8281   19.6744 -100.4075 C   0  0  0  0  0  0
   86.5027   20.1787 -101.2011 C   0  0  0  0  0  0
   90.2287   19.3276 -104.1535 C   0  0  0  0  0  0
  1  2  1  0  0  0
  2  3  1  0  0  0
  3  4  2  0  0  0
  3 22  1  0  0  0
  4  5  1  0  0  0
  5  6  1  0  0  0
  6  7  1  0  0  0
  6  9  1  0  0  0
  7  8  1  0  0  0
  9 10  1  0  0  0
  9 12  1  0  0  0
 10 11  1  0  0  0
 12 13  1  0  0  0
 12 16  1  0  0  0
 13 14  1  0  0  0
 14 15  1  0  0  0
 16 17  1  0  0  0
 17 18  1  0  0  0
 17  5  1  0  0  0
 18 19  1  0  0  0
 19 20  1  0  0  0
 19 21  1  0  0  0
M  END
>  <CHROM.0>
-179.40978258,153.48970999,-69.03798491

>  <CHROM.1>
-179.61950267,-127.08617998,59.32891794,65.30927666,-69.63239478,54.24417705
79.06146045,-162.37895214,86.89292858,17.03083649,-102.76694867,-0.53047876
-0.55065132,-2.20977680

>  <Energy>
31.743347536659584

>  <Genealogy>
CC(O)=N[C@@H]1[C@H](O)[C@H](O)[C@@H](CO)O[C@H]1OC(C)C (tautomer)
C/C(O)=N/[C@@H]1[C@H](O)[C@H](O)[C@@H](CO)O[C@H]1OC(C)C (cis-trans isomerization)
C/C(O)=N/[C@@H]1[C@H](O)[C@H](O)[C@@H](CO)O[C@H]1OC(C)C (3D coordinates assigned)
C/C(O)=N/[C@@H]1[C@H](O)[C@H](O)[C@@H](CO)O[C@H]1OC(C)C (nonaromatic ring conformer: 31.743347536659584 kcal/mol)

>  <Name>
ZINC000101178654

>  <RI>
3.95439e+07

>  <Rbt.Current_Directory>
/home/edward/Documentos/Virtual_Screening/rDock/2

>  <Rbt.Executable>
rbdock ($Id: //depot/dev/client3/rdock/2013.1/src/exe/rbdock.cxx#4 $)

>  <Rbt.Library>
libRbt.so (2013.1, Build901 2013/11/27)

>  <Rbt.Parameter_File>
/home/edward/anaconda3/envs/MD/share/rdock-2013.1-1/data/scripts/dock.prm

>  <Rbt.Receptor>
parameters.prm

>  <SCORE>
-15.7708

>  <SCORE.INTER>
-11.9982

>  <SCORE.INTER.CONST>
1

>  <SCORE.INTER.POLAR>
-3.01927

>  <SCORE.INTER.REPUL>
0

>  <SCORE.INTER.ROT>
4

>  <SCORE.INTER.VDW>
-11.1326

>  <SCORE.INTER.norm>
-0.666564

>  <SCORE.INTRA>
-5.51521

>  <SCORE.INTRA.DIHEDRAL>
-8.85419

>  <SCORE.INTRA.DIHEDRAL.0>
12.7045

>  <SCORE.INTRA.POLAR>
-0.804313

>  <SCORE.INTRA.POLAR.0>
0

>  <SCORE.INTRA.REPUL>
0

>  <SCORE.INTRA.REPUL.0>
0

>  <SCORE.INTRA.VDW>
1.64655

>  <SCORE.INTRA.VDW.0>
-2.34268

>  <SCORE.INTRA.norm>
-0.306401

>  <SCORE.RESTR>
0

>  <SCORE.RESTR.CAVITY>
0

>  <SCORE.RESTR.norm>
0

>  <SCORE.SYSTEM>
1.74254

>  <SCORE.SYSTEM.CONST>
0

>  <SCORE.SYSTEM.DIHEDRAL>
3.24089

>  <SCORE.SYSTEM.VDW>
0.122099

>  <SCORE.SYSTEM.norm>
0.096808

>  <SCORE.heavy>
18

>  <SCORE.norm>
-0.876157

>  <SMILES>
C/C(O)=N/[C@@H]1[C@H](O)[C@H](O)[C@@H](CO)O[C@H]1OC(C)C

>  <UniqueID>
251

$$$$
ZINC000101361998
  rDOCK(R)          3D
libRbt.so/2013.1/901 2013/11/27
 33 35  0  0  0  0  0  0  0  0999 V2000
   86.3241   18.7924 -103.5580 O   0  0  0  0  0  0
   86.3838   18.0070 -102.5720 C   0  0  0  0  0  0
   87.1963   16.8284 -102.6322 N   0  0  0  0  0  0
   88.0851   16.5323 -103.7629 C   0  0  0  0  0  0
   88.5094   15.0491 -103.7569 C   0  0  0  0  0  0
   89.0527   14.6960 -102.5070 O   0  0  0  0  0  0
   89.5573   14.8163 -104.8634 C   0  0  0  0  0  0
   90.0448   13.4966 -104.8194 O   0  0  0  0  0  0
   90.6993   15.8629 -104.7573 C   0  0  0  0  0  0
   91.7085   15.6844 -105.9001 C   0  0  0  0  0  0
   92.1088   14.3434 -105.9915 O   0  0  0  0  0  0
   90.1643   17.1752 -104.8287 O   0  0  0  0  0  0
   89.3286   17.4399 -103.7129 C   0  0  0  0  0  0
   88.8969   18.7876 -103.7738 O   0  0  0  0  0  0
   89.9240   19.6668 -103.3561 C   0  0  0  0  0  0
   90.1160   19.5840 -101.8643 C   0  0  0  0  0  0
   89.5872   20.5833 -101.0314 C   0  0  0  0  0  0
   89.7406   20.4958  -99.6438 C   0  0  0  0  0  0
   90.4180   19.4109  -99.0803 C   0  0  0  0  0  0
   90.9424   18.4104  -99.9032 C   0  0  0  0  0  0
   90.7918   18.4939 -101.2908 C   0  0  0  0  0  0
   85.6509   18.2720 -101.4094 O   0  0  0  0  0  0
   85.4574   17.3147 -100.3696 C   0  0  0  0  0  0
   84.7683   16.0913 -100.9092 C   0  0  0  0  0  0
   84.1223   16.1419 -102.1551 C   0  0  0  0  0  0
   83.5106   14.9983 -102.6788 C   0  0  0  0  0  0
   83.5478   13.7962 -101.9676 C   0  0  0  0  0  0
   84.1948   13.7360 -100.7299 C   0  0  0  0  0  0
   84.8048   14.8780 -100.2011 C   0  0  0  0  0  0
   87.2797   16.2600 -101.7593 H   0  0  0  0  0  0
   88.2940   14.5991 -101.8737 H   0  0  0  0  0  0
   90.7841   13.4213 -105.4779 H   0  0  0  0  0  0
   92.7115   14.2768 -106.7772 H   0  0  0  0  0  0
  1  2  2  0  0  0
  2  3  1  0  0  0
  2 22  1  0  0  0
  3  4  1  0  0  0
  3 30  1  0  0  0
  4  5  1  0  0  0
  5  6  1  0  0  0
  5  7  1  0  0  0
  6 31  1  0  0  0
  7  8  1  0  0  0
  7  9  1  0  0  0
  8 32  1  0  0  0
  9 10  1  0  0  0
  9 12  1  0  0  0
 10 11  1  0  0  0
 11 33  1  0  0  0
 12 13  1  0  0  0
 13 14  1  0  0  0
 13  4  1  0  0  0
 14 15  1  0  0  0
 15 16  1  0  0  0
 16 17  2  0  0  0
 17 18  1  0  0  0
 18 19  2  0  0  0
 19 20  1  0  0  0
 20 21  2  0  0  0
 21 16  1  0  0  0
 22 23  1  0  0  0
 23 24  1  0  0  0
 24 25  2  0  0  0
 25 26  1  0  0  0
 26 27  2  0  0  0
 27 28  1  0  0  0
 28 29  2  0  0  0
 29 24  1  0  0  0
M  END
>  <CHROM.0>
-168.54089837,152.90055038,-62.70759375

>  <CHROM.1>
167.15784191,-163.58080605,75.91674263,-173.79722987,-50.12764593,176.47870788
163.33281761,-72.77751626,-101.98971297,-59.09901788,-15.88974613,88.19372498
16.83139727,-102.64436200,-3.07019745,-0.40911420,-2.49936789

>  <Energy>
52.246052377055214

>  <Genealogy>
O=C(N[C@@H]1[C@H](O)[C@H](O)[C@@H](CO)O[C@H]1OCc1ccccc1)OCc1ccccc1 (3D coordinates assigned)
O=C(N[C@@H]1[C@H](O)[C@H](O)[C@@H](CO)O[C@H]1OCc1ccccc1)OCc1ccccc1 (nonaromatic ring conformer: 52.246052377055214 kcal/mol)

>  <Name>
ZINC000101361998

>  <RI>
3.95439e+07

>  <Rbt.Current_Directory>
/home/edward/Documentos/Virtual_Screening/rDock/2

>  <Rbt.Executable>
rbdock ($Id: //depot/dev/client3/rdock/2013.1/src/exe/rbdock.cxx#4 $)

>  <Rbt.Library>
libRbt.so (2013.1, Build901 2013/11/27)

>  <Rbt.Parameter_File>
/home/edward/anaconda3/envs/MD/share/rdock-2013.1-1/data/scripts/dock.prm

>  <Rbt.Receptor>
parameters.prm

>  <SCORE>
-14.5043

>  <SCORE.INTER>
-13.3967

>  <SCORE.INTER.CONST>
1

>  <SCORE.INTER.POLAR>
-0.771754

>  <SCORE.INTER.REPUL>
0.195213

>  <SCORE.INTER.ROT>
8

>  <SCORE.INTER.VDW>
-25.1488

>  <SCORE.INTER.norm>
-0.461957

>  <SCORE.INTRA>
-3.34253

>  <SCORE.INTRA.DIHEDRAL>
-8.15456

>  <SCORE.INTRA.DIHEDRAL.0>
15.4625

>  <SCORE.INTRA.POLAR>
-0.758227

>  <SCORE.INTRA.POLAR.0>
0

>  <SCORE.INTRA.REPUL>
0

>  <SCORE.INTRA.REPUL.0>
0

>  <SCORE.INTRA.VDW>
3.31273

>  <SCORE.INTRA.VDW.0>
-4.77274

>  <SCORE.INTRA.norm>
-0.11526

>  <SCORE.RESTR>
0.150153

>  <SCORE.RESTR.CAVITY>
0.150153

>  <SCORE.RESTR.norm>
0.00517769

>  <SCORE.SYSTEM>
2.08481

>  <SCORE.SYSTEM.CONST>
0

>  <SCORE.SYSTEM.DIHEDRAL>
4.0621

>  <SCORE.SYSTEM.VDW>
0.0537652

>  <SCORE.SYSTEM.norm>
0.0718901

>  <SCORE.heavy>
29

>  <SCORE.norm>
-0.500148

>  <SMILES>
O=C(N[C@@H]1[C@H](O)[C@H](O)[C@@H](CO)O[C@H]1OCc1ccccc1)OCc1ccccc1

>  <UniqueID>
253

$$$$
ZINC000102205030
  rDOCK(R)          3D
libRbt.so/2013.1/901 2013/11/27
 24 24  0  0  0  0  0  0  0  0999 V2000
   89.8906   18.1818 -107.3971 H   0  0  0  0  0  0
   90.0081   19.1419 -107.0990 O   0  0  0  0  0  0
   91.2751   19.6965 -106.9288 C   0  0  0  0  0  0
   91.4119   20.9212 -106.5160 N   0  0  0  0  0  0
   90.2952   21.8143 -106.1938 C   0  0  0  0  0  0
   90.3225   23.0701 -107.0874 C   0  0  0  0  0  0
   91.5994   23.6588 -107.0385 O   0  0  0  0  0  0
   92.2486   22.9676 -107.3311 H   0  0  0  0  0  0
   89.2491   24.0703 -106.6093 C   0  0  0  0  0  0
   89.3761   25.2880 -107.2978 O   0  0  0  0  0  0
   89.2370   25.0879 -108.2609 H   0  0  0  0  0  0
   89.3881   24.3055 -105.0861 C   0  0  0  0  0  0
   88.3088   25.2632 -104.5571 C   0  0  0  0  0  0
   88.5386   26.5731 -105.0000 O   0  0  0  0  0  0
   88.5967   26.5358 -105.9906 H   0  0  0  0  0  0
   89.2863   23.0761 -104.3861 O   0  0  0  0  0  0
   90.3753   22.2240 -104.7118 C   0  0  0  0  0  0
   90.3150   21.0508 -103.9233 O   0  0  0  0  0  0
   90.4941   21.3481 -102.5502 C   0  0  0  0  0  0
   90.5486   20.0426 -101.7564 C   0  0  0  0  0  0
   90.7491   20.3039 -100.3348 N   0  0  0  0  0  0
   91.6271   19.7181  -99.7011 N   0  3  0  0  0  0
   92.5023   19.1314  -99.0670 N   0  5  0  0  0  0
   92.4897   18.8850 -107.2416 C   0  0  0  0  0  0
  1  2  1  0  0  0
  2  3  1  0  0  0
  3  4  2  0  0  0
  3 24  1  0  0  0
  4  5  1  0  0  0
  5  6  1  0  0  0
  6  7  1  0  0  0
  6  9  1  0  0  0
  7  8  1  0  0  0
  9 10  1  0  0  0
  9 12  1  0  0  0
 10 11  1  0  0  0
 12 13  1  0  0  0
 12 16  1  0  0  0
 13 14  1  0  0  0
 14 15  1  0  0  0
 16 17  1  0  0  0
 17 18  1  0  0  0
 17  5  1  0  0  0
 18 19  1  0  0  0
 19 20  1  0  0  0
 20 21  1  0  0  0
 21 22  2  0  0  0
 22 23  2  0  0  0
M  END
>  <CHROM.0>
-178.36355362,151.69104689,-65.26913843

>  <CHROM.1>
-178.41047158,-119.91904569,57.54277250,61.14173800,-70.66851034,55.05691934
175.19683389,-174.89105457,179.30689412,-130.01634810,90.38891350,22.02924348
-104.70844068,-0.89330761,1.16228363,-1.50390981

>  <Energy>
30.876726622235704

>  <Genealogy>
CC(O)=N[C@@H]1[C@H](O)[C@H](O)[C@@H](CO)O[C@H]1OCCN=[N+]=[N-] (tautomer)
C/C(O)=N\[C@@H]1[C@H](O)[C@H](O)[C@@H](CO)O[C@H]1OCCN=[N+]=[N-] (cis-trans isomerization)
C/C(O)=N\[C@@H]1[C@H](O)[C@H](O)[C@@H](CO)O[C@H]1OCCN=[N+]=[N-] (3D coordinates assigned)
C/C(O)=N\[C@@H]1[C@H](O)[C@H](O)[C@@H](CO)O[C@H]1OCCN=[N+]=[N-] (nonaromatic ring conformer: 30.876726622235704 kcal/mol)

>  <Name>
ZINC000102205030

>  <RI>
3.95439e+07

>  <Rbt.Current_Directory>
/home/edward/Documentos/Virtual_Screening/rDock/2

>  <Rbt.Executable>
rbdock ($Id: //depot/dev/client3/rdock/2013.1/src/exe/rbdock.cxx#4 $)

>  <Rbt.Library>
libRbt.so (2013.1, Build901 2013/11/27)

>  <Rbt.Parameter_File>
/home/edward/anaconda3/envs/MD/share/rdock-2013.1-1/data/scripts/dock.prm

>  <Rbt.Receptor>
parameters.prm

>  <SCORE>
-22.0439

>  <SCORE.INTER>
-13.9275

>  <SCORE.INTER.CONST>
1

>  <SCORE.INTER.POLAR>
-2.99283

>  <SCORE.INTER.REPUL>
0.00488388

>  <SCORE.INTER.ROT>
6

>  <SCORE.INTER.VDW>
-15.1763

>  <SCORE.INTER.norm>
-0.696375

>  <SCORE.INTRA>
-9.87663

>  <SCORE.INTRA.DIHEDRAL>
-15.6029

>  <SCORE.INTRA.DIHEDRAL.0>
16.609

>  <SCORE.INTRA.POLAR>
-0.767264

>  <SCORE.INTRA.POLAR.0>
0

>  <SCORE.INTRA.REPUL>
0

>  <SCORE.INTRA.REPUL.0>
0

>  <SCORE.INTRA.VDW>
0.533531

>  <SCORE.INTRA.VDW.0>
-1.82431

>  <SCORE.INTRA.norm>
-0.493831

>  <SCORE.RESTR>
0.0158115

>  <SCORE.RESTR.CAVITY>
0.0158115

>  <SCORE.RESTR.norm>
0.000790573

>  <SCORE.SYSTEM>
1.74443

>  <SCORE.SYSTEM.CONST>
0

>  <SCORE.SYSTEM.DIHEDRAL>
3.61823

>  <SCORE.SYSTEM.VDW>
-0.0646835

>  <SCORE.SYSTEM.norm>
0.0872217

>  <SCORE.heavy>
20

>  <SCORE.norm>
-1.10219

>  <SMILES>
C/C(O)=N\[C@@H]1[C@H](O)[C@H](O)[C@@H](CO)O[C@H]1OCCN=[N+]=[N-]

>  <UniqueID>
255

$$$$
ZINC000102863660
  rDOCK(R)          3D
libRbt.so/2013.1/901 2013/11/27
 23 23  0  0  0  0  0  0  0  0999 V2000
   89.7824   23.8692 -107.2038 C   0  0  0  0  0  0
   88.5534   23.5872 -106.4034 C   0  0  0  0  0  0
   88.4084   22.4564 -105.8650 O   0  0  0  0  0  0
   87.5694   24.6143 -106.2186 N   0  0  0  0  0  0
   86.4391   24.4637 -105.2935 C   0  0  0  0  0  0
   86.9134   24.7361 -103.8477 C   0  0  0  0  0  0
   87.3899   23.5184 -103.2952 O   0  0  0  0  0  0
   88.1713   23.6569 -102.1083 C   0  0  0  0  0  0
   88.6082   22.2350 -101.7170 C   0  0  0  0  0  0
   89.4472   24.4864 -102.3782 C   0  0  0  0  0  0
   87.3748   24.2501 -100.9191 C   0  0  0  0  0  0
   85.8178   25.1906 -103.0750 O   0  0  0  0  0  0
   85.4944   26.5346 -103.4072 C   0  0  0  0  0  0
   84.2099   26.9102 -102.6571 C   0  0  0  0  0  0
   83.2119   25.9474 -102.8787 O   0  0  0  0  0  0
   85.3367   26.7497 -104.9508 C   0  0  0  0  0  0
   86.4249   27.4865 -105.4475 O   0  0  0  0  0  0
   85.2584   25.3933 -105.6800 C   0  0  0  0  0  0
   85.2069   25.5768 -107.0727 O   0  0  0  0  0  0
   87.7646   25.5565 -106.6264 H   0  0  0  0  0  0
   82.4187   26.2180 -102.3470 H   0  0  0  0  0  0
   86.3948   28.3742 -105.0036 H   0  0  0  0  0  0
   84.4082   26.1360 -107.2603 H   0  0  0  0  0  0
  1  2  1  0  0  0
  2  3  2  0  0  0
  2  4  1  0  0  0
  4  5  1  0  0  0
  4 20  1  0  0  0
  5  6  1  0  0  0
  6  7  1  0  0  0
  6 12  1  0  0  0
  7  8  1  0  0  0
  8  9  1  0  0  0
  8 10  1  0  0  0
  8 11  1  0  0  0
 12 13  1  0  0  0
 13 14  1  0  0  0
 13 16  1  0  0  0
 14 15  1  0  0  0
 15 21  1  0  0  0
 16 17  1  0  0  0
 16 18  1  0  0  0
 17 22  1  0  0  0
 18 19  1  0  0  0
 18  5  1  0  0  0
 19 23  1  0  0  0
M  END
>  <CHROM.0>
-76.91402379,151.92947508,-69.72457346

>  <CHROM.1>
79.62665549,164.64495796,-178.38365589,-51.30141908,177.89045986,-62.67235449
177.02429566,86.79062185,24.84615667,-104.23922953,-0.02469518,0.64743200
-1.42640319

>  <Energy>
47.093764464885766

>  <Genealogy>
CC(=O)N[C@H]1[C@H](OC(C)(C)C)O[C@H](CO)[C@@H](O)[C@H]1O (3D coordinates assigned)
CC(=O)N[C@H]1[C@H](OC(C)(C)C)O[C@H](CO)[C@@H](O)[C@H]1O (nonaromatic ring conformer: 47.093764464885766 kcal/mol)

>  <Name>
ZINC000102863660

>  <RI>
3.95439e+07

>  <Rbt.Current_Directory>
/home/edward/Documentos/Virtual_Screening/rDock/2

>  <Rbt.Executable>
rbdock ($Id: //depot/dev/client3/rdock/2013.1/src/exe/rbdock.cxx#4 $)

>  <Rbt.Library>
libRbt.so (2013.1, Build901 2013/11/27)

>  <Rbt.Parameter_File>
/home/edward/anaconda3/envs/MD/share/rdock-2013.1-1/data/scripts/dock.prm

>  <Rbt.Receptor>
parameters.prm

>  <SCORE>
-19.8771

>  <SCORE.INTER>
-17.8378

>  <SCORE.INTER.CONST>
1

>  <SCORE.INTER.POLAR>
-4.24799

>  <SCORE.INTER.REPUL>
0

>  <SCORE.INTER.ROT>
4

>  <SCORE.INTER.VDW>
-12.7946

>  <SCORE.INTER.norm>
-0.938832

>  <SCORE.INTRA>
-5.30233

>  <SCORE.INTRA.DIHEDRAL>
-11.9165

>  <SCORE.INTRA.DIHEDRAL.0>
14.3877

>  <SCORE.INTRA.POLAR>
0

>  <SCORE.INTRA.POLAR.0>
0

>  <SCORE.INTRA.REPUL>
0

>  <SCORE.INTRA.REPUL.0>
0

>  <SCORE.INTRA.VDW>
0.655925

>  <SCORE.INTRA.VDW.0>
-1.01304

>  <SCORE.INTRA.norm>
-0.27907

>  <SCORE.RESTR>
0

>  <SCORE.RESTR.CAVITY>
0

>  <SCORE.RESTR.norm>
0

>  <SCORE.SYSTEM>
3.26303

>  <SCORE.SYSTEM.CONST>
0

>  <SCORE.SYSTEM.DIHEDRAL>
4.85196

>  <SCORE.SYSTEM.VDW>
0.837049

>  <SCORE.SYSTEM.norm>
0.171738

>  <SCORE.heavy>
19

>  <SCORE.norm>
-1.04616

>  <SMILES>
CC(=O)N[C@H]1[C@H](OC(C)(C)C)O[C@H](CO)[C@@H](O)[C@H]1O

>  <UniqueID>
258

$$$$
ZINC000102974493
  rDOCK(R)          3D
libRbt.so/2013.1/901 2013/11/27
 26 27  0  0  0  0  0  0  0  0999 V2000
   92.0090   17.2558 -105.0240 C   0  0  0  0  0  0
   90.8345   17.1758 -104.1044 C   0  0  0  0  0  0
   90.9914   17.4430 -102.8836 O   0  0  0  0  0  0
   89.5620   16.7387 -104.6136 N   0  0  0  0  0  0
   88.3381   16.5172 -103.8260 C   0  0  0  0  0  0
   87.6446   17.8328 -103.3959 C   0  0  0  0  0  0
   88.5613   18.6147 -102.6245 O   0  0  0  0  0  0
   88.2961   19.8863 -102.0966 C   0  0  0  0  0  0
   89.2869   20.6586 -101.4619 C   0  0  0  0  0  0
   88.9689   21.9137 -100.9336 C   0  0  0  0  0  0
   87.6682   22.4140 -101.0471 C   0  0  0  0  0  0
   87.2702   23.9858 -100.3783 Cl  0  0  0  0  0  0
   86.6873   21.6626 -101.7017 C   0  0  0  0  0  0
   87.0036   20.4079 -102.2309 C   0  0  0  0  0  0
   86.5343   17.5356 -102.5670 O   0  0  0  0  0  0
   85.5442   16.8083 -103.2782 C   0  0  0  0  0  0
   84.3009   16.6856 -102.3846 C   0  0  0  0  0  0
   83.2495   16.0808 -103.0882 O   0  0  0  0  0  0
   86.0864   15.4104 -103.6684 C   0  0  0  0  0  0
   85.1176   14.6854 -104.3852 O   0  0  0  0  0  0
   87.3509   15.5659 -104.5336 C   0  0  0  0  0  0
   87.0035   16.0620 -105.8014 O   0  0  0  0  0  0
   89.5132   16.5052 -105.6315 H   0  0  0  0  0  0
   83.6131   15.2434 -103.4785 H   0  0  0  0  0  0
   85.5668   13.8820 -104.7571 H   0  0  0  0  0  0
   86.8381   17.0355 -105.6993 H   0  0  0  0  0  0
  1  2  1  0  0  0
  2  3  2  0  0  0
  2  4  1  0  0  0
  4  5  1  0  0  0
  4 23  1  0  0  0
  5  6  1  0  0  0
  6  7  1  0  0  0
  6 15  1  0  0  0
  7  8  1  0  0  0
  8  9  2  0  0  0
  9 10  1  0  0  0
 10 11  2  0  0  0
 11 12  1  0  0  0
 11 13  1  0  0  0
 13 14  2  0  0  0
 14  8  1  0  0  0
 15 16  1  0  0  0
 16 17  1  0  0  0
 16 19  1  0  0  0
 17 18  1  0  0  0
 18 24  1  0  0  0
 19 20  1  0  0  0
 19 21  1  0  0  0
 20 25  1  0  0  0
 21 22  1  0  0  0
 21  5  1  0  0  0
 22 26  1  0  0  0
M  END
>  <CHROM.0>
179.87232494,152.75026980,-65.60536565

>  <CHROM.1>
74.90913640,178.11815963,-173.41963003,174.60304248,51.58350294,169.36302269
-43.37405521,87.57968740,18.48899627,-102.89748623,-1.70901703,0.18104656
0.47538627

>  <Energy>
42.18589618353214

>  <Genealogy>
CC(=O)N[C@H]1[C@H](Oc2ccc(Cl)cc2)O[C@H](CO)[C@@H](O)[C@H]1O (3D coordinates assigned)
CC(=O)N[C@H]1[C@H](Oc2ccc(Cl)cc2)O[C@H](CO)[C@@H](O)[C@H]1O (nonaromatic ring conformer: 42.18589618353214 kcal/mol)

>  <Name>
ZINC000102974493

>  <RI>
3.95439e+07

>  <Rbt.Current_Directory>
/home/edward/Documentos/Virtual_Screening/rDock/2

>  <Rbt.Executable>
rbdock ($Id: //depot/dev/client3/rdock/2013.1/src/exe/rbdock.cxx#4 $)

>  <Rbt.Library>
libRbt.so (2013.1, Build901 2013/11/27)

>  <Rbt.Parameter_File>
/home/edward/anaconda3/envs/MD/share/rdock-2013.1-1/data/scripts/dock.prm

>  <Rbt.Receptor>
parameters.prm

>  <SCORE>
-18.7029

>  <SCORE.INTER>
-15.8259

>  <SCORE.INTER.CONST>
1

>  <SCORE.INTER.POLAR>
-3.4434

>  <SCORE.INTER.REPUL>
0

>  <SCORE.INTER.ROT>
4

>  <SCORE.INTER.VDW>
-13.5183

>  <SCORE.INTER.norm>
-0.71936

>  <SCORE.INTRA>
-4.61773

>  <SCORE.INTRA.DIHEDRAL>
-10.9267

>  <SCORE.INTRA.DIHEDRAL.0>
14.5509

>  <SCORE.INTRA.POLAR>
-0.767744

>  <SCORE.INTRA.POLAR.0>
0

>  <SCORE.INTRA.REPUL>
0

>  <SCORE.INTRA.REPUL.0>
0

>  <SCORE.INTRA.VDW>
3.45595

>  <SCORE.INTRA.VDW.0>
-3.98692

>  <SCORE.INTRA.norm>
-0.209897

>  <SCORE.RESTR>
0

>  <SCORE.RESTR.CAVITY>
0

>  <SCORE.RESTR.norm>
0

>  <SCORE.SYSTEM>
1.74074

>  <SCORE.SYSTEM.CONST>
0

>  <SCORE.SYSTEM.DIHEDRAL>
3.40224

>  <SCORE.SYSTEM.VDW>
0.0396225

>  <SCORE.SYSTEM.norm>
0.0791247

>  <SCORE.heavy>
22

>  <SCORE.norm>
-0.850132

>  <SMILES>
CC(=O)N[C@H]1[C@H](Oc2ccc(Cl)cc2)O[C@H](CO)[C@@H](O)[C@H]1O

>  <UniqueID>
260

$$$$
ZINC000105341667
  rDOCK(R)          3D
libRbt.so/2013.1/901 2013/11/27
 19 19  0  0  0  0  0  0  0  0999 V2000
   92.3928   15.2204 -106.7567 C   0  0  0  0  0  0
   91.0941   15.5852 -106.3456 O   0  0  0  0  0  0
   91.0033   15.6307 -104.9271 C   0  0  0  0  0  0
   89.5406   15.4205 -104.4997 C   0  0  0  0  0  0
   89.0542   14.2417 -105.0929 O   0  0  0  0  0  0
   88.6812   16.6372 -104.9255 C   0  0  0  0  0  0
   87.2245   16.4630 -104.4701 C   0  0  0  0  0  0
   86.5596   15.5478 -105.2995 O   0  0  0  0  0  0
   89.1887   17.8331 -104.3507 O   0  0  0  0  0  0
   90.5005   18.1237 -104.8102 C   0  0  0  0  0  0
   90.5133   18.3530 -106.1975 O   0  0  0  0  0  0
   91.4895   17.0028 -104.4133 C   0  0  0  0  0  0
   92.8518   17.2994 -104.8765 N   0  3  0  0  0  0
   89.6502   13.5006 -104.8081 H   0  0  0  0  0  0
   87.0623   14.6934 -105.2458 H   0  0  0  0  0  0
   90.2391   17.4998 -106.6244 H   0  0  0  0  0  0
   93.2752   18.0418 -104.2736 H   0  0  0  0  0  0
   93.4562   16.4469 -104.8440 H   0  0  0  0  0  0
   92.8195   17.6555 -105.8594 H   0  0  0  0  0  0
  1  2  1  0  0  0
  2  3  1  0  0  0
  3  4  1  0  0  0
  4  5  1  0  0  0
  4  6  1  0  0  0
  5 14  1  0  0  0
  6  7  1  0  0  0
  6  9  1  0  0  0
  7  8  1  0  0  0
  8 15  1  0  0  0
  9 10  1  0  0  0
 10 11  1  0  0  0
 10 12  1  0  0  0
 11 16  1  0  0  0
 12 13  1  0  0  0
 12  3  1  0  0  0
 13 17  1  0  0  0
 13 18  1  0  0  0
 13 19  1  0  0  0
M  END
>  <CHROM.0>
-76.17337305,155.27087147,51.89788862

>  <CHROM.1>
-155.64355269,57.41913298,-76.08818634,58.61131735,-63.90820467,-160.69956888
90.00989398,16.39361740,-105.19028895,-0.16021904,-0.19094661,-2.90384351

>  <Energy>
30.312762406282356

>  <Genealogy>
CO[C@@H]1[C@H](O)[C@@H](CO)O[C@H](O)[C@@H]1[NH3+] (protonated)
CO[C@@H]1[C@H](O)[C@@H](CO)O[C@H](O)[C@@H]1[NH3+] (3D coordinates assigned)
CO[C@@H]1[C@H](O)[C@@H](CO)O[C@H](O)[C@@H]1[NH3+] (nonaromatic ring conformer: 30.312762406282356 kcal/mol)

>  <Name>
ZINC000105341667

>  <RI>
3.95439e+07

>  <Rbt.Current_Directory>
/home/edward/Documentos/Virtual_Screening/rDock/2

>  <Rbt.Executable>
rbdock ($Id: //depot/dev/client3/rdock/2013.1/src/exe/rbdock.cxx#4 $)

>  <Rbt.Library>
libRbt.so (2013.1, Build901 2013/11/27)

>  <Rbt.Parameter_File>
/home/edward/anaconda3/envs/MD/share/rdock-2013.1-1/data/scripts/dock.prm

>  <Rbt.Receptor>
parameters.prm

>  <SCORE>
-18.4456

>  <SCORE.INTER>
-16.6932

>  <SCORE.INTER.CONST>
1

>  <SCORE.INTER.POLAR>
-5.04472

>  <SCORE.INTER.REPUL>
0.553928

>  <SCORE.INTER.ROT>
2

>  <SCORE.INTER.VDW>
-9.7108

>  <SCORE.INTER.norm>
-1.28409

>  <SCORE.INTRA>
-6.00974

>  <SCORE.INTRA.DIHEDRAL>
-9.94601

>  <SCORE.INTRA.DIHEDRAL.0>
14.4786

>  <SCORE.INTRA.POLAR>
-1.21983

>  <SCORE.INTRA.POLAR.0>
0

>  <SCORE.INTRA.REPUL>
-0.000480488

>  <SCORE.INTRA.REPUL.0>
0.000480488

>  <SCORE.INTRA.VDW>
3.11308

>  <SCORE.INTRA.VDW.0>
-1.66877

>  <SCORE.INTRA.norm>
-0.462288

>  <SCORE.RESTR>
0.332235

>  <SCORE.RESTR.CAVITY>
0.332235

>  <SCORE.RESTR.norm>
0.0255565

>  <SCORE.SYSTEM>
3.92511

>  <SCORE.SYSTEM.CONST>
0

>  <SCORE.SYSTEM.DIHEDRAL>
4.131

>  <SCORE.SYSTEM.VDW>
1.85961

>  <SCORE.SYSTEM.norm>
0.301931

>  <SCORE.heavy>
13

>  <SCORE.norm>
-1.41889

>  <SMILES>
CO[C@@H]1[C@H](O)[C@@H](CO)O[C@H](O)[C@@H]1[NH3+]

>  <UniqueID>
261

$$$$
ZINC000106381125
  rDOCK(R)          3D
libRbt.so/2013.1/901 2013/11/27
 24 24  0  0  0  0  0  0  0  0999 V2000
   89.1849   21.5198 -102.5767 C   0  0  0  0  0  0
   89.2088   20.0249 -102.9156 C   0  0  0  0  0  0
   89.3750   19.0665 -101.6927 C   0  0  0  0  0  0
   90.7205   19.3452 -100.9944 C   0  0  0  0  0  0
   88.2490   19.2652 -100.6416 C   0  0  0  0  0  0
   89.4633   17.7150 -102.1470 O   0  0  0  0  0  0
   88.3252   17.2308 -102.8445 C   0  0  0  0  0  0
   87.4279   16.6730 -101.8991 O   0  0  0  0  0  0
   86.2338   16.2359 -102.5278 C   0  0  0  0  0  0
   85.2435   15.8057 -101.4358 C   0  0  0  0  0  0
   83.9729   15.5846 -101.9865 O   0  0  0  0  0  0
   86.5388   15.0650 -103.4949 C   0  0  0  0  0  0
   85.3679   14.6488 -104.1531 O   0  0  0  0  0  0
   87.5811   15.5091 -104.5387 C   0  0  0  0  0  0
   87.0106   16.4396 -105.4275 O   0  0  0  0  0  0
   88.7935   16.1366 -103.8230 C   0  0  0  0  0  0
   89.7370   16.6970 -104.7979 N   0  0  0  0  0  0
   90.9812   16.0628 -105.1278 C   0  0  0  0  0  0
   91.9389   16.7401 -106.0528 C   0  0  0  0  0  0
   91.2915   14.9529 -104.6166 O   0  0  0  0  0  0
   84.0953   14.9462 -102.7370 H   0  0  0  0  0  0
   85.6223   13.9112 -104.7668 H   0  0  0  0  0  0
   87.7211   16.7027 -106.0689 H   0  0  0  0  0  0
   89.5771   17.6674 -105.1521 H   0  0  0  0  0  0
  1  2  1  0  0  0
  2  3  1  0  0  0
  3  4  1  0  0  0
  3  5  1  0  0  0
  3  6  1  0  0  0
  6  7  1  0  0  0
  7  8  1  0  0  0
  8  9  1  0  0  0
  9 10  1  0  0  0
  9 12  1  0  0  0
 10 11  1  0  0  0
 11 21  1  0  0  0
 12 13  1  0  0  0
 12 14  1  0  0  0
 13 22  1  0  0  0
 14 15  1  0  0  0
 14 16  1  0  0  0
 15 23  1  0  0  0
 16 17  1  0  0  0
 16  7  1  0  0  0
 17 18  1  0  0  0
 17 24  1  0  0  0
 18 19  1  0  0  0
 18 20  2  0  0  0
M  END
>  <CHROM.0>
-70.41583101,152.89802313,50.14730857

>  <CHROM.1>
-61.49062995,-61.49731618,-89.08394512,169.83318149,53.26928956,179.12205196
179.24178784,132.80616684,88.28570445,17.01712253,-103.19669932,0.42649403
0.41498960,0.69104008

>  <Energy>
42.48120540896817

>  <Genealogy>
CCC(C)(C)O[C@@H]1O[C@H](CO)[C@@H](O)[C@@H](O)[C@H]1NC(C)=O (3D coordinates assigned)
CCC(C)(C)O[C@@H]1O[C@H](CO)[C@@H](O)[C@@H](O)[C@H]1NC(C)=O (nonaromatic ring conformer: 42.48120540896817 kcal/mol)

>  <Name>
ZINC000106381125

>  <RI>
3.95439e+07

>  <Rbt.Current_Directory>
/home/edward/Documentos/Virtual_Screening/rDock/2

>  <Rbt.Executable>
rbdock ($Id: //depot/dev/client3/rdock/2013.1/src/exe/rbdock.cxx#4 $)

>  <Rbt.Library>
libRbt.so (2013.1, Build901 2013/11/27)

>  <Rbt.Parameter_File>
/home/edward/anaconda3/envs/MD/share/rdock-2013.1-1/data/scripts/dock.prm

>  <Rbt.Receptor>
parameters.prm

>  <SCORE>
-14.6967

>  <SCORE.INTER>
-12.3965

>  <SCORE.INTER.CONST>
1

>  <SCORE.INTER.POLAR>
-2.71022

>  <SCORE.INTER.REPUL>
0.0215198

>  <SCORE.INTER.ROT>
5

>  <SCORE.INTER.VDW>
-13.6894

>  <SCORE.INTER.norm>
-0.619827

>  <SCORE.INTRA>
-6.33861

>  <SCORE.INTRA.DIHEDRAL>
-9.10455

>  <SCORE.INTRA.DIHEDRAL.0>
14.6436

>  <SCORE.INTRA.POLAR>
-0.748071

>  <SCORE.INTRA.POLAR.0>
0

>  <SCORE.INTRA.REPUL>
0

>  <SCORE.INTRA.REPUL.0>
0

>  <SCORE.INTRA.VDW>
0.757106

>  <SCORE.INTRA.VDW.0>
1.24579

>  <SCORE.INTRA.norm>
-0.316931

>  <SCORE.RESTR>
0

>  <SCORE.RESTR.CAVITY>
0

>  <SCORE.RESTR.norm>
0

>  <SCORE.SYSTEM>
4.0385

>  <SCORE.SYSTEM.CONST>
0

>  <SCORE.SYSTEM.DIHEDRAL>
3.87207

>  <SCORE.SYSTEM.VDW>
2.10247

>  <SCORE.SYSTEM.norm>
0.201925

>  <SCORE.heavy>
20

>  <SCORE.norm>
-0.734833

>  <SMILES>
CCC(C)(C)O[C@@H]1O[C@H](CO)[C@@H](O)[C@@H](O)[C@H]1NC(C)=O

>  <UniqueID>
263

$$$$
ZINC000106382931
  rDOCK(R)          3D
libRbt.so/2013.1/901 2013/11/27
 26 27  0  0  0  0  0  0  0  0999 V2000
   86.2048   19.9145 -100.4614 H   0  0  0  0  0  0
   86.8272   19.1414 -100.6637 O   0  0  0  0  0  0
   87.4838   19.0322 -101.8869 C   0  0  0  0  0  0
   88.2524   17.9999 -102.0840 N   0  0  0  0  0  0
   89.0205   17.6900 -103.2938 C   0  0  0  0  0  0
   90.5377   17.7730 -102.9963 C   0  0  0  0  0  0
   90.8839   19.1151 -102.6415 O   0  0  0  0  0  0
   90.7063   20.2662 -103.4293 C   0  0  0  0  0  0
   90.4469   21.4752 -102.7701 C   0  0  0  0  0  0
   90.2627   22.6565 -103.4946 C   0  0  0  0  0  0
   90.3320   22.6395 -104.8894 C   0  0  0  0  0  0
   90.1545   23.7856 -105.5917 F   0  0  0  0  0  0
   90.5825   21.4400 -105.5603 C   0  0  0  0  0  0
   90.7659   20.2559 -104.8390 C   0  0  0  0  0  0
   91.2726   17.4418 -104.1612 O   0  0  0  0  0  0
   91.0925   16.0782 -104.5046 C   0  0  0  0  0  0
   92.0488   15.7348 -105.6561 C   0  0  0  0  0  0
   91.9203   14.3842 -106.0117 O   0  0  0  0  0  0
   92.5818   14.2129 -106.7319 H   0  0  0  0  0  0
   89.6212   15.8310 -104.9259 C   0  0  0  0  0  0
   89.3909   14.4883 -105.2790 O   0  0  0  0  0  0
   90.1887   14.1609 -105.7705 H   0  0  0  0  0  0
   88.6395   16.2870 -103.8232 C   0  0  0  0  0  0
   88.5434   15.3448 -102.7799 O   0  0  0  0  0  0
   89.4256   15.2809 -102.3341 H   0  0  0  0  0  0
   87.3088   20.1131 -102.9187 C   0  0  0  0  0  0
  1  2  1  0  0  0
  2  3  1  0  0  0
  3  4  2  0  0  0
  3 26  1  0  0  0
  4  5  1  0  0  0
  5  6  1  0  0  0
  6  7  1  0  0  0
  6 15  1  0  0  0
  7  8  1  0  0  0
  8  9  2  0  0  0
  9 10  1  0  0  0
 10 11  2  0  0  0
 11 12  1  0  0  0
 11 13  1  0  0  0
 13 14  2  0  0  0
 14  8  1  0  0  0
 15 16  1  0  0  0
 16 17  1  0  0  0
 16 20  1  0  0  0
 17 18  1  0  0  0
 18 19  1  0  0  0
 20 21  1  0  0  0
 20 23  1  0  0  0
 21 22  1  0  0  0
 23 24  1  0  0  0
 23  5  1  0  0  0
 24 25  1  0  0  0
M  END
>  <CHROM.0>
179.78054751,152.95283836,-58.51219839

>  <CHROM.1>
-178.94187542,113.59699806,-59.06820278,148.18236793,178.91570095,-177.91832216
-38.39924635,-60.69071191,89.81415310,18.52291583,-103.84590843,1.66953993
0.77416181,0.02832440

>  <Energy>
43.59722223459094

>  <Genealogy>
CC(O)=N[C@H]1[C@H](Oc2ccc(F)cc2)O[C@H](CO)[C@@H](O)[C@H]1O (tautomer)
C/C(O)=N\[C@H]1[C@H](Oc2ccc(F)cc2)O[C@H](CO)[C@@H](O)[C@H]1O (cis-trans isomerization)
C/C(O)=N\[C@H]1[C@H](Oc2ccc(F)cc2)O[C@H](CO)[C@@H](O)[C@H]1O (3D coordinates assigned)
C/C(O)=N\[C@H]1[C@H](Oc2ccc(F)cc2)O[C@H](CO)[C@@H](O)[C@H]1O (nonaromatic ring conformer: 43.59722223459094 kcal/mol)

>  <Name>
ZINC000106382931

>  <RI>
3.95439e+07

>  <Rbt.Current_Directory>
/home/edward/Documentos/Virtual_Screening/rDock/2

>  <Rbt.Executable>
rbdock ($Id: //depot/dev/client3/rdock/2013.1/src/exe/rbdock.cxx#4 $)

>  <Rbt.Library>
libRbt.so (2013.1, Build901 2013/11/27)

>  <Rbt.Parameter_File>
/home/edward/anaconda3/envs/MD/share/rdock-2013.1-1/data/scripts/dock.prm

>  <Rbt.Receptor>
parameters.prm

>  <SCORE>
-14.2266

>  <SCORE.INTER>
-12.4949

>  <SCORE.INTER.CONST>
1

>  <SCORE.INTER.POLAR>
-1.62487

>  <SCORE.INTER.REPUL>
0.0175344

>  <SCORE.INTER.ROT>
4

>  <SCORE.INTER.VDW>
-16.4581

>  <SCORE.INTER.norm>
-0.567951

>  <SCORE.INTRA>
-3.61104

>  <SCORE.INTRA.DIHEDRAL>
-2.44654

>  <SCORE.INTRA.DIHEDRAL.0>
6.07499

>  <SCORE.INTRA.POLAR>
-0.89302

>  <SCORE.INTRA.POLAR.0>
0

>  <SCORE.INTRA.REPUL>
0

>  <SCORE.INTRA.REPUL.0>
0

>  <SCORE.INTRA.VDW>
0.648504

>  <SCORE.INTRA.VDW.0>
-2.39195

>  <SCORE.INTRA.norm>
-0.164138

>  <SCORE.RESTR>
0.0257674

>  <SCORE.RESTR.CAVITY>
0.0257674

>  <SCORE.RESTR.norm>
0.00117124

>  <SCORE.SYSTEM>
1.85364

>  <SCORE.SYSTEM.CONST>
0

>  <SCORE.SYSTEM.DIHEDRAL>
3.56681

>  <SCORE.SYSTEM.VDW>
0.0702377

>  <SCORE.SYSTEM.norm>
0.0842565

>  <SCORE.heavy>
22

>  <SCORE.norm>
-0.646662

>  <SMILES>
C/C(O)=N\[C@H]1[C@H](Oc2ccc(F)cc2)O[C@H](CO)[C@@H](O)[C@H]1O

>  <UniqueID>
265

$$$$
ZINC000106382957
  rDOCK(R)          3D
libRbt.so/2013.1/901 2013/11/27
 27 28  0  0  0  0  0  0  0  0999 V2000
   90.9001   14.2316 -105.3463 C   0  0  0  0  0  0
   89.7290   14.4947 -104.4572 C   0  0  0  0  0  0
   89.6543   13.9085 -103.3436 O   0  0  0  0  0  0
   88.7343   15.4536 -104.8476 N   0  0  0  0  0  0
   87.6198   15.8504 -103.9791 C   0  0  0  0  0  0
   87.3006   17.3568 -104.1343 C   0  0  0  0  0  0
   88.4421   18.1333 -103.7582 O   0  0  0  0  0  0
   89.1701   18.0426 -102.5567 C   0  0  0  0  0  0
   88.8968   17.0506 -101.5905 C   0  0  0  0  0  0
   89.6341   16.9895 -100.4071 C   0  0  0  0  0  0
   90.6555   17.9063 -100.1703 C   0  0  0  0  0  0
   90.9472   18.8872 -101.1180 C   0  0  0  0  0  0
   90.2165   18.9665 -102.3153 C   0  0  0  0  0  0
   90.5657   20.0381 -103.2751 C   0  0  0  0  0  0
   89.9155   20.2158 -104.3389 O   0  0  0  0  0  0
   86.2421   17.7094 -103.2599 O   0  0  0  0  0  0
   85.0330   17.0657 -103.6307 C   0  0  0  0  0  0
   83.9119   17.6223 -102.7425 C   0  0  0  0  0  0
   84.1985   17.3950 -101.3900 O   0  0  0  0  0  0
   85.1789   15.5281 -103.4628 C   0  0  0  0  0  0
   83.9982   14.8414 -103.8012 O   0  0  0  0  0  0
   86.3675   15.0086 -104.2942 C   0  0  0  0  0  0
   86.0577   15.0851 -105.6655 O   0  0  0  0  0  0
   88.8656   15.9549 -105.7552 H   0  0  0  0  0  0
   85.0568   17.8590 -101.2085 H   0  0  0  0  0  0
   84.1530   13.8730 -103.6471 H   0  0  0  0  0  0
   86.7541   14.5726 -106.1532 H   0  0  0  0  0  0
  1  2  1  0  0  0
  2  3  2  0  0  0
  2  4  1  0  0  0
  4  5  1  0  0  0
  4 24  1  0  0  0
  5  6  1  0  0  0
  6  7  1  0  0  0
  6 16  1  0  0  0
  7  8  1  0  0  0
  8  9  2  0  0  0
  9 10  1  0  0  0
 10 11  2  0  0  0
 11 12  1  0  0  0
 12 13  2  0  0  0
 13 14  1  0  0  0
 13  8  1  0  0  0
 14 15  2  0  0  0
 16 17  1  0  0  0
 17 18  1  0  0  0
 17 20  1  0  0  0
 18 19  1  0  0  0
 19 25  1  0  0  0
 20 21  1  0  0  0
 20 22  1  0  0  0
 21 26  1  0  0  0
 22 23  1  0  0  0
 22  5  1  0  0  0
 23 27  1  0  0  0
M  END
>  <CHROM.0>
79.61959742,155.84567172,-62.78859782

>  <CHROM.1>
142.91346406,-52.46456373,5.31253942,2.68397139,-58.90199082,59.72398633
-178.42182464,71.05703985,87.87558409,16.81622741,-103.27034852,-0.47367422
-0.03907922,-2.56417669

>  <Energy>
42.568866348113666

>  <Genealogy>
CC(=O)N[C@H]1[C@H](Oc2ccccc2C=O)O[C@H](CO)[C@@H](O)[C@H]1O (3D coordinates assigned)
CC(=O)N[C@H]1[C@H](Oc2ccccc2C=O)O[C@H](CO)[C@@H](O)[C@H]1O (nonaromatic ring conformer: 42.568866348113666 kcal/mol)

>  <Name>
ZINC000106382957

>  <RI>
3.95439e+07

>  <Rbt.Current_Directory>
/home/edward/Documentos/Virtual_Screening/rDock/2

>  <Rbt.Executable>
rbdock ($Id: //depot/dev/client3/rdock/2013.1/src/exe/rbdock.cxx#4 $)

>  <Rbt.Library>
libRbt.so (2013.1, Build901 2013/11/27)

>  <Rbt.Parameter_File>
/home/edward/anaconda3/envs/MD/share/rdock-2013.1-1/data/scripts/dock.prm

>  <Rbt.Receptor>
parameters.prm

>  <SCORE>
-15.4306

>  <SCORE.INTER>
-17.208

>  <SCORE.INTER.CONST>
1

>  <SCORE.INTER.POLAR>
-2.42623

>  <SCORE.INTER.REPUL>
0

>  <SCORE.INTER.ROT>
5

>  <SCORE.INTER.VDW>
-19.3588

>  <SCORE.INTER.norm>
-0.748174

>  <SCORE.INTRA>
-1.43193

>  <SCORE.INTRA.DIHEDRAL>
-6.15289

>  <SCORE.INTRA.DIHEDRAL.0>
8.54244

>  <SCORE.INTRA.POLAR>
-0.029818

>  <SCORE.INTRA.POLAR.0>
0

>  <SCORE.INTRA.REPUL>
0

>  <SCORE.INTRA.REPUL.0>
0

>  <SCORE.INTRA.VDW>
1.7459

>  <SCORE.INTRA.VDW.0>
-4.23084

>  <SCORE.INTRA.norm>
-0.0622578

>  <SCORE.RESTR>
0

>  <SCORE.RESTR.CAVITY>
0

>  <SCORE.RESTR.norm>
0

>  <SCORE.SYSTEM>
3.20934

>  <SCORE.SYSTEM.CONST>
0

>  <SCORE.SYSTEM.DIHEDRAL>
4.63085

>  <SCORE.SYSTEM.VDW>
0.893913

>  <SCORE.SYSTEM.norm>
0.139536

>  <SCORE.heavy>
23

>  <SCORE.norm>
-0.670895

>  <SMILES>
CC(=O)N[C@H]1[C@H](Oc2ccccc2C=O)O[C@H](CO)[C@@H](O)[C@H]1O

>  <UniqueID>
267

$$$$
ZINC000106382965
  rDOCK(R)          3D
libRbt.so/2013.1/901 2013/11/27
 27 28  0  0  0  0  0  0  0  0999 V2000
   90.6778   15.0545 -105.5399 C   0  0  0  0  0  0
   89.7041   15.2288 -104.4197 C   0  0  0  0  0  0
   89.9857   14.7738 -103.2778 O   0  0  0  0  0  0
   88.4466   15.8783 -104.6547 N   0  0  0  0  0  0
   87.4301   16.0206 -103.6057 C   0  0  0  0  0  0
   86.8154   17.4350 -103.6266 C   0  0  0  0  0  0
   87.8530   18.3904 -103.4092 O   0  0  0  0  0  0
   87.6868   19.7827 -103.4715 C   0  0  0  0  0  0
   86.5971   20.3507 -102.8018 C   0  0  0  0  0  0
   86.3840   21.7317 -102.8319 C   0  0  0  0  0  0
   87.2672   22.5695 -103.5335 C   0  0  0  0  0  0
   87.0642   24.0293 -103.5735 C   0  0  0  0  0  0
   86.0184   24.5539 -103.1059 O   0  0  0  0  0  0
   88.3615   22.0034 -104.2042 C   0  0  0  0  0  0
   88.5723   20.6216 -104.1753 C   0  0  0  0  0  0
   85.8529   17.5621 -102.5941 O   0  0  0  0  0  0
   84.7475   16.7068 -102.8326 C   0  0  0  0  0  0
   83.6531   17.0242 -101.8005 C   0  0  0  0  0  0
   84.1162   16.8317 -100.4901 O   0  0  0  0  0  0
   85.1904   15.2226 -102.7650 C   0  0  0  0  0  0
   84.1083   14.3711 -103.0501 O   0  0  0  0  0  0
   86.3169   14.9646 -103.7797 C   0  0  0  0  0  0
   85.7946   15.0116 -105.0860 O   0  0  0  0  0  0
   88.2650   16.2764 -105.6048 H   0  0  0  0  0  0
   84.9113   17.4151 -100.3794 H   0  0  0  0  0  0
   83.8306   14.5545 -103.9855 H   0  0  0  0  0  0
   86.3655   14.4269 -105.6488 H   0  0  0  0  0  0
  1  2  1  0  0  0
  2  3  2  0  0  0
  2  4  1  0  0  0
  4  5  1  0  0  0
  4 24  1  0  0  0
  5  6  1  0  0  0
  6  7  1  0  0  0
  6 16  1  0  0  0
  7  8  1  0  0  0
  8  9  2  0  0  0
  9 10  1  0  0  0
 10 11  2  0  0  0
 11 12  1  0  0  0
 11 14  1  0  0  0
 12 13  2  0  0  0
 14 15  2  0  0  0
 15  8  1  0  0  0
 16 17  1  0  0  0
 17 18  1  0  0  0
 17 20  1  0  0  0
 18 19  1  0  0  0
 19 25  1  0  0  0
 20 21  1  0  0  0
 20 22  1  0  0  0
 21 26  1  0  0  0
 22 23  1  0  0  0
 22  5  1  0  0  0
 23 27  1  0  0  0
M  END
>  <CHROM.0>
-78.59831348,155.78133792,-66.81431188

>  <CHROM.1>
136.89327332,174.51852544,47.10636678,-7.81462883,-59.58707046,57.53511226
63.36886786,86.78363694,86.84857182,17.97579571,-103.40622026,-1.57850714
0.43666384,0.04711609

>  <Energy>
37.90711196494932

>  <Genealogy>
CC(=O)N[C@H]1[C@H](Oc2ccc(C=O)cc2)O[C@H](CO)[C@@H](O)[C@H]1O (3D coordinates assigned)
CC(=O)N[C@H]1[C@H](Oc2ccc(C=O)cc2)O[C@H](CO)[C@@H](O)[C@H]1O (nonaromatic ring conformer: 37.90711196494932 kcal/mol)

>  <Name>
ZINC000106382965

>  <RI>
3.95439e+07

>  <Rbt.Current_Directory>
/home/edward/Documentos/Virtual_Screening/rDock/2

>  <Rbt.Executable>
rbdock ($Id: //depot/dev/client3/rdock/2013.1/src/exe/rbdock.cxx#4 $)

>  <Rbt.Library>
libRbt.so (2013.1, Build901 2013/11/27)

>  <Rbt.Parameter_File>
/home/edward/anaconda3/envs/MD/share/rdock-2013.1-1/data/scripts/dock.prm

>  <Rbt.Receptor>
parameters.prm

>  <SCORE>
-16.8228

>  <SCORE.INTER>
-19.0907

>  <SCORE.INTER.CONST>
1

>  <SCORE.INTER.POLAR>
-3.98433

>  <SCORE.INTER.REPUL>
0

>  <SCORE.INTER.ROT>
5

>  <SCORE.INTER.VDW>
-15.944

>  <SCORE.INTER.norm>
-0.83003

>  <SCORE.INTRA>
-1.03521

>  <SCORE.INTRA.DIHEDRAL>
-1.955

>  <SCORE.INTRA.DIHEDRAL.0>
9.23008

>  <SCORE.INTRA.POLAR>
-0.0574896

>  <SCORE.INTRA.POLAR.0>
0

>  <SCORE.INTRA.REPUL>
0

>  <SCORE.INTRA.REPUL.0>
0

>  <SCORE.INTRA.VDW>
0.137758

>  <SCORE.INTRA.VDW.0>
-2.21897

>  <SCORE.INTRA.norm>
-0.045009

>  <SCORE.RESTR>
0

>  <SCORE.RESTR.CAVITY>
0

>  <SCORE.RESTR.norm>
0

>  <SCORE.SYSTEM>
3.30308

>  <SCORE.SYSTEM.CONST>
0

>  <SCORE.SYSTEM.DIHEDRAL>
4.40875

>  <SCORE.SYSTEM.VDW>
1.0987

>  <SCORE.SYSTEM.norm>
0.143612

>  <SCORE.heavy>
23

>  <SCORE.norm>
-0.731427

>  <SMILES>
CC(=O)N[C@H]1[C@H](Oc2ccc(C=O)cc2)O[C@H](CO)[C@@H](O)[C@H]1O

>  <UniqueID>
269

$$$$
ZINC000106384102
  rDOCK(R)          3D
libRbt.so/2013.1/901 2013/11/27
 26 27  0  0  0  0  0  0  0  0999 V2000
   86.1597   12.3324 -102.3069 H   0  0  0  0  0  0
   85.2349   12.7439 -102.3538 O   0  0  0  0  0  0
   85.0491   14.0447 -102.8127 C   0  0  0  0  0  0
   86.0919   14.7630 -103.1221 N   0  0  0  0  0  0
   86.0784   16.1489 -103.6057 C   0  0  0  0  0  0
   86.5611   17.1239 -102.4877 C   0  0  0  0  0  0
   85.5759   18.1415 -102.3134 O   0  0  0  0  0  0
   85.5986   19.1297 -101.3142 C   0  0  0  0  0  0
   86.0309   20.4468 -101.5727 C   0  0  0  0  0  0
   86.0364   21.4012 -100.5530 C   0  0  0  0  0  0
   85.6146   21.0571  -99.2686 C   0  0  0  0  0  0
   85.1865   19.7561  -98.9979 C   0  0  0  0  0  0
   85.1770   18.7859 -100.0141 C   0  0  0  0  0  0
   84.7155   17.3868  -99.7165 C   0  0  0  0  0  0
   87.8011   17.7397 -102.8064 O   0  0  0  0  0  0
   88.7728   16.7535 -103.1026 C   0  0  0  0  0  0
   90.1648   17.3988 -103.0839 C   0  0  0  0  0  0
   91.0742   16.6214 -103.8160 O   0  0  0  0  0  0
   91.9699   17.0292 -103.6850 H   0  0  0  0  0  0
   88.4752   16.1069 -104.4816 C   0  0  0  0  0  0
   88.8311   14.7469 -104.4347 O   0  0  0  0  0  0
   88.1786   14.2937 -103.8394 H   0  0  0  0  0  0
   86.9780   16.2678 -104.8491 C   0  0  0  0  0  0
   86.5870   15.3276 -105.8173 O   0  0  0  0  0  0
   86.7112   14.4307 -105.4099 H   0  0  0  0  0  0
   83.6465   14.5638 -102.9441 C   0  0  0  0  0  0
  1  2  1  0  0  0
  2  3  1  0  0  0
  3  4  2  0  0  0
  3 26  1  0  0  0
  4  5  1  0  0  0
  5  6  1  0  0  0
  6  7  1  0  0  0
  6 15  1  0  0  0
  7  8  1  0  0  0
  8  9  2  0  0  0
  9 10  1  0  0  0
 10 11  2  0  0  0
 11 12  1  0  0  0
 12 13  2  0  0  0
 13 14  1  0  0  0
 13  8  1  0  0  0
 15 16  1  0  0  0
 16 17  1  0  0  0
 16 20  1  0  0  0
 17 18  1  0  0  0
 18 19  1  0  0  0
 20 21  1  0  0  0
 20 23  1  0  0  0
 21 22  1  0  0  0
 23 24  1  0  0  0
 23  5  1  0  0  0
 24 25  1  0  0  0
M  END
>  <CHROM.0>
-178.35731265,154.78434512,-64.95297246

>  <CHROM.1>
-3.47182596,106.48821493,173.90657059,100.44062065,-158.87979953,-173.82939486
69.78142533,-61.72968205,86.66901489,16.98447076,-102.51514166,1.22533555
-0.44838895,-2.61951610

>  <Energy>
47.619388368638425

>  <Genealogy>
CC(O)=N[C@H]1[C@H](Oc2ccccc2C)O[C@H](CO)[C@@H](O)[C@H]1O (tautomer)
C/C(O)=N\[C@H]1[C@H](Oc2ccccc2C)O[C@H](CO)[C@@H](O)[C@H]1O (cis-trans isomerization)
C/C(O)=N\[C@H]1[C@H](Oc2ccccc2C)O[C@H](CO)[C@@H](O)[C@H]1O (3D coordinates assigned)
C/C(O)=N\[C@H]1[C@H](Oc2ccccc2C)O[C@H](CO)[C@@H](O)[C@H]1O (nonaromatic ring conformer: 47.619388368638425 kcal/mol)

>  <Name>
ZINC000106384102

>  <RI>
3.95439e+07

>  <Rbt.Current_Directory>
/home/edward/Documentos/Virtual_Screening/rDock/2

>  <Rbt.Executable>
rbdock ($Id: //depot/dev/client3/rdock/2013.1/src/exe/rbdock.cxx#4 $)

>  <Rbt.Library>
libRbt.so (2013.1, Build901 2013/11/27)

>  <Rbt.Parameter_File>
/home/edward/anaconda3/envs/MD/share/rdock-2013.1-1/data/scripts/dock.prm

>  <Rbt.Receptor>
parameters.prm

>  <SCORE>
-17.8899

>  <SCORE.INTER>
-17.4426

>  <SCORE.INTER.CONST>
1

>  <SCORE.INTER.POLAR>
-3.31956

>  <SCORE.INTER.REPUL>
0.0054142

>  <SCORE.INTER.ROT>
4

>  <SCORE.INTER.VDW>
-15.5832

>  <SCORE.INTER.norm>
-0.792847

>  <SCORE.INTRA>
-2.21232

>  <SCORE.INTRA.DIHEDRAL>
-0.693571

>  <SCORE.INTRA.DIHEDRAL.0>
8.10069

>  <SCORE.INTRA.POLAR>
-0.598704

>  <SCORE.INTRA.POLAR.0>
0

>  <SCORE.INTRA.REPUL>
0

>  <SCORE.INTRA.REPUL.0>
0

>  <SCORE.INTRA.VDW>
0.170054

>  <SCORE.INTRA.VDW.0>
-2.4479

>  <SCORE.INTRA.norm>
-0.10056

>  <SCORE.RESTR>
0

>  <SCORE.RESTR.CAVITY>
0

>  <SCORE.RESTR.norm>
0

>  <SCORE.SYSTEM>
1.7651

>  <SCORE.SYSTEM.CONST>
0

>  <SCORE.SYSTEM.DIHEDRAL>
3.05108

>  <SCORE.SYSTEM.VDW>
0.239559

>  <SCORE.SYSTEM.norm>
0.0802317

>  <SCORE.heavy>
22

>  <SCORE.norm>
-0.813175

>  <SMILES>
C/C(O)=N\[C@H]1[C@H](Oc2ccccc2C)O[C@H](CO)[C@@H](O)[C@H]1O

>  <UniqueID>
272

$$$$
ZINC000164373873
  rDOCK(R)          3D
libRbt.so/2013.1/901 2013/11/27
 18 18  0  0  0  0  0  0  0  0999 V2000
   89.5695   20.0165 -105.8092 C   0  0  0  0  0  0
   90.4161   19.2711 -104.9613 O   0  0  0  0  0  0
   90.2232   17.8854 -105.1758 C   0  0  0  0  0  0
   89.0733   17.4672 -104.4558 O   0  0  0  0  0  0
   88.7821   16.1042 -104.7144 C   0  0  0  0  0  0
   87.4326   15.7635 -104.0685 C   0  0  0  0  0  0
   86.4689   15.5063 -105.0533 O   0  0  0  0  0  0
   89.9142   15.2007 -104.1711 C   0  0  0  0  0  0
   89.6339   13.8542 -104.4583 O   0  0  0  0  0  0
   91.2565   15.6064 -104.8059 C   0  0  0  0  0  0
   91.2655   15.2358 -106.1636 O   0  0  0  0  0  0
   91.4685   17.1294 -104.6597 C   0  0  0  0  0  0
   92.6667   17.5499 -105.3914 N   0  0  0  0  0  0
   86.7407   14.6571 -105.4890 H   0  0  0  0  0  0
   90.3359   13.3141 -104.0095 H   0  0  0  0  0  0
   90.5389   15.7445 -106.6096 H   0  0  0  0  0  0
   92.9458   18.5006 -105.0569 H   0  0  0  0  0  0
   93.4541   16.9149 -105.1243 H   0  0  0  0  0  0
  1  2  1  0  0  0
  2  3  1  0  0  0
  3  4  1  0  0  0
  4  5  1  0  0  0
  5  6  1  0  0  0
  5  8  1  0  0  0
  6  7  1  0  0  0
  7 14  1  0  0  0
  8  9  1  0  0  0
  8 10  1  0  0  0
  9 15  1  0  0  0
 10 11  1  0  0  0
 10 12  1  0  0  0
 11 16  1  0  0  0
 12 13  1  0  0  0
 12  3  1  0  0  0
 13 17  1  0  0  0
 13 18  1  0  0  0
M  END
>  <CHROM.0>
78.96517585,153.47262913,-67.05028948

>  <CHROM.1>
-81.17010409,112.14317288,68.31602496,-174.22189236,62.49922034,74.62964222
89.84496594,16.64353571,-104.93881809,0.87682222,0.11645701,-0.10221168

>  <Energy>
25.91754151654896

>  <Genealogy>
CO[C@@H]1O[C@H](CO)[C@@H](O)[C@@H](O)[C@H]1N (3D coordinates assigned)
CO[C@@H]1O[C@H](CO)[C@@H](O)[C@@H](O)[C@H]1N (nonaromatic ring conformer: 25.91754151654896 kcal/mol)

>  <Name>
ZINC000164373873

>  <RI>
3.95439e+07

>  <Rbt.Current_Directory>
/home/edward/Documentos/Virtual_Screening/rDock/2

>  <Rbt.Executable>
rbdock ($Id: //depot/dev/client3/rdock/2013.1/src/exe/rbdock.cxx#4 $)

>  <Rbt.Library>
libRbt.so (2013.1, Build901 2013/11/27)

>  <Rbt.Parameter_File>
/home/edward/anaconda3/envs/MD/share/rdock-2013.1-1/data/scripts/dock.prm

>  <Rbt.Receptor>
parameters.prm

>  <SCORE>
-17.4033

>  <SCORE.INTER>
-22.2025

>  <SCORE.INTER.CONST>
1

>  <SCORE.INTER.POLAR>
-5.36474

>  <SCORE.INTER.REPUL>
0

>  <SCORE.INTER.ROT>
3

>  <SCORE.INTER.VDW>
-12.3623

>  <SCORE.INTER.norm>
-1.70788

>  <SCORE.INTRA>
1.61387

>  <SCORE.INTRA.DIHEDRAL>
2.43644

>  <SCORE.INTRA.DIHEDRAL.0>
5.3804

>  <SCORE.INTRA.POLAR>
0

>  <SCORE.INTRA.POLAR.0>
0

>  <SCORE.INTRA.REPUL>
0

>  <SCORE.INTRA.REPUL.0>
0

>  <SCORE.INTRA.VDW>
0.395646

>  <SCORE.INTRA.VDW.0>
-0.733425

>  <SCORE.INTRA.norm>
0.124144

>  <SCORE.RESTR>
0.0536804

>  <SCORE.RESTR.CAVITY>
0.0536804

>  <SCORE.RESTR.norm>
0.00412926

>  <SCORE.SYSTEM>
3.13163

>  <SCORE.SYSTEM.CONST>
0

>  <SCORE.SYSTEM.DIHEDRAL>
4.88519

>  <SCORE.SYSTEM.VDW>
0.689029

>  <SCORE.SYSTEM.norm>
0.240894

>  <SCORE.heavy>
13

>  <SCORE.norm>
-1.33871

>  <SMILES>
CO[C@@H]1O[C@H](CO)[C@@H](O)[C@@H](O)[C@H]1N

>  <UniqueID>
273

$$$$
ZINC000196304985
  rDOCK(R)          3D
libRbt.so/2013.1/901 2013/11/27
 20 20  0  0  0  0  0  0  0  0999 V2000
   83.3719   17.9342 -101.5026 H   0  0  0  0  0  0
   84.2934   17.5457 -101.6662 O   0  0  0  0  0  0
   84.9215   17.6800 -102.9011 C   0  0  0  0  0  0
   86.1390   17.2363 -103.0430 N   0  0  0  0  0  0
   86.9685   17.2996 -104.2541 C   0  0  0  0  0  0
   88.3090   17.9933 -103.9412 C   0  0  0  0  0  0
   88.0420   19.2832 -103.4246 O   0  0  0  0  0  0
   89.2285   20.0460 -103.3791 C   0  0  0  0  0  0
   89.0453   17.2496 -102.9771 O   0  0  0  0  0  0
   89.4174   15.9566 -103.4418 C   0  0  0  0  0  0
   90.5092   16.0174 -104.5342 C   0  0  0  0  0  0
   90.8793   14.7235 -104.9322 O   0  0  0  0  0  0
   90.0917   14.3225 -105.3838 H   0  0  0  0  0  0
   88.1842   15.0986 -103.8309 C   0  0  0  0  0  0
   87.4818   14.7373 -102.6677 O   0  0  0  0  0  0
   87.0635   15.5652 -102.3133 H   0  0  0  0  0  0
   87.2563   15.8807 -104.7838 C   0  0  0  0  0  0
   86.0708   15.1730 -105.0598 O   0  0  0  0  0  0
   86.3110   14.2483 -105.3257 H   0  0  0  0  0  0
   84.1531   18.3090 -104.0263 C   0  0  0  0  0  0
  1  2  1  0  0  0
  2  3  1  0  0  0
  3  4  2  0  0  0
  3 20  1  0  0  0
  4  5  1  0  0  0
  5  6  1  0  0  0
  6  7  1  0  0  0
  6  9  1  0  0  0
  7  8  1  0  0  0
  9 10  1  0  0  0
 10 11  1  0  0  0
 10 14  1  0  0  0
 11 12  1  0  0  0
 12 13  1  0  0  0
 14 15  1  0  0  0
 14 17  1  0  0  0
 15 16  1  0  0  0
 17 18  1  0  0  0
 17  5  1  0  0  0
 18 19  1  0  0  0
M  END
>  <CHROM.0>
-70.31953522,153.39276306,52.54215172

>  <CHROM.1>
175.85722474,125.02298275,-168.22207806,178.01228813,66.50233220,69.75118352
-175.49656023,87.55087435,16.86615520,-103.66580573,2.70476920,0.15785793
0.21733653

>  <Energy>
38.07452221133415

>  <Genealogy>
CO[C@H]1O[C@H](CO)[C@@H](O)[C@@H](O)[C@H]1N=C(C)O (tautomer)
CO[C@H]1O[C@H](CO)[C@@H](O)[C@@H](O)[C@H]1/N=C(\C)O (cis-trans isomerization)
CO[C@H]1O[C@H](CO)[C@@H](O)[C@@H](O)[C@H]1/N=C(\C)O (3D coordinates assigned)
CO[C@H]1O[C@H](CO)[C@@H](O)[C@@H](O)[C@H]1/N=C(\C)O (nonaromatic ring conformer: 38.07452221133415 kcal/mol)

>  <Name>
ZINC000196304985

>  <RI>
3.95439e+07

>  <Rbt.Current_Directory>
/home/edward/Documentos/Virtual_Screening/rDock/2

>  <Rbt.Executable>
rbdock ($Id: //depot/dev/client3/rdock/2013.1/src/exe/rbdock.cxx#4 $)

>  <Rbt.Library>
libRbt.so (2013.1, Build901 2013/11/27)

>  <Rbt.Parameter_File>
/home/edward/anaconda3/envs/MD/share/rdock-2013.1-1/data/scripts/dock.prm

>  <Rbt.Receptor>
parameters.prm

>  <SCORE>
-17.2686

>  <SCORE.INTER>
-15.9894

>  <SCORE.INTER.CONST>
1

>  <SCORE.INTER.POLAR>
-3.3091

>  <SCORE.INTER.REPUL>
0

>  <SCORE.INTER.ROT>
3

>  <SCORE.INTER.VDW>
-13.1384

>  <SCORE.INTER.norm>
-0.999337

>  <SCORE.INTRA>
-5.31829

>  <SCORE.INTRA.DIHEDRAL>
-6.79221

>  <SCORE.INTRA.DIHEDRAL.0>
8.75258

>  <SCORE.INTRA.POLAR>
-0.762176

>  <SCORE.INTRA.POLAR.0>
-0.000245241

>  <SCORE.INTRA.REPUL>
-0.0697872

>  <SCORE.INTRA.REPUL.0>
0.0697872

>  <SCORE.INTRA.VDW>
1.01815

>  <SCORE.INTRA.VDW.0>
-1.82078

>  <SCORE.INTRA.norm>
-0.332393

>  <SCORE.RESTR>
0

>  <SCORE.RESTR.CAVITY>
0

>  <SCORE.RESTR.norm>
0

>  <SCORE.SYSTEM>
4.03904

>  <SCORE.SYSTEM.CONST>
0

>  <SCORE.SYSTEM.DIHEDRAL>
3.77584

>  <SCORE.SYSTEM.VDW>
2.15112

>  <SCORE.SYSTEM.norm>
0.25244

>  <SCORE.heavy>
16

>  <SCORE.norm>
-1.07929

>  <SMILES>
CO[C@H]1O[C@H](CO)[C@@H](O)[C@@H](O)[C@H]1/N=C(\C)O

>  <UniqueID>
276

$$$$
ZINC000252694384
  rDOCK(R)          3D
libRbt.so/2013.1/901 2013/11/27
 27 27  0  0  0  0  0  0  0  0999 V2000
   84.0776   11.9527  -99.7315 C   0  0  0  0  0  0
   85.2162   12.6801 -100.4459 C   0  0  0  0  0  0
   86.6008   12.2866  -99.9090 C   0  0  0  0  0  0
   87.7477   12.9135 -100.7211 C   0  0  0  0  0  0
   87.8349   14.4371 -100.5397 C   0  0  0  0  0  0
   89.0227   15.0541 -101.2928 C   0  0  0  0  0  0
   89.0430   16.5778 -101.1287 C   0  0  0  0  0  0
   90.2247   17.2009 -101.8788 C   0  0  0  0  0  0
   90.1643   16.8507 -103.2483 O   0  0  0  0  0  0
   90.9398   17.7328 -104.0390 C   0  0  0  0  0  0
   90.3162   19.0065 -104.0376 O   0  0  0  0  0  0
   91.0920   19.9515 -104.7572 C   0  0  0  0  0  0
   90.4524   21.3364 -104.5795 C   0  0  0  0  0  0
   90.5214   21.7391 -103.2380 O   0  0  0  0  0  0
   91.1581   19.5590 -106.2544 C   0  0  0  0  0  0
   91.9527   20.4716 -106.9708 O   0  0  0  0  0  0
   91.7516   18.1452 -106.3964 C   0  0  0  0  0  0
   93.1194   18.1593 -106.0637 O   0  0  0  0  0  0
   90.9926   17.1724 -105.4732 C   0  0  0  0  0  0
   91.6308   15.8504 -105.4750 N   0  0  0  0  0  0
   90.8802   14.6291 -105.5340 C   0  0  0  0  0  0
   91.5686   13.3217 -105.3143 C   0  0  0  0  0  0
   89.6353   14.6497 -105.7313 O   0  0  0  0  0  0
   90.0896   22.6317 -103.1864 H   0  0  0  0  0  0
   91.9636   20.1722 -107.9172 H   0  0  0  0  0  0
   93.1864   18.4615 -105.1203 H   0  0  0  0  0  0
   92.6452   15.7830 -105.2311 H   0  0  0  0  0  0
  1  2  1  0  0  0
  2  3  1  0  0  0
  3  4  1  0  0  0
  4  5  1  0  0  0
  5  6  1  0  0  0
  6  7  1  0  0  0
  7  8  1  0  0  0
  8  9  1  0  0  0
  9 10  1  0  0  0
 10 11  1  0  0  0
 11 12  1  0  0  0
 12 13  1  0  0  0
 12 15  1  0  0  0
 13 14  1  0  0  0
 14 24  1  0  0  0
 15 16  1  0  0  0
 15 17  1  0  0  0
 16 25  1  0  0  0
 17 18  1  0  0  0
 17 19  1  0  0  0
 18 26  1  0  0  0
 19 20  1  0  0  0
 19 10  1  0  0  0
 20 21  1  0  0  0
 20 27  1  0  0  0
 21 22  1  0  0  0
 21 23  2  0  0  0
M  END
>  <CHROM.0>
-177.47886888,151.93955841,-168.60377750

>  <CHROM.1>
174.33719767,68.79509192,177.07352630,177.89349577,-179.93454171,57.29913881
160.45880206,-68.76222900,64.94346832,-179.62199573,179.76938793,60.52544181
100.54191989,89.85042590,16.65289686,-103.61986738,2.53559167,-0.88741631
-2.95610871

>  <Energy>
36.353319544223034

>  <Genealogy>
CCCCCCCCO[C@@H]1O[C@H](CO)[C@@H](O)[C@@H](O)[C@H]1NC(C)=O (3D coordinates assigned)
CCCCCCCCO[C@@H]1O[C@H](CO)[C@@H](O)[C@@H](O)[C@H]1NC(C)=O (nonaromatic ring conformer: 36.353319544223034 kcal/mol)

>  <Name>
ZINC000252694384

>  <RI>
3.95439e+07

>  <Rbt.Current_Directory>
/home/edward/Documentos/Virtual_Screening/rDock/2

>  <Rbt.Executable>
rbdock ($Id: //depot/dev/client3/rdock/2013.1/src/exe/rbdock.cxx#4 $)

>  <Rbt.Library>
libRbt.so (2013.1, Build901 2013/11/27)

>  <Rbt.Parameter_File>
/home/edward/anaconda3/envs/MD/share/rdock-2013.1-1/data/scripts/dock.prm

>  <Rbt.Receptor>
parameters.prm

>  <SCORE>
-15.4217

>  <SCORE.INTER>
-12.7513

>  <SCORE.INTER.CONST>
1

>  <SCORE.INTER.POLAR>
-2.61659

>  <SCORE.INTER.REPUL>
0

>  <SCORE.INTER.ROT>
10

>  <SCORE.INTER.VDW>
-19.2549

>  <SCORE.INTER.norm>
-0.554406

>  <SCORE.INTRA>
-6.49474

>  <SCORE.INTRA.DIHEDRAL>
-13.9801

>  <SCORE.INTRA.DIHEDRAL.0>
17.663

>  <SCORE.INTRA.POLAR>
0

>  <SCORE.INTRA.POLAR.0>
0

>  <SCORE.INTRA.REPUL>
0

>  <SCORE.INTRA.REPUL.0>
0

>  <SCORE.INTRA.VDW>
0.495283

>  <SCORE.INTRA.VDW.0>
-2.33205

>  <SCORE.INTRA.norm>
-0.28238

>  <SCORE.RESTR>
0.154594

>  <SCORE.RESTR.CAVITY>
0.154594

>  <SCORE.RESTR.norm>
0.00672149

>  <SCORE.SYSTEM>
3.66982

>  <SCORE.SYSTEM.CONST>
0

>  <SCORE.SYSTEM.DIHEDRAL>
4.35065

>  <SCORE.SYSTEM.VDW>
1.4945

>  <SCORE.SYSTEM.norm>
0.159557

>  <SCORE.heavy>
23

>  <SCORE.norm>
-0.670507

>  <SMILES>
CCCCCCCCO[C@@H]1O[C@H](CO)[C@@H](O)[C@@H](O)[C@H]1NC(C)=O

>  <UniqueID>
277

$$$$
ZINC000257346145
  rDOCK(R)          3D
libRbt.so/2013.1/901 2013/11/27
 24 26  0  0  0  0  0  0  0  0999 V2000
   83.0103   26.3304 -101.8862 H   0  0  0  0  0  0
   83.6726   26.9642 -102.3177 O   0  0  0  0  0  0
   85.0179   26.6300 -102.4270 C   0  0  0  0  0  0
   85.4332   25.4643 -102.0383 N   0  0  0  0  0  0
   86.8331   25.0465 -102.1281 C   0  0  0  0  0  0
   86.9848   23.8492 -103.0923 C   0  0  0  0  0  0
   86.0703   22.8380 -102.7455 O   0  0  0  0  0  0
   86.1918   22.1010 -103.3994 H   0  0  0  0  0  0
   88.4254   23.3188 -103.0198 C   0  0  0  0  0  0
   88.5617   22.1477 -103.8049 O   0  0  0  0  0  0
   89.7736   21.4433 -103.5340 C   0  0  0  0  0  0
   90.3866   21.0254 -104.8436 C   0  0  0  0  0  0
   90.5406   21.9647 -105.8783 C   0  0  0  0  0  0
   91.1157   21.5864 -107.0954 C   0  0  0  0  0  0
   91.5437   20.2704 -107.2887 C   0  0  0  0  0  0
   91.3986   19.3307 -106.2646 C   0  0  0  0  0  0
   90.8241   19.7043 -105.0455 C   0  0  0  0  0  0
   90.7282   22.2164 -102.8179 O   0  0  0  0  0  0
   90.2429   22.5090 -101.5198 C   0  0  0  0  0  0
   88.8026   23.0521 -101.5520 C   0  0  0  0  0  0
   88.7071   24.2461 -100.7951 O   0  0  0  0  0  0
   87.3541   24.6766 -100.7216 C   0  0  0  0  0  0
   87.2807   25.8302  -99.9051 O   0  0  0  0  0  0
   87.5420   25.4911  -98.5604 C   0  0  0  0  0  0
  1  2  1  0  0  0
  2  3  1  0  0  0
  3  4  2  0  0  0
  4  5  1  0  0  0
  5  6  1  0  0  0
  6  7  1  0  0  0
  6  9  1  0  0  0
  7  8  1  0  0  0
  9 10  1  0  0  0
 10 11  1  0  0  0
 11 12  1  0  0  0
 11 18  1  0  0  0
 12 13  2  0  0  0
 13 14  1  0  0  0
 14 15  2  0  0  0
 15 16  1  0  0  0
 16 17  2  0  0  0
 17 12  1  0  0  0
 18 19  1  0  0  0
 19 20  1  0  0  0
 20 21  1  0  0  0
 20  9  1  0  0  0
 21 22  1  0  0  0
 22 23  1  0  0  0
 22  5  1  0  0  0
 23 24  1  0  0  0
M  END
>  <CHROM.0>
79.76704037,154.34343691,-64.34600787

>  <CHROM.1>
3.65133548,-116.37009554,178.92978751,49.36597876,170.62368552,88.41053977
23.24876755,-102.95947866,2.35097291,-0.57883284,1.23219913

>  <Energy>
56.06447993684393

>  <Genealogy>
CO[C@@H]1O[C@@H]2CO[C@H](c3ccccc3)O[C@H]2[C@@H](O)[C@H]1N=CO (tautomer)
CO[C@@H]1O[C@@H]2CO[C@H](c3ccccc3)O[C@H]2[C@@H](O)[C@H]1/N=C\O (cis-trans isomerization)
CO[C@@H]1O[C@@H]2CO[C@H](c3ccccc3)O[C@H]2[C@@H](O)[C@H]1/N=C\O (3D coordinates assigned)
CO[C@@H]1O[C@@H]2CO[C@H](c3ccccc3)O[C@H]2[C@@H](O)[C@H]1/N=C\O (nonaromatic ring conformer: 56.06447993684393 kcal/mol)

>  <Name>
ZINC000257346145

>  <RI>
3.95439e+07

>  <Rbt.Current_Directory>
/home/edward/Documentos/Virtual_Screening/rDock/2

>  <Rbt.Executable>
rbdock ($Id: //depot/dev/client3/rdock/2013.1/src/exe/rbdock.cxx#4 $)

>  <Rbt.Library>
libRbt.so (2013.1, Build901 2013/11/27)

>  <Rbt.Parameter_File>
/home/edward/anaconda3/envs/MD/share/rdock-2013.1-1/data/scripts/dock.prm

>  <Rbt.Receptor>
parameters.prm

>  <SCORE>
-14.52

>  <SCORE.INTER>
-15.3513

>  <SCORE.INTER.CONST>
1

>  <SCORE.INTER.POLAR>
-2.34543

>  <SCORE.INTER.REPUL>
0

>  <SCORE.INTER.ROT>
3

>  <SCORE.INTER.VDW>
-15.7769

>  <SCORE.INTER.norm>
-0.697788

>  <SCORE.INTRA>
-2.31081

>  <SCORE.INTRA.DIHEDRAL>
-4.97546

>  <SCORE.INTRA.DIHEDRAL.0>
6.25484

>  <SCORE.INTRA.POLAR>
-0.0138989

>  <SCORE.INTRA.POLAR.0>
0

>  <SCORE.INTRA.REPUL>
0

>  <SCORE.INTRA.REPUL.0>
0

>  <SCORE.INTRA.VDW>
0.224173

>  <SCORE.INTRA.VDW.0>
-1.25771

>  <SCORE.INTRA.norm>
-0.105037

>  <SCORE.RESTR>
0

>  <SCORE.RESTR.CAVITY>
0

>  <SCORE.RESTR.norm>
0

>  <SCORE.SYSTEM>
3.14219

>  <SCORE.SYSTEM.CONST>
0

>  <SCORE.SYSTEM.DIHEDRAL>
4.89159

>  <SCORE.SYSTEM.VDW>
0.696393

>  <SCORE.SYSTEM.norm>
0.142827

>  <SCORE.heavy>
22

>  <SCORE.norm>
-0.659999

>  <SMILES>
CO[C@@H]1O[C@@H]2CO[C@H](c3ccccc3)O[C@H]2[C@@H](O)[C@H]1/N=C\O

>  <UniqueID>
279

$$$$
ZINC000257346492
  rDOCK(R)          3D
libRbt.so/2013.1/901 2013/11/27
 24 26  0  0  0  0  0  0  0  0999 V2000
   86.5509   14.3703 -105.6152 H   0  0  0  0  0  0
   86.3003   15.2277 -105.1821 O   0  0  0  0  0  0
   87.0535   15.3227 -103.9979 C   0  0  0  0  0  0
   86.5164   16.4494 -103.1048 C   0  0  0  0  0  0
   85.1336   16.2982 -102.8637 O   0  0  0  0  0  0
   84.6149   17.3648 -102.0636 C   0  0  0  0  0  0
   84.0180   16.7839 -100.7766 C   0  0  0  0  0  0
   85.0123   15.9179 -100.0447 C   0  0  0  0  0  0
   84.9933   14.5224 -100.2079 C   0  0  0  0  0  0
   85.8814   13.7169  -99.4884 C   0  0  0  0  0  0
   86.7883   14.2966  -98.5971 C   0  0  0  0  0  0
   86.8082   15.6830  -98.4229 C   0  0  0  0  0  0
   85.9232   16.4924  -99.1415 C   0  0  0  0  0  0
   85.5723   18.3665 -101.7251 O   0  0  0  0  0  0
   86.1566   18.9029 -102.8972 C   0  0  0  0  0  0
   86.7771   17.8025 -103.7767 C   0  0  0  0  0  0
   88.1714   18.0000 -103.9317 O   0  0  0  0  0  0
   88.6974   17.0625 -104.8652 C   0  0  0  0  0  0
   90.0789   17.3135 -105.0427 O   0  0  0  0  0  0
   90.2670   18.5280 -105.7362 C   0  0  0  0  0  0
   88.5329   15.6179 -104.3352 C   0  0  0  0  0  0
   89.0364   14.6694 -105.3254 N   0  0  0  0  0  0
   90.1661   14.1884 -105.2283 N   0  3  0  0  0  0
   91.2940   13.7079 -105.1309 N   0  5  0  0  0  0
  1  2  1  0  0  0
  2  3  1  0  0  0
  3  4  1  0  0  0
  4  5  1  0  0  0
  5  6  1  0  0  0
  6  7  1  0  0  0
  6 14  1  0  0  0
  7  8  1  0  0  0
  8  9  2  0  0  0
  9 10  1  0  0  0
 10 11  2  0  0  0
 11 12  1  0  0  0
 12 13  2  0  0  0
 13  8  1  0  0  0
 14 15  1  0  0  0
 15 16  1  0  0  0
 16 17  1  0  0  0
 16  4  1  0  0  0
 17 18  1  0  0  0
 18 19  1  0  0  0
 18 21  1  0  0  0
 19 20  1  0  0  0
 21 22  1  0  0  0
 21  3  1  0  0  0
 22 23  2  0  0  0
 23 24  2  0  0  0
M  END
>  <CHROM.0>
178.04704338,154.33825788,-66.16402464

>  <CHROM.1>
-167.37685383,53.95899978,-97.01772517,-69.73367171,-138.86843527,87.15808491
16.22576146,-102.79440972,-0.54498991,-0.75728167,2.46346897

>  <Energy>
54.385977310296745

>  <Genealogy>
CO[C@@H]1O[C@@H]2CO[C@H](Cc3ccccc3)O[C@H]2[C@@H](O)[C@H]1N=[N+]=[N-] (cis-trans isomerization)
CO[C@@H]1O[C@@H]2CO[C@H](Cc3ccccc3)O[C@H]2[C@@H](O)[C@H]1N=[N+]=[N-] (3D coordinates assigned)
CO[C@@H]1O[C@@H]2CO[C@H](Cc3ccccc3)O[C@H]2[C@@H](O)[C@H]1N=[N+]=[N-] (nonaromatic ring conformer: 54.385977310296745 kcal/mol)

>  <Name>
ZINC000257346492

>  <RI>
3.95439e+07

>  <Rbt.Current_Directory>
/home/edward/Documentos/Virtual_Screening/rDock/2

>  <Rbt.Executable>
rbdock ($Id: //depot/dev/client3/rdock/2013.1/src/exe/rbdock.cxx#4 $)

>  <Rbt.Library>
libRbt.so (2013.1, Build901 2013/11/27)

>  <Rbt.Parameter_File>
/home/edward/anaconda3/envs/MD/share/rdock-2013.1-1/data/scripts/dock.prm

>  <Rbt.Receptor>
parameters.prm

>  <SCORE>
-14.5703

>  <SCORE.INTER>
-14.6918

>  <SCORE.INTER.CONST>
1

>  <SCORE.INTER.POLAR>
-2.78684

>  <SCORE.INTER.REPUL>
0.0132277

>  <SCORE.INTER.ROT>
4

>  <SCORE.INTER.VDW>
-14.6827

>  <SCORE.INTER.norm>
-0.638776

>  <SCORE.INTRA>
-1.61937

>  <SCORE.INTRA.DIHEDRAL>
-3.70027

>  <SCORE.INTRA.DIHEDRAL.0>
6.31723

>  <SCORE.INTRA.POLAR>
0

>  <SCORE.INTRA.POLAR.0>
0

>  <SCORE.INTRA.REPUL>
0

>  <SCORE.INTRA.REPUL.0>
0

>  <SCORE.INTRA.VDW>
0.230762

>  <SCORE.INTRA.VDW.0>
-2.10976

>  <SCORE.INTRA.norm>
-0.0704076

>  <SCORE.RESTR>
0

>  <SCORE.RESTR.CAVITY>
0

>  <SCORE.RESTR.norm>
0

>  <SCORE.SYSTEM>
1.74097

>  <SCORE.SYSTEM.CONST>
0

>  <SCORE.SYSTEM.DIHEDRAL>
3.12018

>  <SCORE.SYSTEM.VDW>
0.180885

>  <SCORE.SYSTEM.norm>
0.0756945

>  <SCORE.heavy>
23

>  <SCORE.norm>
-0.633489

>  <SMILES>
CO[C@@H]1O[C@@H]2CO[C@H](Cc3ccccc3)O[C@H]2[C@@H](O)[C@H]1N=[N+]=[N-]

>  <UniqueID>
281

$$$$
ZINC000257346903
  rDOCK(R)          3D
libRbt.so/2013.1/901 2013/11/27
 29 30  0  0  0  0  0  0  0  0999 V2000
   91.1017   25.2981 -101.0248 H   0  0  0  0  0  0
   90.7621   24.5733 -101.6434 O   0  0  0  0  0  0
   89.4574   24.0818 -101.5830 C   0  0  0  0  0  0
   89.0668   23.1382 -102.3930 N   0  0  0  0  0  0
   89.8336   22.4556 -103.4455 C   0  0  0  0  0  0
   89.3786   22.8486 -104.8676 C   0  0  0  0  0  0
   88.0140   22.5173 -105.0554 O   0  0  0  0  0  0
   87.0028   23.7352 -104.4347 S   0  0  0  0  0  0
   86.3534   23.2906 -103.1531 O   0  0  0  0  0  0
   87.8385   24.9513 -104.1526 O   0  0  0  0  0  0
   85.7460   24.1749 -105.6170 C   0  0  0  0  0  0
   90.2426   22.0789 -105.8898 C   0  0  0  0  0  0
   89.7280   22.2757 -107.1829 O   0  0  0  0  0  0
   89.7893   23.2468 -107.3796 H   0  0  0  0  0  0
   90.2654   20.5657 -105.5436 C   0  0  0  0  0  0
   91.1466   19.7708 -106.5209 C   0  0  0  0  0  0
   92.5085   20.0324 -106.3068 O   0  0  0  0  0  0
   92.7200   19.7158 -105.3901 H   0  0  0  0  0  0
   90.7570   20.3624 -104.2275 O   0  0  0  0  0  0
   89.8730   20.9220 -103.2698 C   0  0  0  0  0  0
   90.3613   20.6369 -101.9721 O   0  0  0  0  0  0
   90.3435   19.2454 -101.7123 C   0  0  0  0  0  0
   90.8473   18.9660 -100.3007 C   0  0  0  0  0  0
   88.4907   24.6320 -100.6011 C   0  0  0  0  0  0
   88.8563   25.6810  -99.7359 C   0  0  0  0  0  0
   87.9394   26.1871  -98.8094 C   0  0  0  0  0  0
   86.6516   25.6529  -98.7327 C   0  0  0  0  0  0
   86.2788   24.6073  -99.5792 C   0  0  0  0  0  0
   87.1916   24.0959 -100.5065 C   0  0  0  0  0  0
  1  2  1  0  0  0
  2  3  1  0  0  0
  3  4  2  0  0  0
  3 24  1  0  0  0
  4  5  1  0  0  0
  5  6  1  0  0  0
  6  7  1  0  0  0
  6 12  1  0  0  0
  7  8  1  0  0  0
  8  9  2  0  0  0
  8 10  2  0  0  0
  8 11  1  0  0  0
 12 13  1  0  0  0
 12 15  1  0  0  0
 13 14  1  0  0  0
 15 16  1  0  0  0
 15 19  1  0  0  0
 16 17  1  0  0  0
 17 18  1  0  0  0
 19 20  1  0  0  0
 20 21  1  0  0  0
 20  5  1  0  0  0
 21 22  1  0  0  0
 22 23  1  0  0  0
 24 25  2  0  0  0
 25 26  1  0  0  0
 26 27  2  0  0  0
 27 28  1  0  0  0
 28 29  2  0  0  0
 29 24  1  0  0  0
M  END
>  <CHROM.0>
179.38629144,153.22293762,-65.79823773

>  <CHROM.1>
-179.38294725,1.63813019,-108.99978093,83.29951382,-106.30455184,62.09531486
71.96263025,63.03200701,176.27820338,-178.88863937,88.98586422,22.73545888
-103.14493505,-2.25811597,0.82589009,-1.74845432

>  <Energy>
51.488135597339806

>  <Genealogy>
CCO[C@@H]1O[C@H](CO)[C@@H](O)[C@@H](OS(C)(=O)=O)[C@H]1N=C(O)c1ccccc1 (tautomer)
CCO[C@@H]1O[C@H](CO)[C@@H](O)[C@@H](OS(C)(=O)=O)[C@H]1/N=C(/O)c1ccccc1 (cis-trans isomerization)
CCO[C@@H]1O[C@H](CO)[C@@H](O)[C@@H](OS(C)(=O)=O)[C@H]1/N=C(/O)c1ccccc1 (3D coordinates assigned)
CCO[C@@H]1O[C@H](CO)[C@@H](O)[C@@H](OS(C)(=O)=O)[C@H]1/N=C(/O)c1ccccc1 (nonaromatic ring conformer: 51.488135597339806 kcal/mol)

>  <Name>
ZINC000257346903

>  <RI>
3.95439e+07

>  <Rbt.Current_Directory>
/home/edward/Documentos/Virtual_Screening/rDock/2

>  <Rbt.Executable>
rbdock ($Id: //depot/dev/client3/rdock/2013.1/src/exe/rbdock.cxx#4 $)

>  <Rbt.Library>
libRbt.so (2013.1, Build901 2013/11/27)

>  <Rbt.Parameter_File>
/home/edward/anaconda3/envs/MD/share/rdock-2013.1-1/data/scripts/dock.prm

>  <Rbt.Receptor>
parameters.prm

>  <SCORE>
-19.0599

>  <SCORE.INTER>
-12.5524

>  <SCORE.INTER.CONST>
1

>  <SCORE.INTER.POLAR>
-1.91939

>  <SCORE.INTER.REPUL>
0

>  <SCORE.INTER.ROT>
7

>  <SCORE.INTER.VDW>
-18.4264

>  <SCORE.INTER.norm>
-0.482783

>  <SCORE.INTRA>
-8.24427

>  <SCORE.INTRA.DIHEDRAL>
-19.3619

>  <SCORE.INTRA.DIHEDRAL.0>
23.7394

>  <SCORE.INTRA.POLAR>
-0.00673031

>  <SCORE.INTRA.POLAR.0>
0

>  <SCORE.INTRA.REPUL>
-0.0288092

>  <SCORE.INTRA.REPUL.0>
0.0288092

>  <SCORE.INTRA.VDW>
1.60361

>  <SCORE.INTRA.VDW.0>
-5.00941

>  <SCORE.INTRA.norm>
-0.317087

>  <SCORE.RESTR>
0

>  <SCORE.RESTR.CAVITY>
0

>  <SCORE.RESTR.norm>
0

>  <SCORE.SYSTEM>
1.73676

>  <SCORE.SYSTEM.CONST>
0

>  <SCORE.SYSTEM.DIHEDRAL>
3.31352

>  <SCORE.SYSTEM.VDW>
0.0800013

>  <SCORE.SYSTEM.norm>
0.0667986

>  <SCORE.heavy>
26

>  <SCORE.norm>
-0.733072

>  <SMILES>
CCO[C@@H]1O[C@H](CO)[C@@H](O)[C@@H](OS(C)(=O)=O)[C@H]1/N=C(/O)c1ccccc1

>  <UniqueID>
284

$$$$
ZINC000257347638
  rDOCK(R)          3D
libRbt.so/2013.1/901 2013/11/27
 33 36  0  0  0  0  0  0  0  0999 V2000
   88.5230   17.4727 -101.8409 H   0  0  0  0  0  0
   89.0280   16.8848 -102.4922 O   0  0  0  0  0  0
   90.1026   17.3572 -103.2530 C   0  0  0  0  0  0
   90.5191   18.5787 -103.0938 N   0  0  0  0  0  0
   89.9315   19.5382 -102.1569 C   0  0  0  0  0  0
   89.6209   20.8777 -102.8667 C   0  0  0  0  0  0
   90.7864   21.3412 -103.5285 O   0  0  0  0  0  0
   90.4020   22.0279 -105.0365 S   0  0  0  0  0  0
   88.9846   21.6621 -105.3746 O   0  0  0  0  0  0
   91.3036   21.4981 -106.1189 O   0  0  0  0  0  0
   90.5269   23.8023 -104.9779 C   0  0  0  0  0  0
   89.1743   21.9004 -101.8051 C   0  0  0  0  0  0
   89.0027   23.1803 -102.3829 O   0  0  0  0  0  0
   88.8182   24.2044 -101.4032 C   0  0  0  0  0  0
   87.6530   25.0758 -101.7956 C   0  0  0  0  0  0
   86.5589   25.2193 -100.9205 C   0  0  0  0  0  0
   85.4518   25.9867 -101.2942 C   0  0  0  0  0  0
   85.4239   26.6128 -102.5450 C   0  0  0  0  0  0
   86.4927   26.4534 -103.4320 C   0  0  0  0  0  0
   87.5978   25.6789 -103.0661 C   0  0  0  0  0  0
   88.5821   23.7031 -100.0933 O   0  0  0  0  0  0
   89.7206   22.9967  -99.6341 C   0  0  0  0  0  0
   90.2048   21.9583 -100.6634 C   0  0  0  0  0  0
   90.3391   20.6869 -100.0552 O   0  0  0  0  0  0
   90.9013   19.7613 -100.9757 C   0  0  0  0  0  0
   91.1024   18.5204 -100.3259 O   0  0  0  0  0  0
   92.0109   18.6725  -99.2571 C   0  0  0  0  0  0
   90.7753   16.4835 -104.2455 C   0  0  0  0  0  0
   90.4267   15.1244 -104.3634 C   0  0  0  0  0  0
   91.0735   14.3046 -105.2940 C   0  0  0  0  0  0
   92.0759   14.8281 -106.1125 C   0  0  0  0  0  0
   92.4390   16.1727 -105.9987 C   0  0  0  0  0  0
   91.7964   16.9962 -105.0690 C   0  0  0  0  0  0
  1  2  1  0  0  0
  2  3  1  0  0  0
  3  4  2  0  0  0
  3 28  1  0  0  0
  4  5  1  0  0  0
  5  6  1  0  0  0
  6  7  1  0  0  0
  6 12  1  0  0  0
  7  8  1  0  0  0
  8  9  2  0  0  0
  8 10  2  0  0  0
  8 11  1  0  0  0
 12 13  1  0  0  0
 13 14  1  0  0  0
 14 15  1  0  0  0
 14 21  1  0  0  0
 15 16  2  0  0  0
 16 17  1  0  0  0
 17 18  2  0  0  0
 18 19  1  0  0  0
 19 20  2  0  0  0
 20 15  1  0  0  0
 21 22  1  0  0  0
 22 23  1  0  0  0
 23 24  1  0  0  0
 23 12  1  0  0  0
 24 25  1  0  0  0
 25 26  1  0  0  0
 25  5  1  0  0  0
 26 27  1  0  0  0
 28 29  2  0  0  0
 29 30  1  0  0  0
 30 31  2  0  0  0
 31 32  1  0  0  0
 32 33  2  0  0  0
 33 28  1  0  0  0
M  END
>  <CHROM.0>
179.69868673,107.13237799,-65.32736995

>  <CHROM.1>
2.86199938,-5.61143269,-129.66508466,140.79926164,-12.96529759,121.93848182
178.54851969,89.70859319,20.93147310,-102.86349458,-0.12954703,-1.17165638
1.68845232

>  <Energy>
75.58421494002728

>  <Genealogy>
CO[C@@H]1O[C@@H]2CO[C@H](c3ccccc3)O[C@H]2[C@@H](OS(C)(=O)=O)[C@H]1N=C(O)c1ccccc1 (tautomer)
CO[C@@H]1O[C@@H]2CO[C@H](c3ccccc3)O[C@H]2[C@@H](OS(C)(=O)=O)[C@H]1/N=C(/O)c1ccccc1 (cis-trans isomerization)
CO[C@@H]1O[C@@H]2CO[C@H](c3ccccc3)O[C@H]2[C@@H](OS(C)(=O)=O)[C@H]1/N=C(/O)c1ccccc1 (3D coordinates assigned)
CO[C@@H]1O[C@@H]2CO[C@H](c3ccccc3)O[C@H]2[C@@H](OS(C)(=O)=O)[C@H]1/N=C(/O)c1ccccc1 (nonaromatic ring conformer: 75.58421494002728 kcal/mol)

>  <Name>
ZINC000257347638

>  <RI>
3.95439e+07

>  <Rbt.Current_Directory>
/home/edward/Documentos/Virtual_Screening/rDock/2

>  <Rbt.Executable>
rbdock ($Id: //depot/dev/client3/rdock/2013.1/src/exe/rbdock.cxx#4 $)

>  <Rbt.Library>
libRbt.so (2013.1, Build901 2013/11/27)

>  <Rbt.Parameter_File>
/home/edward/anaconda3/envs/MD/share/rdock-2013.1-1/data/scripts/dock.prm

>  <Rbt.Receptor>
parameters.prm

>  <SCORE>
-16.1507

>  <SCORE.INTER>
-18.5042

>  <SCORE.INTER.CONST>
1

>  <SCORE.INTER.POLAR>
-0.74603

>  <SCORE.INTER.REPUL>
0

>  <SCORE.INTER.ROT>
6

>  <SCORE.INTER.VDW>
-27.3677

>  <SCORE.INTER.norm>
-0.578256

>  <SCORE.INTRA>
-0.157377

>  <SCORE.INTRA.DIHEDRAL>
-5.01611

>  <SCORE.INTRA.DIHEDRAL.0>
12.3713

>  <SCORE.INTRA.POLAR>
0

>  <SCORE.INTRA.POLAR.0>
0

>  <SCORE.INTRA.REPUL>
0

>  <SCORE.INTRA.REPUL.0>
0

>  <SCORE.INTRA.VDW>
2.35068

>  <SCORE.INTRA.VDW.0>
-4.02521

>  <SCORE.INTRA.norm>
-0.00491805

>  <SCORE.RESTR>
0

>  <SCORE.RESTR.CAVITY>
0

>  <SCORE.RESTR.norm>
0

>  <SCORE.SYSTEM>
2.5109

>  <SCORE.SYSTEM.CONST>
0

>  <SCORE.SYSTEM.DIHEDRAL>
6.72757

>  <SCORE.SYSTEM.VDW>
-0.852885

>  <SCORE.SYSTEM.norm>
0.0784656

>  <SCORE.heavy>
32

>  <SCORE.norm>
-0.504708

>  <SMILES>
CO[C@@H]1O[C@@H]2CO[C@H](c3ccccc3)O[C@H]2[C@@H](OS(C)(=O)=O)[C@H]1/N=C(/O)c1ccccc1

>  <UniqueID>
285

$$$$
ZINC000257347639
  rDOCK(R)          3D
libRbt.so/2013.1/901 2013/11/27
 33 36  0  0  0  0  0  0  0  0999 V2000
   89.7950   14.5047 -105.6161 H   0  0  0  0  0  0
   88.8290   14.6571 -105.3496 O   0  0  0  0  0  0
   88.4190   15.8564 -104.7749 C   0  0  0  0  0  0
   89.2944   16.8121 -104.6434 N   0  0  0  0  0  0
   89.0838   18.1313 -104.0356 C   0  0  0  0  0  0
   89.5090   19.2388 -105.0249 C   0  0  0  0  0  0
   90.8267   18.9852 -105.4832 O   0  0  0  0  0  0
   91.1388   19.8331 -106.9213 S   0  0  0  0  0  0
   89.8638   20.3688 -107.5127 O   0  0  0  0  0  0
   92.0445   20.9891 -106.6078 O   0  0  0  0  0  0
   91.9535   18.7764 -108.1001 C   0  0  0  0  0  0
   89.4664   20.5906 -104.2970 C   0  0  0  0  0  0
   89.9801   21.6187 -105.1180 O   0  0  0  0  0  0
   89.8971   22.8603 -104.4336 C   0  0  0  0  0  0
   90.3892   23.9338 -105.3687 C   0  0  0  0  0  0
   89.5224   24.9567 -105.7978 C   0  0  0  0  0  0
   89.9657   25.9170 -106.7124 C   0  0  0  0  0  0
   91.2697   25.8587 -107.2158 C   0  0  0  0  0  0
   92.1320   24.8393 -106.8061 C   0  0  0  0  0  0
   91.6942   23.8737 -105.8959 C   0  0  0  0  0  0
   90.7066   22.8590 -103.2638 O   0  0  0  0  0  0
   90.2499   21.8778 -102.3532 C   0  0  0  0  0  0
   90.2906   20.4993 -103.0063 C   0  0  0  0  0  0
   89.7433   19.5206 -102.1434 O   0  0  0  0  0  0
   89.8938   18.2290 -102.7218 C   0  0  0  0  0  0
   89.3952   17.2555 -101.8240 O   0  0  0  0  0  0
   90.2347   17.1598 -100.6945 C   0  0  0  0  0  0
   87.0232   15.9840 -104.3096 C   0  0  0  0  0  0
   86.4150   17.2448 -104.1957 C   0  0  0  0  0  0
   85.0858   17.3470 -103.7730 C   0  0  0  0  0  0
   84.3550   16.1939 -103.4739 C   0  0  0  0  0  0
   84.9549   14.9374 -103.5900 C   0  0  0  0  0  0
   86.2840   14.8313 -104.0135 C   0  0  0  0  0  0
  1  2  1  0  0  0
  2  3  1  0  0  0
  3  4  2  0  0  0
  3 28  1  0  0  0
  4  5  1  0  0  0
  5  6  1  0  0  0
  6  7  1  0  0  0
  6 12  1  0  0  0
  7  8  1  0  0  0
  8  9  2  0  0  0
  8 10  2  0  0  0
  8 11  1  0  0  0
 12 13  1  0  0  0
 13 14  1  0  0  0
 14 15  1  0  0  0
 14 21  1  0  0  0
 15 16  2  0  0  0
 16 17  1  0  0  0
 17 18  2  0  0  0
 18 19  1  0  0  0
 19 20  2  0  0  0
 20 15  1  0  0  0
 21 22  1  0  0  0
 22 23  1  0  0  0
 23 24  1  0  0  0
 23 12  1  0  0  0
 24 25  1  0  0  0
 25 26  1  0  0  0
 25  5  1  0  0  0
 26 27  1  0  0  0
 28 29  2  0  0  0
 29 30  1  0  0  0
 30 31  2  0  0  0
 31 32  1  0  0  0
 32 33  2  0  0  0
 33 28  1  0  0  0
M  END
>  <CHROM.0>
-174.59006588,153.43039845,48.05992189

>  <CHROM.1>
3.27930472,-156.05105142,-126.05927887,160.81312898,-13.32236779,116.77887684
170.72133779,89.50864906,19.72222472,-104.75633920,-2.56536610,1.03978334
0.62494540

>  <Energy>
73.92444780887698

>  <Genealogy>
CO[C@@H]1O[C@@H]2CO[C@@H](c3ccccc3)O[C@H]2[C@@H](OS(C)(=O)=O)[C@H]1N=C(O)c1ccccc1 (tautomer)
CO[C@@H]1O[C@@H]2CO[C@@H](c3ccccc3)O[C@H]2[C@@H](OS(C)(=O)=O)[C@H]1/N=C(/O)c1ccccc1 (cis-trans isomerization)
CO[C@@H]1O[C@@H]2CO[C@@H](c3ccccc3)O[C@H]2[C@@H](OS(C)(=O)=O)[C@H]1/N=C(/O)c1ccccc1 (3D coordinates assigned)
CO[C@@H]1O[C@@H]2CO[C@@H](c3ccccc3)O[C@H]2[C@@H](OS(C)(=O)=O)[C@H]1/N=C(/O)c1ccccc1 (nonaromatic ring conformer: 73.92444780887698 kcal/mol)

>  <Name>
ZINC000257347639

>  <RI>
3.95439e+07

>  <Rbt.Current_Directory>
/home/edward/Documentos/Virtual_Screening/rDock/2

>  <Rbt.Executable>
rbdock ($Id: //depot/dev/client3/rdock/2013.1/src/exe/rbdock.cxx#4 $)

>  <Rbt.Library>
libRbt.so (2013.1, Build901 2013/11/27)

>  <Rbt.Parameter_File>
/home/edward/anaconda3/envs/MD/share/rdock-2013.1-1/data/scripts/dock.prm

>  <Rbt.Receptor>
parameters.prm

>  <SCORE>
-18.4717

>  <SCORE.INTER>
-16.3105

>  <SCORE.INTER.CONST>
1

>  <SCORE.INTER.POLAR>
-1.60435

>  <SCORE.INTER.REPUL>
0.116511

>  <SCORE.INTER.ROT>
6

>  <SCORE.INTER.VDW>
-22.8383

>  <SCORE.INTER.norm>
-0.509704

>  <SCORE.INTRA>
-4.64425

>  <SCORE.INTRA.DIHEDRAL>
-13.3244

>  <SCORE.INTRA.DIHEDRAL.0>
19.4498

>  <SCORE.INTRA.POLAR>
0

>  <SCORE.INTRA.POLAR.0>
0

>  <SCORE.INTRA.REPUL>
0

>  <SCORE.INTRA.REPUL.0>
0

>  <SCORE.INTRA.VDW>
2.01795

>  <SCORE.INTRA.VDW.0>
-4.60383

>  <SCORE.INTRA.norm>
-0.145133

>  <SCORE.RESTR>
0

>  <SCORE.RESTR.CAVITY>
0

>  <SCORE.RESTR.norm>
0

>  <SCORE.SYSTEM>
2.48312

>  <SCORE.SYSTEM.CONST>
0

>  <SCORE.SYSTEM.DIHEDRAL>
3.40967

>  <SCORE.SYSTEM.VDW>
0.778286

>  <SCORE.SYSTEM.norm>
0.0775975

>  <SCORE.heavy>
32

>  <SCORE.norm>
-0.577239

>  <SMILES>
CO[C@@H]1O[C@@H]2CO[C@@H](c3ccccc3)O[C@H]2[C@@H](OS(C)(=O)=O)[C@H]1/N=C(/O)c1ccccc1

>  <UniqueID>
288

$$$$
ZINC000307008534
  rDOCK(R)          3D
libRbt.so/2013.1/901 2013/11/27
 19 19  0  0  0  0  0  0  0  0999 V2000
   91.0115   18.2577 -109.0966 C   0  0  0  0  0  0
   90.8173   18.0621 -107.6541 N   0  3  0  0  0  0
   90.3998   19.2538 -106.8706 C   0  0  0  0  0  0
   90.0190   18.9477 -105.3993 C   0  0  0  0  0  0
   91.1435   18.5210 -104.6484 O   0  0  0  0  0  0
   90.7278   17.9848 -103.4117 C   0  0  0  0  0  0
   89.4147   20.0928 -104.8087 O   0  0  0  0  0  0
   90.2994   21.2067 -104.7766 C   0  0  0  0  0  0
   89.6140   22.3468 -104.0064 C   0  0  0  0  0  0
   90.4489   23.4705 -103.9110 O   0  0  0  0  0  0
   90.7039   21.6477 -106.2108 C   0  0  0  0  0  0
   91.6100   22.7219 -106.1599 O   0  0  0  0  0  0
   91.3564   20.4669 -106.9540 C   0  0  0  0  0  0
   92.5989   20.1727 -106.3638 O   0  0  0  0  0  0
   91.7064   17.6840 -107.2511 H   0  0  0  0  0  0
   90.0906   17.3177 -107.5327 H   0  0  0  0  0  0
   89.9465   24.1578 -103.4007 H   0  0  0  0  0  0
   91.2151   23.4112 -105.5646 H   0  0  0  0  0  0
   92.4111   19.7612 -105.4802 H   0  0  0  0  0  0
  1  2  1  0  0  0
  2  3  1  0  0  0
  2 15  1  0  0  0
  2 16  1  0  0  0
  3  4  1  0  0  0
  4  5  1  0  0  0
  4  7  1  0  0  0
  5  6  1  0  0  0
  7  8  1  0  0  0
  8  9  1  0  0  0
  8 11  1  0  0  0
  9 10  1  0  0  0
 10 17  1  0  0  0
 11 12  1  0  0  0
 11 13  1  0  0  0
 12 18  1  0  0  0
 13 14  1  0  0  0
 13  3  1  0  0  0
 14 19  1  0  0  0
M  END
>  <CHROM.0>
179.44594610,152.75181905,-66.93695122

>  <CHROM.1>
171.86658950,-167.64528949,178.64084654,-179.64895684,-50.92658251,-48.13640925
90.75501837,20.24548145,-105.70750357,-1.17314482,1.27610971,0.20577285

>  <Energy>
40.488966298010276

>  <Genealogy>
C[NH2+][C@H]1[C@@H](OC)O[C@H](CO)[C@@H](O)[C@H]1O (protonated)
C[NH2+][C@H]1[C@@H](OC)O[C@H](CO)[C@@H](O)[C@H]1O (3D coordinates assigned)
C[NH2+][C@H]1[C@@H](OC)O[C@H](CO)[C@@H](O)[C@H]1O (nonaromatic ring conformer: 40.488966298010276 kcal/mol)

>  <Name>
ZINC000307008534

>  <RI>
3.95439e+07

>  <Rbt.Current_Directory>
/home/edward/Documentos/Virtual_Screening/rDock/2

>  <Rbt.Executable>
rbdock ($Id: //depot/dev/client3/rdock/2013.1/src/exe/rbdock.cxx#4 $)

>  <Rbt.Library>
libRbt.so (2013.1, Build901 2013/11/27)

>  <Rbt.Parameter_File>
/home/edward/anaconda3/envs/MD/share/rdock-2013.1-1/data/scripts/dock.prm

>  <Rbt.Receptor>
parameters.prm

>  <SCORE>
-19.5866

>  <SCORE.INTER>
-11.7952

>  <SCORE.INTER.CONST>
1

>  <SCORE.INTER.POLAR>
-2.55373

>  <SCORE.INTER.REPUL>
0

>  <SCORE.INTER.ROT>
3

>  <SCORE.INTER.VDW>
-11.5126

>  <SCORE.INTER.norm>
-0.842517

>  <SCORE.INTRA>
-9.53664

>  <SCORE.INTRA.DIHEDRAL>
-8.33339

>  <SCORE.INTRA.DIHEDRAL.0>
10.489

>  <SCORE.INTRA.POLAR>
-1.53809

>  <SCORE.INTRA.POLAR.0>
0

>  <SCORE.INTRA.REPUL>
-0.107328

>  <SCORE.INTRA.REPUL.0>
0.107328

>  <SCORE.INTRA.VDW>
0.396186

>  <SCORE.INTRA.VDW.0>
0.24452

>  <SCORE.INTRA.norm>
-0.681188

>  <SCORE.RESTR>
0.00675408

>  <SCORE.RESTR.CAVITY>
0.00675408

>  <SCORE.RESTR.norm>
0.000482434

>  <SCORE.SYSTEM>
1.73853

>  <SCORE.SYSTEM.CONST>
0

>  <SCORE.SYSTEM.DIHEDRAL>
3.38761

>  <SCORE.SYSTEM.VDW>
0.0447309

>  <SCORE.SYSTEM.norm>
0.124181

>  <SCORE.heavy>
14

>  <SCORE.norm>
-1.39904

>  <SMILES>
C[NH2+][C@H]1[C@@H](OC)O[C@H](CO)[C@@H](O)[C@H]1O

>  <UniqueID>
289

$$$$
ZINC000307565252
  rDOCK(R)          3D
libRbt.so/2013.1/901 2013/11/27
 27 29  0  0  0  0  0  0  0  0999 V2000
   86.2751   17.2323 -101.3585 C   0  0  0  0  0  0
   87.5322   16.7202 -101.7463 O   0  0  0  0  0  0
   88.2174   17.6565 -102.5657 C   0  0  0  0  0  0
   87.5707   17.7978 -103.8232 O   0  0  0  0  0  0
   87.4881   16.5887 -104.5804 C   0  0  0  0  0  0
   86.0889   15.9693 -104.4617 C   0  0  0  0  0  0
   85.8797   15.0651 -105.5110 O   0  0  0  0  0  0
   88.5997   15.5469 -104.2806 C   0  0  0  0  0  0
   88.7633   14.6978 -105.3882 O   0  0  0  0  0  0
   89.9125   16.2776 -103.9636 C   0  0  0  0  0  0
   90.3433   16.9906 -105.0958 O   0  0  0  0  0  0
   89.7119   17.2206 -102.7406 C   0  0  0  0  0  0
   90.6872   18.3546 -102.7377 N   0  3  0  0  0  0
   90.8972   18.8648 -101.4001 C   0  0  0  0  0  0
   91.3791   18.1740 -100.4620 O   0  0  0  0  0  0
   90.5539   20.2729 -101.2788 C   0  0  0  0  0  0
   90.5956   21.1339 -100.1829 C   0  0  0  0  0  0
   90.1971   22.4687 -100.3783 C   0  0  0  0  0  0
   89.7732   22.9069 -101.6517 C   0  0  0  0  0  0
   89.7452   22.0131 -102.7374 C   0  0  0  0  0  0
   90.1451   20.6968 -102.5101 C   0  0  0  0  0  0
   90.2272   19.5557 -103.4092 C   0  0  0  0  0  0
   89.9714   19.6174 -104.6411 O   0  0  0  0  0  0
   86.6331   14.4202 -105.4733 H   0  0  0  0  0  0
   89.5101   14.0811 -105.1692 H   0  0  0  0  0  0
   90.0545   16.4758 -105.8941 H   0  0  0  0  0  0
   91.6156   18.0664 -103.1266 H   0  0  0  0  0  0
  1  2  1  0  0  0
  2  3  1  0  0  0
  3  4  1  0  0  0
  4  5  1  0  0  0
  5  6  1  0  0  0
  5  8  1  0  0  0
  6  7  1  0  0  0
  7 24  1  0  0  0
  8  9  1  0  0  0
  8 10  1  0  0  0
  9 25  1  0  0  0
 10 11  1  0  0  0
 10 12  1  0  0  0
 11 26  1  0  0  0
 12 13  1  0  0  0
 12  3  1  0  0  0
 13 14  1  0  0  0
 13 27  1  0  0  0
 14 15  2  0  0  0
 14 16  1  0  0  0
 16 17  2  0  0  0
 17 18  1  0  0  0
 18 19  2  0  0  0
 19 20  1  0  0  0
 20 21  2  0  0  0
 21 22  1  0  0  0
 21 16  1  0  0  0
 22 23  2  0  0  0
 22 13  1  0  0  0
M  END
>  <CHROM.0>
-179.47927483,154.70749306,52.31199967

>  <CHROM.1>
-68.38126235,160.94698880,54.81239207,177.26878579,-32.20243383,75.51658596
89.09505801,18.18943384,-102.99592393,2.02454303,-0.32377150,-2.45678390

>  <Energy>
87.56780905347793

>  <Genealogy>
CO[C@@H]1O[C@H](CO)[C@@H](O)[C@@H](O)[C@H]1[NH+]1C(=O)c2ccccc2C1=O (protonated)
CO[C@@H]1O[C@H](CO)[C@@H](O)[C@@H](O)[C@H]1[NH+]1C(=O)c2ccccc2C1=O (3D coordinates assigned)
CO[C@@H]1O[C@H](CO)[C@@H](O)[C@@H](O)[C@H]1[NH+]1C(=O)c2ccccc2C1=O (nonaromatic ring conformer: 87.56780905347793 kcal/mol)

>  <Name>
ZINC000307565252

>  <RI>
3.95439e+07

>  <Rbt.Current_Directory>
/home/edward/Documentos/Virtual_Screening/rDock/2

>  <Rbt.Executable>
rbdock ($Id: //depot/dev/client3/rdock/2013.1/src/exe/rbdock.cxx#4 $)

>  <Rbt.Library>
libRbt.so (2013.1, Build901 2013/11/27)

>  <Rbt.Parameter_File>
/home/edward/anaconda3/envs/MD/share/rdock-2013.1-1/data/scripts/dock.prm

>  <Rbt.Receptor>
parameters.prm

>  <SCORE>
-20.8473

>  <SCORE.INTER>
-22.9611

>  <SCORE.INTER.CONST>
1

>  <SCORE.INTER.POLAR>
-4.424

>  <SCORE.INTER.REPUL>
0.0125843

>  <SCORE.INTER.ROT>
3

>  <SCORE.INTER.VDW>
-16.3824

>  <SCORE.INTER.norm>
-0.998309

>  <SCORE.INTRA>
-0.292576

>  <SCORE.INTRA.DIHEDRAL>
0.0805719

>  <SCORE.INTRA.DIHEDRAL.0>
5.86777

>  <SCORE.INTRA.POLAR>
-0.59516

>  <SCORE.INTRA.POLAR.0>
0

>  <SCORE.INTRA.REPUL>
0

>  <SCORE.INTRA.REPUL.0>
0

>  <SCORE.INTRA.VDW>
1.69068

>  <SCORE.INTRA.VDW.0>
-2.53055

>  <SCORE.INTRA.norm>
-0.0127207

>  <SCORE.RESTR>
0

>  <SCORE.RESTR.CAVITY>
0

>  <SCORE.RESTR.norm>
0

>  <SCORE.SYSTEM>
2.40641

>  <SCORE.SYSTEM.CONST>
0

>  <SCORE.SYSTEM.DIHEDRAL>
3.02127

>  <SCORE.SYSTEM.VDW>
0.895772

>  <SCORE.SYSTEM.norm>
0.104626

>  <SCORE.heavy>
23

>  <SCORE.norm>
-0.906404

>  <SMILES>
CO[C@@H]1O[C@H](CO)[C@@H](O)[C@@H](O)[C@H]1[NH+]1C(=O)c2ccccc2C1=O

>  <UniqueID>
292

$$$$
ZINC000383920275
  rDOCK(R)          3D
libRbt.so/2013.1/901 2013/11/27
 18 19  0  0  0  0  0  0  0  0999 V2000
   89.7400   23.1173 -101.9563 C   0  0  0  0  0  0
   89.8234   22.0568 -101.0287 O   0  0  0  0  0  0
   89.7561   20.8024 -101.6863 C   0  0  0  0  0  0
   90.9395   20.6457 -102.4467 O   0  0  0  0  0  0
   90.9202   19.4941 -103.2893 C   0  0  0  0  0  0
   90.5863   19.9117 -104.7267 C   0  0  0  0  0  0
   91.6518   20.6436 -105.2666 O   0  0  0  0  0  0
   89.9955   18.3346 -102.8129 C   0  0  0  0  0  0
   90.4697   17.1125 -103.3179 O   0  0  0  0  0  0
   89.9174   18.2810 -101.2784 C   0  0  0  0  0  0
   91.1502   17.8653 -100.7136 O   0  0  0  0  0  0
   91.5424   18.7909  -99.7699 C   0  0  0  0  0  0
   92.6814   18.6455  -98.9885 O   0  0  0  0  0  0
   90.7621   19.8081  -99.6695 N   0  0  0  0  0  0
   89.6781   19.6710 -100.6388 C   0  0  0  0  0  0
   92.4661   20.0970 -105.1149 H   0  0  0  0  0  0
   91.3995   17.0058 -102.9861 H   0  0  0  0  0  0
   93.2607   17.8197  -99.0765 H   0  0  0  0  0  0
  1  2  1  0  0  0
  2  3  1  0  0  0
  3  4  1  0  0  0
  4  5  1  0  0  0
  5  6  1  0  0  0
  5  8  1  0  0  0
  6  7  1  0  0  0
  7 16  1  0  0  0
  8  9  1  0  0  0
  8 10  1  0  0  0
  9 17  1  0  0  0
 10 11  1  0  0  0
 11 12  1  0  0  0
 12 13  1  0  0  0
 12 14  2  0  0  0
 13 18  1  0  0  0
 14 15  1  0  0  0
 15  3  1  0  0  0
 15 10  1  0  0  0
M  END
>  <CHROM.0>
179.36920153,152.67125826,-66.82961792

>  <CHROM.1>
68.19034359,68.96335739,51.27686395,58.46726127,-1.56460957,90.69176153,19.68215021
-101.87093017,2.26338109,1.33185338,-1.79715602

>  <Energy>
49.877803237152534

>  <Genealogy>
CO[C@H]1O[C@H](CO)[C@@H](O)[C@H]2OC(O)=N[C@@H]12 (tautomer)
CO[C@H]1O[C@H](CO)[C@@H](O)[C@H]2OC(O)=N[C@@H]12 (3D coordinates assigned)
CO[C@H]1O[C@H](CO)[C@@H](O)[C@H]2OC(O)=N[C@@H]12 (nonaromatic ring conformer: 49.877803237152534 kcal/mol)

>  <Name>
ZINC000383920275

>  <RI>
3.95439e+07

>  <Rbt.Current_Directory>
/home/edward/Documentos/Virtual_Screening/rDock/2

>  <Rbt.Executable>
rbdock ($Id: //depot/dev/client3/rdock/2013.1/src/exe/rbdock.cxx#4 $)

>  <Rbt.Library>
libRbt.so (2013.1, Build901 2013/11/27)

>  <Rbt.Parameter_File>
/home/edward/anaconda3/envs/MD/share/rdock-2013.1-1/data/scripts/dock.prm

>  <Rbt.Receptor>
parameters.prm

>  <SCORE>
-16.8181

>  <SCORE.INTER>
-17.7852

>  <SCORE.INTER.CONST>
1

>  <SCORE.INTER.POLAR>
-3.64718

>  <SCORE.INTER.REPUL>
0

>  <SCORE.INTER.ROT>
2

>  <SCORE.INTER.VDW>
-12.7848

>  <SCORE.INTER.norm>
-1.18568

>  <SCORE.INTRA>
-1.13654

>  <SCORE.INTRA.DIHEDRAL>
-4.16427

>  <SCORE.INTRA.DIHEDRAL.0>
5.34493

>  <SCORE.INTRA.POLAR>
-0.000747213

>  <SCORE.INTRA.POLAR.0>
0

>  <SCORE.INTRA.REPUL>
0

>  <SCORE.INTRA.REPUL.0>
0

>  <SCORE.INTRA.VDW>
0.948137

>  <SCORE.INTRA.VDW.0>
-0.584496

>  <SCORE.INTRA.norm>
-0.0757692

>  <SCORE.RESTR>
0.36416

>  <SCORE.RESTR.CAVITY>
0.36416

>  <SCORE.RESTR.norm>
0.0242773

>  <SCORE.SYSTEM>
1.73951

>  <SCORE.SYSTEM.CONST>
0

>  <SCORE.SYSTEM.DIHEDRAL>
3.40405

>  <SCORE.SYSTEM.VDW>
0.0374888

>  <SCORE.SYSTEM.norm>
0.115968

>  <SCORE.heavy>
15

>  <SCORE.norm>
-1.12121

>  <SMILES>
CO[C@H]1O[C@H](CO)[C@@H](O)[C@H]2OC(O)=N[C@@H]12

>  <UniqueID>
294

$$$$
ZINC000394934764
  rDOCK(R)          3D
libRbt.so/2013.1/901 2013/11/27
 18 18  0  0  0  0  0  0  0  0999 V2000
   91.4680   20.7425 -106.0440 H   0  0  0  0  0  0
   91.4578   21.2339 -105.1812 O   0  0  0  0  0  0
   90.3623   20.7462 -104.4544 C   0  0  0  0  0  0
   90.5227   19.2424 -104.1874 C   0  0  0  0  0  0
   89.3803   18.7910 -103.4746 O   0  0  0  0  0  0
   89.4995   17.4252 -103.0965 C   0  0  0  0  0  0
   90.6091   17.2157 -102.2359 O   0  0  0  0  0  0
   90.3650   17.8043 -100.9770 C   0  0  0  0  0  0
   89.5995   16.5177 -104.3406 C   0  0  0  0  0  0
   89.7431   15.1238 -103.9276 N   0  0  0  0  0  0
   90.3721   14.3180 -104.6146 N   0  3  0  0  0  0
   91.0004   13.5133 -105.3006 N   0  5  0  0  0  0
   90.7680   16.9492 -105.2483 C   0  0  0  0  0  0
   91.9928   16.6299 -104.6333 O   0  0  0  0  0  0
   91.9858   17.0499 -103.7338 H   0  0  0  0  0  0
   90.6724   18.4631 -105.5191 C   0  0  0  0  0  0
   91.7756   18.9082 -106.2716 O   0  0  0  0  0  0
   92.5759   18.8857 -105.6848 H   0  0  0  0  0  0
  1  2  1  0  0  0
  2  3  1  0  0  0
  3  4  1  0  0  0
  4  5  1  0  0  0
  5  6  1  0  0  0
  6  7  1  0  0  0
  6  9  1  0  0  0
  7  8  1  0  0  0
  9 10  1  0  0  0
  9 13  1  0  0  0
 10 11  2  0  0  0
 11 12  2  0  0  0
 13 14  1  0  0  0
 13 16  1  0  0  0
 14 15  1  0  0  0
 16 17  1  0  0  0
 16  4  1  0  0  0
 17 18  1  0  0  0
M  END
>  <CHROM.0>
-179.37280972,154.29943678,-65.77474635

>  <CHROM.1>
61.05660006,-178.84573589,69.57241995,-149.25880983,-54.65963614,52.65640661
90.59101757,17.58838221,-104.22861087,-1.35868109,-1.20453450,-3.01844936

>  <Energy>
27.80516321763774

>  <Genealogy>
CO[C@H]1O[C@H](CO)[C@@H](O)[C@@H](O)[C@H]1N=[N+]=[N-] (cis-trans isomerization)
CO[C@H]1O[C@H](CO)[C@@H](O)[C@@H](O)[C@H]1N=[N+]=[N-] (3D coordinates assigned)
CO[C@H]1O[C@H](CO)[C@@H](O)[C@@H](O)[C@H]1N=[N+]=[N-] (nonaromatic ring conformer: 27.80516321763774 kcal/mol)

>  <Name>
ZINC000394934764

>  <RI>
3.95439e+07

>  <Rbt.Current_Directory>
/home/edward/Documentos/Virtual_Screening/rDock/2

>  <Rbt.Executable>
rbdock ($Id: //depot/dev/client3/rdock/2013.1/src/exe/rbdock.cxx#4 $)

>  <Rbt.Library>
libRbt.so (2013.1, Build901 2013/11/27)

>  <Rbt.Parameter_File>
/home/edward/anaconda3/envs/MD/share/rdock-2013.1-1/data/scripts/dock.prm

>  <Rbt.Receptor>
parameters.prm

>  <SCORE>
-14.8875

>  <SCORE.INTER>
-11.6175

>  <SCORE.INTER.CONST>
1

>  <SCORE.INTER.POLAR>
-2.02127

>  <SCORE.INTER.REPUL>
0.00734478

>  <SCORE.INTER.ROT>
3

>  <SCORE.INTER.VDW>
-13.1819

>  <SCORE.INTER.norm>
-0.774501

>  <SCORE.INTRA>
-5.00502

>  <SCORE.INTRA.DIHEDRAL>
-5.84684

>  <SCORE.INTRA.DIHEDRAL.0>
7.95106

>  <SCORE.INTRA.POLAR>
-0.954355

>  <SCORE.INTRA.POLAR.0>
0

>  <SCORE.INTRA.REPUL>
-0.0803261

>  <SCORE.INTRA.REPUL.0>
0.0803261

>  <SCORE.INTRA.VDW>
1.56484

>  <SCORE.INTRA.VDW.0>
-0.99639

>  <SCORE.INTRA.norm>
-0.333668

>  <SCORE.RESTR>
0

>  <SCORE.RESTR.CAVITY>
0

>  <SCORE.RESTR.norm>
0

>  <SCORE.SYSTEM>
1.73505

>  <SCORE.SYSTEM.CONST>
0

>  <SCORE.SYSTEM.DIHEDRAL>
3.11552

>  <SCORE.SYSTEM.VDW>
0.177287

>  <SCORE.SYSTEM.norm>
0.11567

>  <SCORE.heavy>
15

>  <SCORE.norm>
-0.992499

>  <SMILES>
CO[C@H]1O[C@H](CO)[C@@H](O)[C@@H](O)[C@H]1N=[N+]=[N-]

>  <UniqueID>
295

$$$$
ZINC000396869768
  rDOCK(R)          3D
libRbt.so/2013.1/901 2013/11/27
 18 18  0  0  0  0  0  0  0  0999 V2000
   86.0129   25.2238  -99.4916 C   0  0  0  0  0  0
   85.8587   24.9788 -100.8723 O   0  0  0  0  0  0
   86.3670   26.0629 -101.6288 C   0  0  0  0  0  0
   86.3139   25.7473 -103.1411 C   0  0  0  0  0  0
   84.9849   25.6789 -103.6515 O   0  0  0  0  0  0
   84.3715   26.9440 -103.8577 C   0  0  0  0  0  0
   84.1172   27.5821 -102.6319 O   0  0  0  0  0  0
   85.1890   27.8493 -104.8055 C   0  0  0  0  0  0
   85.2032   27.2809 -106.1581 N   0  0  0  0  0  0
   86.6211   28.0182 -104.2547 C   0  0  0  0  0  0
   87.4354   28.7280 -105.1766 O   0  0  0  0  0  0
   88.5851   29.2425 -104.5404 C   0  0  0  0  0  0
   87.2562   26.6431 -103.9873 C   0  0  0  0  0  0
   87.5217   26.0024 -105.2278 O   0  0  0  0  0  0
   88.3858   24.9012 -105.0515 C   0  0  0  0  0  0
   83.5204   26.9837 -102.1108 H   0  0  0  0  0  0
   84.2154   27.1552 -106.4776 H   0  0  0  0  0  0
   85.6035   26.3158 -106.1097 H   0  0  0  0  0  0
  1  2  1  0  0  0
  2  3  1  0  0  0
  3  4  1  0  0  0
  4  5  1  0  0  0
  5  6  1  0  0  0
  6  7  1  0  0  0
  6  8  1  0  0  0
  7 16  1  0  0  0
  8  9  1  0  0  0
  8 10  1  0  0  0
  9 17  1  0  0  0
  9 18  1  0  0  0
 10 11  1  0  0  0
 10 13  1  0  0  0
 11 12  1  0  0  0
 13 14  1  0  0  0
 13  4  1  0  0  0
 14 15  1  0  0  0
M  END
>  <CHROM.0>
178.83179275,153.33732618,-67.34904570

>  <CHROM.1>
175.04412030,68.24466138,-59.20387222,56.40377629,161.87051921,-72.55053901
86.26971126,26.71004520,-103.62668547,-1.87453532,0.30279462,-0.98855514

>  <Energy>
44.952116378952

>  <Genealogy>
COC[C@H]1O[C@@H](O)[C@H](N)[C@H](OC)[C@@H]1OC (3D coordinates assigned)
COC[C@H]1O[C@@H](O)[C@H](N)[C@H](OC)[C@@H]1OC (nonaromatic ring conformer: 44.952116378952 kcal/mol)

>  <Name>
ZINC000396869768

>  <RI>
3.95439e+07

>  <Rbt.Current_Directory>
/home/edward/Documentos/Virtual_Screening/rDock/2

>  <Rbt.Executable>
rbdock ($Id: //depot/dev/client3/rdock/2013.1/src/exe/rbdock.cxx#4 $)

>  <Rbt.Library>
libRbt.so (2013.1, Build901 2013/11/27)

>  <Rbt.Parameter_File>
/home/edward/anaconda3/envs/MD/share/rdock-2013.1-1/data/scripts/dock.prm

>  <Rbt.Receptor>
parameters.prm

>  <SCORE>
-14.981

>  <SCORE.INTER>
-8.45103

>  <SCORE.INTER.CONST>
1

>  <SCORE.INTER.POLAR>
-2.47306

>  <SCORE.INTER.REPUL>
0

>  <SCORE.INTER.ROT>
5

>  <SCORE.INTER.VDW>
-10.4426

>  <SCORE.INTER.norm>
-0.563402

>  <SCORE.INTRA>
-8.26668

>  <SCORE.INTRA.DIHEDRAL>
-14.1494

>  <SCORE.INTRA.DIHEDRAL.0>
17.1516

>  <SCORE.INTRA.POLAR>
-0.398121

>  <SCORE.INTRA.POLAR.0>
0

>  <SCORE.INTRA.REPUL>
-0.27145

>  <SCORE.INTRA.REPUL.0>
0.27145

>  <SCORE.INTRA.VDW>
1.51888

>  <SCORE.INTRA.VDW.0>
-1.4589

>  <SCORE.INTRA.norm>
-0.551112

>  <SCORE.RESTR>
0

>  <SCORE.RESTR.CAVITY>
0

>  <SCORE.RESTR.norm>
0

>  <SCORE.SYSTEM>
1.73674

>  <SCORE.SYSTEM.CONST>
0

>  <SCORE.SYSTEM.DIHEDRAL>
3.28075

>  <SCORE.SYSTEM.VDW>
0.096362

>  <SCORE.SYSTEM.norm>
0.115783

>  <SCORE.heavy>
15

>  <SCORE.norm>
-0.998731

>  <SMILES>
COC[C@H]1O[C@@H](O)[C@H](N)[C@H](OC)[C@@H]1OC

>  <UniqueID>
298

$$$$
ZINC000575124622
  rDOCK(R)          3D
libRbt.so/2013.1/901 2013/11/27
 25 27  0  0  0  0  0  0  0  0999 V2000
   82.8919   26.2684 -102.0763 H   0  0  0  0  0  0
   83.4613   26.8540 -102.6753 O   0  0  0  0  0  0
   84.8223   26.6078 -102.8390 C   0  0  0  0  0  0
   85.3586   25.5796 -102.2406 N   0  0  0  0  0  0
   86.7691   25.1762 -102.2648 C   0  0  0  0  0  0
   86.9532   23.9947 -103.2428 C   0  0  0  0  0  0
   86.0507   22.9564 -102.9477 O   0  0  0  0  0  0
   86.2696   22.1990 -103.5519 H   0  0  0  0  0  0
   88.3922   23.4694 -103.1324 C   0  0  0  0  0  0
   88.5616   22.3195 -103.9426 O   0  0  0  0  0  0
   89.7481   21.5900 -103.6210 C   0  0  0  0  0  0
   90.4353   21.1044 -104.8772 C   0  0  0  0  0  0
   90.6045   22.0030 -105.9487 C   0  0  0  0  0  0
   91.1589   21.5709 -107.1550 C   0  0  0  0  0  0
   91.5579   20.2398 -107.3031 C   0  0  0  0  0  0
   91.4097   19.3388 -106.2417 C   0  0  0  0  0  0
   90.8502   19.7642 -105.0338 C   0  0  0  0  0  0
   90.6846   22.3545 -102.8726 O   0  0  0  0  0  0
   90.1626   22.6375 -101.5861 C   0  0  0  0  0  0
   88.7203   23.1703 -101.6567 C   0  0  0  0  0  0
   88.5900   24.3437 -100.8751 O   0  0  0  0  0  0
   87.2328   24.7669 -100.8449 C   0  0  0  0  0  0
   87.1225   25.8882  -99.9897 O   0  0  0  0  0  0
   87.3345   25.4998  -98.6491 C   0  0  0  0  0  0
   85.6114   27.5337 -103.7196 C   0  0  0  0  0  0
  1  2  1  0  0  0
  2  3  1  0  0  0
  3  4  2  0  0  0
  3 25  1  0  0  0
  4  5  1  0  0  0
  5  6  1  0  0  0
  6  7  1  0  0  0
  6  9  1  0  0  0
  7  8  1  0  0  0
  9 10  1  0  0  0
 10 11  1  0  0  0
 11 12  1  0  0  0
 11 18  1  0  0  0
 12 13  2  0  0  0
 13 14  1  0  0  0
 14 15  2  0  0  0
 15 16  1  0  0  0
 16 17  2  0  0  0
 17 12  1  0  0  0
 18 19  1  0  0  0
 19 20  1  0  0  0
 20 21  1  0  0  0
 20  9  1  0  0  0
 21 22  1  0  0  0
 22 23  1  0  0  0
 22  5  1  0  0  0
 23 24  1  0  0  0
M  END
>  <CHROM.0>
178.83801240,153.27817549,-70.57479323

>  <CHROM.1>
2.12813230,-102.20303108,-175.06058313,46.16050529,170.80204899,88.23376836
23.50796972,-103.10842131,2.47579171,-0.66959441,1.32136550

>  <Energy>
63.05752254387501

>  <Genealogy>
CO[C@@H]1O[C@@H]2CO[C@H](c3ccccc3)O[C@H]2[C@@H](O)[C@H]1N=C(C)O (tautomer)
CO[C@@H]1O[C@@H]2CO[C@H](c3ccccc3)O[C@H]2[C@@H](O)[C@H]1/N=C(/C)O (cis-trans isomerization)
CO[C@@H]1O[C@@H]2CO[C@H](c3ccccc3)O[C@H]2[C@@H](O)[C@H]1/N=C(/C)O (3D coordinates assigned)
CO[C@@H]1O[C@@H]2CO[C@H](c3ccccc3)O[C@H]2[C@@H](O)[C@H]1/N=C(/C)O (nonaromatic ring conformer: 63.05752254387501 kcal/mol)

>  <Name>
ZINC000575124622

>  <RI>
3.95439e+07

>  <Rbt.Current_Directory>
/home/edward/Documentos/Virtual_Screening/rDock/2

>  <Rbt.Executable>
rbdock ($Id: //depot/dev/client3/rdock/2013.1/src/exe/rbdock.cxx#4 $)

>  <Rbt.Library>
libRbt.so (2013.1, Build901 2013/11/27)

>  <Rbt.Parameter_File>
/home/edward/anaconda3/envs/MD/share/rdock-2013.1-1/data/scripts/dock.prm

>  <Rbt.Receptor>
parameters.prm

>  <SCORE>
-16.0624

>  <SCORE.INTER>
-16.3229

>  <SCORE.INTER.CONST>
1

>  <SCORE.INTER.POLAR>
-2.482

>  <SCORE.INTER.REPUL>
0

>  <SCORE.INTER.ROT>
3

>  <SCORE.INTER.VDW>
-16.2841

>  <SCORE.INTER.norm>
-0.709692

>  <SCORE.INTRA>
-1.50108

>  <SCORE.INTRA.DIHEDRAL>
-3.43503

>  <SCORE.INTRA.DIHEDRAL.0>
5.15577

>  <SCORE.INTRA.POLAR>
-0.0611599

>  <SCORE.INTRA.POLAR.0>
0

>  <SCORE.INTRA.REPUL>
0

>  <SCORE.INTRA.REPUL.0>
0

>  <SCORE.INTRA.VDW>
0.424382

>  <SCORE.INTRA.VDW.0>
-1.64366

>  <SCORE.INTRA.norm>
-0.0652643

>  <SCORE.RESTR>
0

>  <SCORE.RESTR.CAVITY>
0

>  <SCORE.RESTR.norm>
0

>  <SCORE.SYSTEM>
1.76158

>  <SCORE.SYSTEM.CONST>
0

>  <SCORE.SYSTEM.DIHEDRAL>
3.28915

>  <SCORE.SYSTEM.VDW>
0.117005

>  <SCORE.SYSTEM.norm>
0.0765905

>  <SCORE.heavy>
23

>  <SCORE.norm>
-0.698366

>  <SMILES>
CO[C@@H]1O[C@@H]2CO[C@H](c3ccccc3)O[C@H]2[C@@H](O)[C@H]1/N=C(/C)O

>  <UniqueID>
300

$$$$
ZINC000575124647
  rDOCK(R)          3D
libRbt.so/2013.1/901 2013/11/27
 22 22  0  0  0  0  0  0  0  0999 V2000
   88.7744   15.5066 -105.5992 H   0  0  0  0  0  0
   89.2990   14.6532 -105.4490 O   0  0  0  0  0  0
   90.6919   14.6646 -105.3830 C   0  0  0  0  0  0
   91.3504   15.7844 -105.4262 N   0  0  0  0  0  0
   90.7383   17.1143 -105.4969 C   0  0  0  0  0  0
   91.5867   18.0213 -106.4158 C   0  0  0  0  0  0
   92.9676   17.8741 -106.1745 O   0  0  0  0  0  0
   93.1550   18.1509 -105.2424 H   0  0  0  0  0  0
   91.1414   19.4971 -106.3085 C   0  0  0  0  0  0
   92.0788   20.3340 -106.9366 O   0  0  0  0  0  0
   92.0867   20.0834 -107.8972 H   0  0  0  0  0  0
   90.9711   19.9114 -104.8277 C   0  0  0  0  0  0
   90.4431   21.3485 -104.6992 C   0  0  0  0  0  0
   89.1653   21.4691 -105.2676 O   0  0  0  0  0  0
   88.9073   22.4251 -105.1993 H   0  0  0  0  0  0
   90.0661   19.0389 -104.1744 O   0  0  0  0  0  0
   90.6054   17.7295 -104.0848 C   0  0  0  0  0  0
   89.7253   16.9258 -103.3239 O   0  0  0  0  0  0
   89.6909   17.3340 -101.9670 C   0  0  0  0  0  0
   88.7915   16.3922 -101.1647 C   0  0  0  0  0  0
   88.6232   16.8596  -99.7208 C   0  0  0  0  0  0
   91.4408   13.3743 -105.2970 C   0  0  0  0  0  0
  1  2  1  0  0  0
  2  3  1  0  0  0
  3  4  2  0  0  0
  3 22  1  0  0  0
  4  5  1  0  0  0
  5  6  1  0  0  0
  6  7  1  0  0  0
  6  9  1  0  0  0
  7  8  1  0  0  0
  9 10  1  0  0  0
  9 12  1  0  0  0
 10 11  1  0  0  0
 12 13  1  0  0  0
 12 16  1  0  0  0
 13 14  1  0  0  0
 14 15  1  0  0  0
 16 17  1  0  0  0
 17 18  1  0  0  0
 17  5  1  0  0  0
 18 19  1  0  0  0
 19 20  1  0  0  0
 20 21  1  0  0  0
M  END
>  <CHROM.0>
-179.81381709,153.37246644,-65.70243191

>  <CHROM.1>
4.48926682,-142.49606894,-62.14172083,62.86661425,62.79296563,-176.75626013
172.46528667,-176.78850450,-175.02098295,90.51102876,17.72580071,-104.57485648
-2.06465679,1.06238375,-0.10130300

>  <Energy>
33.087308244186005

>  <Genealogy>
CCCO[C@@H]1O[C@H](CO)[C@@H](O)[C@@H](O)[C@H]1N=C(C)O (tautomer)
CCCO[C@@H]1O[C@H](CO)[C@@H](O)[C@@H](O)[C@H]1/N=C(/C)O (cis-trans isomerization)
CCCO[C@@H]1O[C@H](CO)[C@@H](O)[C@@H](O)[C@H]1/N=C(/C)O (3D coordinates assigned)
CCCO[C@@H]1O[C@H](CO)[C@@H](O)[C@@H](O)[C@H]1/N=C(/C)O (nonaromatic ring conformer: 33.087308244186005 kcal/mol)

>  <Name>
ZINC000575124647

>  <RI>
3.95439e+07

>  <Rbt.Current_Directory>
/home/edward/Documentos/Virtual_Screening/rDock/2

>  <Rbt.Executable>
rbdock ($Id: //depot/dev/client3/rdock/2013.1/src/exe/rbdock.cxx#4 $)

>  <Rbt.Library>
libRbt.so (2013.1, Build901 2013/11/27)

>  <Rbt.Parameter_File>
/home/edward/anaconda3/envs/MD/share/rdock-2013.1-1/data/scripts/dock.prm

>  <Rbt.Receptor>
parameters.prm

>  <SCORE>
-18.866

>  <SCORE.INTER>
-14.4829

>  <SCORE.INTER.CONST>
1

>  <SCORE.INTER.POLAR>
-2.69614

>  <SCORE.INTER.REPUL>
0

>  <SCORE.INTER.ROT>
5

>  <SCORE.INTER.VDW>
-15.716

>  <SCORE.INTER.norm>
-0.804603

>  <SCORE.INTRA>
-6.21495

>  <SCORE.INTRA.DIHEDRAL>
-13.2516

>  <SCORE.INTRA.DIHEDRAL.0>
14.8846

>  <SCORE.INTRA.POLAR>
0

>  <SCORE.INTRA.POLAR.0>
0

>  <SCORE.INTRA.REPUL>
0

>  <SCORE.INTRA.REPUL.0>
0

>  <SCORE.INTRA.VDW>
0.410864

>  <SCORE.INTRA.VDW.0>
-2.35632

>  <SCORE.INTRA.norm>
-0.345275

>  <SCORE.RESTR>
0.0959729

>  <SCORE.RESTR.CAVITY>
0.0959729

>  <SCORE.RESTR.norm>
0.00533183

>  <SCORE.SYSTEM>
1.73583

>  <SCORE.SYSTEM.CONST>
0

>  <SCORE.SYSTEM.DIHEDRAL>
3.28549

>  <SCORE.SYSTEM.VDW>
0.0930876

>  <SCORE.SYSTEM.norm>
0.0964351

>  <SCORE.heavy>
18

>  <SCORE.norm>
-1.04811

>  <SMILES>
CCCO[C@@H]1O[C@H](CO)[C@@H](O)[C@@H](O)[C@H]1/N=C(/C)O

>  <UniqueID>
302

$$$$
ZINC000616582453
  rDOCK(R)          3D
libRbt.so/2013.1/901 2013/11/27
 25 25  0  0  0  0  0  0  0  0999 V2000
   86.5561   23.5887  -97.9699 H   0  0  0  0  0  0
   86.0699   23.7876  -98.8360 O   0  0  0  0  0  0
   86.4608   24.8309  -99.6714 C   0  0  0  0  0  0
   85.8091   25.0056 -100.7856 N   0  0  0  0  0  0
   86.0647   26.0217 -101.8136 C   0  0  0  0  0  0
   84.7527   26.7554 -102.1511 C   0  0  0  0  0  0
   83.7344   25.8329 -102.4575 O   0  0  0  0  0  0
   82.9180   26.3579 -102.6659 H   0  0  0  0  0  0
   84.9715   27.6959 -103.3511 C   0  0  0  0  0  0
   83.7405   28.2300 -103.7673 O   0  0  0  0  0  0
   83.9258   28.7826 -104.5712 H   0  0  0  0  0  0
   85.6412   26.9230 -104.5150 C   0  0  0  0  0  0
   85.9565   27.8528 -105.6988 C   0  0  0  0  0  0
   84.7960   28.4750 -106.1819 O   0  0  0  0  0  0
   84.3031   27.7907 -106.7058 H   0  0  0  0  0  0
   86.8617   26.3475 -104.0788 O   0  0  0  0  0  0
   86.6310   25.3607 -103.0865 C   0  0  0  0  0  0
   87.8635   24.7443 -102.7662 O   0  0  0  0  0  0
   88.4071   24.0709 -103.8860 C   0  0  0  0  0  0
   89.8054   23.5399 -103.5453 C   0  0  0  0  0  0
   90.5229   22.9116 -104.7532 C   0  0  0  0  0  0
   89.8719   21.6276 -105.2979 C   0  0  0  0  0  0
   90.7139   20.9459 -106.3860 C   0  0  0  0  0  0
   90.0318   19.6797 -106.8963 C   0  0  0  0  0  0
   87.5915   25.7297  -99.2483 C   0  0  0  0  0  0
  1  2  1  0  0  0
  2  3  1  0  0  0
  3  4  2  0  0  0
  3 25  1  0  0  0
  4  5  1  0  0  0
  5  6  1  0  0  0
  6  7  1  0  0  0
  6  9  1  0  0  0
  7  8  1  0  0  0
  9 10  1  0  0  0
  9 12  1  0  0  0
 10 11  1  0  0  0
 12 13  1  0  0  0
 12 16  1  0  0  0
 13 14  1  0  0  0
 14 15  1  0  0  0
 16 17  1  0  0  0
 17 18  1  0  0  0
 17  5  1  0  0  0
 18 19  1  0  0  0
 19 20  1  0  0  0
 20 21  1  0  0  0
 21 22  1  0  0  0
 22 23  1  0  0  0
 23 24  1  0  0  0
M  END
>  <CHROM.0>
-75.71328601,151.28957600,-68.01714290

>  <CHROM.1>
178.28606495,-129.25686662,-179.97508294,-176.68916220,-58.50056719,-75.95776474
177.57489170,174.18833296,-174.44811519,-65.92724049,-172.95446939,-179.99287912
86.91455555,25.09266486,-103.30673281,-2.95858171,0.84962668,-1.35465263

>  <Energy>
38.581491128033065

>  <Genealogy>
CCCCCCO[C@@H]1O[C@H](CO)[C@@H](O)[C@@H](O)[C@H]1N=C(C)O (tautomer)
CCCCCCO[C@@H]1O[C@H](CO)[C@@H](O)[C@@H](O)[C@H]1/N=C(/C)O (cis-trans isomerization)
CCCCCCO[C@@H]1O[C@H](CO)[C@@H](O)[C@@H](O)[C@H]1/N=C(/C)O (3D coordinates assigned)
CCCCCCO[C@@H]1O[C@H](CO)[C@@H](O)[C@@H](O)[C@H]1/N=C(/C)O (nonaromatic ring conformer: 38.581491128033065 kcal/mol)

>  <Name>
ZINC000616582453

>  <RI>
3.95439e+07

>  <Rbt.Current_Directory>
/home/edward/Documentos/Virtual_Screening/rDock/2

>  <Rbt.Executable>
rbdock ($Id: //depot/dev/client3/rdock/2013.1/src/exe/rbdock.cxx#4 $)

>  <Rbt.Library>
libRbt.so (2013.1, Build901 2013/11/27)

>  <Rbt.Parameter_File>
/home/edward/anaconda3/envs/MD/share/rdock-2013.1-1/data/scripts/dock.prm

>  <Rbt.Receptor>
parameters.prm

>  <SCORE>
-14.679

>  <SCORE.INTER>
-11.698

>  <SCORE.INTER.CONST>
1

>  <SCORE.INTER.POLAR>
-2.04461

>  <SCORE.INTER.REPUL>
0

>  <SCORE.INTER.ROT>
8

>  <SCORE.INTER.VDW>
-18.1463

>  <SCORE.INTER.norm>
-0.557048

>  <SCORE.INTRA>
-6.45481

>  <SCORE.INTRA.DIHEDRAL>
-10.8114

>  <SCORE.INTRA.DIHEDRAL.0>
12.9165

>  <SCORE.INTRA.POLAR>
-0.593545

>  <SCORE.INTRA.POLAR.0>
0

>  <SCORE.INTRA.REPUL>
0

>  <SCORE.INTRA.REPUL.0>
0

>  <SCORE.INTRA.VDW>
0.968922

>  <SCORE.INTRA.VDW.0>
-1.73746

>  <SCORE.INTRA.norm>
-0.307372

>  <SCORE.RESTR>
0.234342

>  <SCORE.RESTR.CAVITY>
0.234342

>  <SCORE.RESTR.norm>
0.0111591

>  <SCORE.SYSTEM>
3.23946

>  <SCORE.SYSTEM.CONST>
0

>  <SCORE.SYSTEM.DIHEDRAL>
4.80314

>  <SCORE.SYSTEM.VDW>
0.837889

>  <SCORE.SYSTEM.norm>
0.15426

>  <SCORE.heavy>
21

>  <SCORE.norm>
-0.699001

>  <SMILES>
CCCCCCO[C@@H]1O[C@H](CO)[C@@H](O)[C@@H](O)[C@H]1/N=C(/C)O

>  <UniqueID>
304

$$$$
ZINC000616582683
  rDOCK(R)          3D
libRbt.so/2013.1/901 2013/11/27
 22 22  0  0  0  0  0  0  0  0999 V2000
   92.5600   19.9496 -105.0906 H   0  0  0  0  0  0
   92.0741   20.3644 -105.8766 O   0  0  0  0  0  0
   90.7617   20.8201 -105.7547 C   0  0  0  0  0  0
   90.1422   20.7595 -104.6141 N   0  0  0  0  0  0
   90.7272   20.2266 -103.3814 C   0  0  0  0  0  0
   90.3248   21.1200 -102.1900 C   0  0  0  0  0  0
   88.9139   21.2640 -102.1308 O   0  0  0  0  0  0
   88.5606   22.2330 -101.1656 C   0  0  0  0  0  0
   87.0686   22.3709 -101.1301 C   0  0  0  0  0  0
   86.3771   22.1578 -100.0073 C   0  0  0  0  0  0
   90.8486   20.6061 -100.9723 O   0  0  0  0  0  0
   90.3353   19.3145 -100.6813 C   0  0  0  0  0  0
   90.8280   18.9038  -99.2877 C   0  0  0  0  0  0
   92.2233   19.0107  -99.2101 O   0  0  0  0  0  0
   92.4868   18.5631  -98.3644 H   0  0  0  0  0  0
   90.7687   18.2971 -101.7652 C   0  0  0  0  0  0
   90.2327   17.0259 -101.4932 O   0  0  0  0  0  0
   89.2462   17.0995 -101.5755 H   0  0  0  0  0  0
   90.2848   18.7686 -103.1472 C   0  0  0  0  0  0
   88.8837   18.6727 -103.2394 O   0  0  0  0  0  0
   88.6282   18.9973 -104.1421 H   0  0  0  0  0  0
   90.0485   21.3602 -106.9520 C   0  0  0  0  0  0
  1  2  1  0  0  0
  2  3  1  0  0  0
  3  4  2  0  0  0
  3 22  1  0  0  0
  4  5  1  0  0  0
  5  6  1  0  0  0
  6  7  1  0  0  0
  6 11  1  0  0  0
  7  8  1  0  0  0
  8  9  1  0  0  0
  9 10  2  0  0  0
 11 12  1  0  0  0
 12 13  1  0  0  0
 12 16  1  0  0  0
 13 14  1  0  0  0
 14 15  1  0  0  0
 16 17  1  0  0  0
 16 19  1  0  0  0
 17 18  1  0  0  0
 19 20  1  0  0  0
 19  5  1  0  0  0
 20 21  1  0  0  0
M  END
>  <CHROM.0>
-179.57111718,149.56561493,-64.18083440

>  <CHROM.1>
2.07999808,138.92274260,-171.47248192,179.64499216,121.67816926,-53.63522996
-168.84262578,65.34911505,58.22351487,89.99943342,20.13047439,-102.37602455
-1.35385670,-0.76759966,1.85879180

>  <Energy>
30.28072996797241

>  <Genealogy>
C=CCO[C@H]1O[C@H](CO)[C@@H](O)[C@@H](O)[C@H]1N=C(C)O (tautomer)
C=CCO[C@H]1O[C@H](CO)[C@@H](O)[C@@H](O)[C@H]1/N=C(/C)O (cis-trans isomerization)
C=CCO[C@H]1O[C@H](CO)[C@@H](O)[C@@H](O)[C@H]1/N=C(/C)O (3D coordinates assigned)
C=CCO[C@H]1O[C@H](CO)[C@@H](O)[C@@H](O)[C@H]1/N=C(/C)O (nonaromatic ring conformer: 30.28072996797241 kcal/mol)

>  <Name>
ZINC000616582683

>  <RI>
3.95439e+07

>  <Rbt.Current_Directory>
/home/edward/Documentos/Virtual_Screening/rDock/2

>  <Rbt.Executable>
rbdock ($Id: //depot/dev/client3/rdock/2013.1/src/exe/rbdock.cxx#4 $)

>  <Rbt.Library>
libRbt.so (2013.1, Build901 2013/11/27)

>  <Rbt.Parameter_File>
/home/edward/anaconda3/envs/MD/share/rdock-2013.1-1/data/scripts/dock.prm

>  <Rbt.Receptor>
parameters.prm

>  <SCORE>
-16.9302

>  <SCORE.INTER>
-12.8071

>  <SCORE.INTER.CONST>
1

>  <SCORE.INTER.POLAR>
-2.43667

>  <SCORE.INTER.REPUL>
0

>  <SCORE.INTER.ROT>
5

>  <SCORE.INTER.VDW>
-14.9224

>  <SCORE.INTER.norm>
-0.711506

>  <SCORE.INTRA>
-5.91627

>  <SCORE.INTRA.DIHEDRAL>
-11.2466

>  <SCORE.INTRA.DIHEDRAL.0>
13.1605

>  <SCORE.INTRA.POLAR>
-0.0892343

>  <SCORE.INTRA.POLAR.0>
0

>  <SCORE.INTRA.REPUL>
-0.0782462

>  <SCORE.INTRA.REPUL.0>
0.0782462

>  <SCORE.INTRA.VDW>
0.401678

>  <SCORE.INTRA.VDW.0>
-2.15517

>  <SCORE.INTRA.norm>
-0.328682

>  <SCORE.RESTR>
0

>  <SCORE.RESTR.CAVITY>
0

>  <SCORE.RESTR.norm>
0

>  <SCORE.SYSTEM>
1.7932

>  <SCORE.SYSTEM.CONST>
0

>  <SCORE.SYSTEM.DIHEDRAL>
4.02476

>  <SCORE.SYSTEM.VDW>
-0.219185

>  <SCORE.SYSTEM.norm>
0.099622

>  <SCORE.heavy>
18

>  <SCORE.norm>
-0.940565

>  <SMILES>
C=CCO[C@H]1O[C@H](CO)[C@@H](O)[C@@H](O)[C@H]1/N=C(/C)O

>  <UniqueID>
305

$$$$
ZINC000616582813
  rDOCK(R)          3D
libRbt.so/2013.1/901 2013/11/27
 21 21  0  0  0  0  0  0  0  0999 V2000
   82.2854   26.1686 -102.4884 H   0  0  0  0  0  0
   83.2897   26.0599 -102.4140 O   0  0  0  0  0  0
   84.1472   27.1494 -102.5653 C   0  0  0  0  0  0
   85.4199   27.0310 -102.3291 N   0  0  0  0  0  0
   86.0853   25.7857 -101.9358 C   0  0  0  0  0  0
   87.1858   26.1009 -100.9078 C   0  0  0  0  0  0
   88.0220   27.1191 -101.4038 O   0  0  0  0  0  0
   88.7417   27.2568 -100.7340 H   0  0  0  0  0  0
   88.0062   24.8322 -100.6102 C   0  0  0  0  0  0
   89.1038   25.1699  -99.7988 O   0  0  0  0  0  0
   89.6769   24.3624  -99.7265 H   0  0  0  0  0  0
   88.4820   24.1912 -101.9385 C   0  0  0  0  0  0
   89.2451   22.8788 -101.6924 C   0  0  0  0  0  0
   90.3686   23.0879 -100.8793 O   0  0  0  0  0  0
   90.8054   22.2039 -100.7636 H   0  0  0  0  0  0
   87.3636   23.8953 -102.7583 O   0  0  0  0  0  0
   86.7028   25.0835 -103.1659 C   0  0  0  0  0  0
   85.6624   24.7409 -104.0610 O   0  0  0  0  0  0
   86.1982   24.2495 -105.2719 C   0  0  0  0  0  0
   86.7041   25.4191 -106.1015 C   0  0  0  0  0  0
   83.5940   28.4795 -102.9630 C   0  0  0  0  0  0
  1  2  1  0  0  0
  2  3  1  0  0  0
  3  4  2  0  0  0
  3 21  1  0  0  0
  4  5  1  0  0  0
  5  6  1  0  0  0
  6  7  1  0  0  0
  6  9  1  0  0  0
  7  8  1  0  0  0
  9 10  1  0  0  0
  9 12  1  0  0  0
 10 11  1  0  0  0
 12 13  1  0  0  0
 12 16  1  0  0  0
 13 14  1  0  0  0
 14 15  1  0  0  0
 16 17  1  0  0  0
 17 18  1  0  0  0
 17  5  1  0  0  0
 18 19  1  0  0  0
 19 20  1  0  0  0
M  END
>  <CHROM.0>
179.83356152,153.53818116,64.95422927

>  <CHROM.1>
172.64469732,-142.47945821,-177.09024065,-172.49602936,-58.99656857,179.86771098
172.63682889,-77.00512227,86.83840775,25.34779326,-102.38141851,3.04761420
0.62995979,-2.10074130

>  <Energy>
29.983253584428322

>  <Genealogy>
CCO[C@@H]1O[C@H](CO)[C@@H](O)[C@@H](O)[C@H]1N=C(C)O (tautomer)
CCO[C@@H]1O[C@H](CO)[C@@H](O)[C@@H](O)[C@H]1/N=C(\C)O (cis-trans isomerization)
CCO[C@@H]1O[C@H](CO)[C@@H](O)[C@@H](O)[C@H]1/N=C(\C)O (3D coordinates assigned)
CCO[C@@H]1O[C@H](CO)[C@@H](O)[C@@H](O)[C@H]1/N=C(\C)O (nonaromatic ring conformer: 29.983253584428322 kcal/mol)

>  <Name>
ZINC000616582813

>  <RI>
3.95439e+07

>  <Rbt.Current_Directory>
/home/edward/Documentos/Virtual_Screening/rDock/2

>  <Rbt.Executable>
rbdock ($Id: //depot/dev/client3/rdock/2013.1/src/exe/rbdock.cxx#4 $)

>  <Rbt.Library>
libRbt.so (2013.1, Build901 2013/11/27)

>  <Rbt.Parameter_File>
/home/edward/anaconda3/envs/MD/share/rdock-2013.1-1/data/scripts/dock.prm

>  <Rbt.Receptor>
parameters.prm

>  <SCORE>
-17.9285

>  <SCORE.INTER>
-15.8438

>  <SCORE.INTER.CONST>
1

>  <SCORE.INTER.POLAR>
-3.2063

>  <SCORE.INTER.REPUL>
0

>  <SCORE.INTER.ROT>
4

>  <SCORE.INTER.VDW>
-14.3424

>  <SCORE.INTER.norm>
-0.931991

>  <SCORE.INTRA>
-4.86684

>  <SCORE.INTRA.DIHEDRAL>
-9.35426

>  <SCORE.INTRA.DIHEDRAL.0>
12.3208

>  <SCORE.INTRA.POLAR>
-0.786673

>  <SCORE.INTRA.POLAR.0>
0

>  <SCORE.INTRA.REPUL>
0

>  <SCORE.INTRA.REPUL.0>
0

>  <SCORE.INTRA.VDW>
2.48498

>  <SCORE.INTRA.VDW.0>
-2.16093

>  <SCORE.INTRA.norm>
-0.286285

>  <SCORE.RESTR>
0

>  <SCORE.RESTR.CAVITY>
0

>  <SCORE.RESTR.norm>
0

>  <SCORE.SYSTEM>
2.78217

>  <SCORE.SYSTEM.CONST>
0

>  <SCORE.SYSTEM.DIHEDRAL>
3.62323

>  <SCORE.SYSTEM.VDW>
0.970557

>  <SCORE.SYSTEM.norm>
0.163657

>  <SCORE.heavy>
17

>  <SCORE.norm>
-1.05462

>  <SMILES>
CCO[C@@H]1O[C@H](CO)[C@@H](O)[C@@H](O)[C@H]1/N=C(\C)O

>  <UniqueID>
307

$$$$
ZINC000616582904
  rDOCK(R)          3D
libRbt.so/2013.1/901 2013/11/27
 22 22  0  0  0  0  0  0  0  0999 V2000
   88.7693   15.0463 -100.4207 C   0  0  0  0  0  0
   89.3662   15.8818 -101.0520 C   0  0  0  0  0  0
   90.0960   16.8967 -101.8208 C   0  0  0  0  0  0
   90.0167   16.6076 -103.2033 O   0  0  0  0  0  0
   90.7961   17.5185 -103.9576 C   0  0  0  0  0  0
   90.1811   18.7965 -103.9099 O   0  0  0  0  0  0
   90.9750   19.7628 -104.5785 C   0  0  0  0  0  0
   90.3686   21.1508 -104.3231 C   0  0  0  0  0  0
   90.1930   21.3787 -102.9493 O   0  0  0  0  0  0
   91.0883   21.3057 -102.5274 H   0  0  0  0  0  0
   91.0585   19.4356 -106.0904 C   0  0  0  0  0  0
   91.8775   20.3665 -106.7535 O   0  0  0  0  0  0
   91.3994   21.2363 -106.7457 H   0  0  0  0  0  0
   91.6313   18.0197 -106.2871 C   0  0  0  0  0  0
   92.9956   17.9899 -105.9426 O   0  0  0  0  0  0
   93.0649   18.2956 -105.0006 H   0  0  0  0  0  0
   90.8531   17.0158 -105.4125 C   0  0  0  0  0  0
   91.4900   15.6971 -105.4477 N   0  0  0  0  0  0
   90.8443   14.5723 -105.5245 C   0  0  0  0  0  0
   89.4501   14.5529 -105.5480 O   0  0  0  0  0  0
   88.9162   15.4028 -105.6842 H   0  0  0  0  0  0
   91.6065   13.2868 -105.5471 C   0  0  0  0  0  0
  1  2  3  0  0  0
  2  3  1  0  0  0
  3  4  1  0  0  0
  4  5  1  0  0  0
  5  6  1  0  0  0
  6  7  1  0  0  0
  7  8  1  0  0  0
  7 11  1  0  0  0
  8  9  1  0  0  0
  9 10  1  0  0  0
 11 12  1  0  0  0
 11 14  1  0  0  0
 12 13  1  0  0  0
 14 15  1  0  0  0
 14 17  1  0  0  0
 15 16  1  0  0  0
 17 18  1  0  0  0
 17  5  1  0  0  0
 18 19  2  0  0  0
 19 20  1  0  0  0
 19 22  1  0  0  0
 20 21  1  0  0  0
M  END
>  <CHROM.0>
-84.33596753,152.64244039,-62.27343433

>  <CHROM.1>
82.16025434,-175.69281177,-69.58181776,52.87818326,59.25792693,-68.83701302
57.55727868,99.77895538,11.81401115,90.72187128,17.51669939,-104.42066104
1.96362497,-1.12108581,-3.02877783

>  <Energy>
29.791743457029828

>  <Genealogy>
C#CCO[C@@H]1O[C@H](CO)[C@@H](O)[C@@H](O)[C@H]1N=C(C)O (tautomer)
C#CCO[C@@H]1O[C@H](CO)[C@@H](O)[C@@H](O)[C@H]1/N=C(/C)O (cis-trans isomerization)
C#CCO[C@@H]1O[C@H](CO)[C@@H](O)[C@@H](O)[C@H]1/N=C(/C)O (3D coordinates assigned)
C#CCO[C@@H]1O[C@H](CO)[C@@H](O)[C@@H](O)[C@H]1/N=C(/C)O (nonaromatic ring conformer: 29.791743457029828 kcal/mol)

>  <Name>
ZINC000616582904

>  <RI>
3.95439e+07

>  <Rbt.Current_Directory>
/home/edward/Documentos/Virtual_Screening/rDock/2

>  <Rbt.Executable>
rbdock ($Id: //depot/dev/client3/rdock/2013.1/src/exe/rbdock.cxx#4 $)

>  <Rbt.Library>
libRbt.so (2013.1, Build901 2013/11/27)

>  <Rbt.Parameter_File>
/home/edward/anaconda3/envs/MD/share/rdock-2013.1-1/data/scripts/dock.prm

>  <Rbt.Receptor>
parameters.prm

>  <SCORE>
-18.6193

>  <SCORE.INTER>
-15.551

>  <SCORE.INTER.CONST>
1

>  <SCORE.INTER.POLAR>
-2.6838

>  <SCORE.INTER.REPUL>
0

>  <SCORE.INTER.ROT>
5

>  <SCORE.INTER.VDW>
-16.826

>  <SCORE.INTER.norm>
-0.863942

>  <SCORE.INTRA>
-6.81621

>  <SCORE.INTRA.DIHEDRAL>
-15.4294

>  <SCORE.INTRA.DIHEDRAL.0>
18.0264

>  <SCORE.INTRA.POLAR>
0

>  <SCORE.INTRA.POLAR.0>
0

>  <SCORE.INTRA.REPUL>
0

>  <SCORE.INTRA.REPUL.0>
0

>  <SCORE.INTRA.VDW>
0.898473

>  <SCORE.INTRA.VDW.0>
-2.12126

>  <SCORE.INTRA.norm>
-0.378678

>  <SCORE.RESTR>
0.276919

>  <SCORE.RESTR.CAVITY>
0.276919

>  <SCORE.RESTR.norm>
0.0153844

>  <SCORE.SYSTEM>
3.47096

>  <SCORE.SYSTEM.CONST>
0

>  <SCORE.SYSTEM.DIHEDRAL>
6.04097

>  <SCORE.SYSTEM.VDW>
0.45048

>  <SCORE.SYSTEM.norm>
0.192831

>  <SCORE.heavy>
18

>  <SCORE.norm>
-1.0344

>  <SMILES>
C#CCO[C@@H]1O[C@H](CO)[C@@H](O)[C@@H](O)[C@H]1/N=C(/C)O

>  <UniqueID>
309

$$$$
ZINC000616583702
  rDOCK(R)          3D
libRbt.so/2013.1/901 2013/11/27
 24 24  0  0  0  0  0  0  0  0999 V2000
   87.0906   23.5336 -108.7666 H   0  0  0  0  0  0
   86.9799   24.1097 -107.9407 O   0  0  0  0  0  0
   88.0401   24.8658 -107.4421 C   0  0  0  0  0  0
   87.8880   25.6019 -106.3826 N   0  0  0  0  0  0
   86.6358   25.7267 -105.6341 C   0  0  0  0  0  0
   86.1419   27.1914 -105.6284 C   0  0  0  0  0  0
   87.1930   28.0978 -105.3836 O   0  0  0  0  0  0
   87.8641   28.0026 -106.1054 H   0  0  0  0  0  0
   84.9771   27.3781 -104.6332 C   0  0  0  0  0  0
   84.7346   28.7519 -104.4556 O   0  0  0  0  0  0
   85.5901   29.1676 -104.1712 H   0  0  0  0  0  0
   85.2943   26.7018 -103.2758 C   0  0  0  0  0  0
   84.0862   26.7757 -102.3346 C   0  0  0  0  0  0
   83.0589   25.9568 -102.8211 O   0  0  0  0  0  0
   82.2672   26.1395 -102.2510 H   0  0  0  0  0  0
   85.6215   25.3353 -103.4727 O   0  0  0  0  0  0
   86.8320   25.2019 -104.1960 C   0  0  0  0  0  0
   87.1388   23.8188 -104.2667 O   0  0  0  0  0  0
   87.5902   23.3164 -103.0231 C   0  0  0  0  0  0
   88.1860   21.9229 -103.2238 C   0  0  0  0  0  0
   88.9140   21.4416 -101.9609 C   0  0  0  0  0  0
   89.6434   20.1183 -102.2129 C   0  0  0  0  0  0
   90.4094   19.6694 -100.9716 C   0  0  0  0  0  0
   89.3767   24.8000 -108.1071 C   0  0  0  0  0  0
  1  2  1  0  0  0
  2  3  1  0  0  0
  3  4  2  0  0  0
  3 24  1  0  0  0
  4  5  1  0  0  0
  5  6  1  0  0  0
  6  7  1  0  0  0
  6  9  1  0  0  0
  7  8  1  0  0  0
  9 10  1  0  0  0
  9 12  1  0  0  0
 10 11  1  0  0  0
 12 13  1  0  0  0
 12 16  1  0  0  0
 13 14  1  0  0  0
 14 15  1  0  0  0
 16 17  1  0  0  0
 17 18  1  0  0  0
 17  5  1  0  0  0
 18 19  1  0  0  0
 19 20  1  0  0  0
 20 21  1  0  0  0
 21 22  1  0  0  0
 22 23  1  0  0  0
M  END
>  <CHROM.0>
81.02540351,154.12295770,-63.67861262

>  <CHROM.1>
179.97479749,-119.20576758,60.89711816,-55.33527599,68.76651819,-172.29938832
168.41770082,-167.88138535,169.76762008,-173.59519097,177.84995995,86.90270254
24.86670125,-104.37046808,-2.38183764,-0.78842974,2.15365234

>  <Energy>
32.9036768565134

>  <Genealogy>
CCCCCO[C@@H]1O[C@H](CO)[C@@H](O)[C@@H](O)[C@H]1N=C(C)O (tautomer)
CCCCCO[C@@H]1O[C@H](CO)[C@@H](O)[C@@H](O)[C@H]1/N=C(/C)O (cis-trans isomerization)
CCCCCO[C@@H]1O[C@H](CO)[C@@H](O)[C@@H](O)[C@H]1/N=C(/C)O (3D coordinates assigned)
CCCCCO[C@@H]1O[C@H](CO)[C@@H](O)[C@@H](O)[C@H]1/N=C(/C)O (nonaromatic ring conformer: 32.9036768565134 kcal/mol)

>  <Name>
ZINC000616583702

>  <RI>
3.95439e+07

>  <Rbt.Current_Directory>
/home/edward/Documentos/Virtual_Screening/rDock/2

>  <Rbt.Executable>
rbdock ($Id: //depot/dev/client3/rdock/2013.1/src/exe/rbdock.cxx#4 $)

>  <Rbt.Library>
libRbt.so (2013.1, Build901 2013/11/27)

>  <Rbt.Parameter_File>
/home/edward/anaconda3/envs/MD/share/rdock-2013.1-1/data/scripts/dock.prm

>  <Rbt.Receptor>
parameters.prm

>  <SCORE>
-16.0916

>  <SCORE.INTER>
-13.8754

>  <SCORE.INTER.CONST>
1

>  <SCORE.INTER.POLAR>
-3.21366

>  <SCORE.INTER.REPUL>
0

>  <SCORE.INTER.ROT>
7

>  <SCORE.INTER.VDW>
-15.349

>  <SCORE.INTER.norm>
-0.69377

>  <SCORE.INTRA>
-5.37728

>  <SCORE.INTRA.DIHEDRAL>
-12.6025

>  <SCORE.INTRA.DIHEDRAL.0>
15.3378

>  <SCORE.INTRA.POLAR>
-0.0677683

>  <SCORE.INTRA.POLAR.0>
0

>  <SCORE.INTRA.REPUL>
0

>  <SCORE.INTRA.REPUL.0>
0

>  <SCORE.INTRA.VDW>
1.15439

>  <SCORE.INTRA.VDW.0>
-3.01246

>  <SCORE.INTRA.norm>
-0.268864

>  <SCORE.RESTR>
0

>  <SCORE.RESTR.CAVITY>
0

>  <SCORE.RESTR.norm>
0

>  <SCORE.SYSTEM>
3.16114

>  <SCORE.SYSTEM.CONST>
0

>  <SCORE.SYSTEM.DIHEDRAL>
5.15382

>  <SCORE.SYSTEM.VDW>
0.584231

>  <SCORE.SYSTEM.norm>
0.158057

>  <SCORE.heavy>
20

>  <SCORE.norm>
-0.804578

>  <SMILES>
CCCCCO[C@@H]1O[C@H](CO)[C@@H](O)[C@@H](O)[C@H]1/N=C(/C)O

>  <UniqueID>
312

$$$$
ZINC000616583781
  rDOCK(R)          3D
libRbt.so/2013.1/901 2013/11/27
 23 23  0  0  0  0  0  0  0  0999 V2000
   90.6621   21.5611 -106.5863 C   0  0  0  0  0  0
   90.2703   21.9962 -105.1773 C   0  0  0  0  0  0
   90.2399   20.7996 -104.2174 C   0  0  0  0  0  0
   89.0826   19.8519 -104.5339 C   0  0  0  0  0  0
   89.1416   18.7295 -103.6767 O   0  0  0  0  0  0
   88.1620   17.7778 -104.0452 C   0  0  0  0  0  0
   86.8813   18.2649 -103.6829 O   0  0  0  0  0  0
   85.8588   17.4757 -104.2773 C   0  0  0  0  0  0
   84.5013   17.9576 -103.7421 C   0  0  0  0  0  0
   84.4316   17.8235 -102.3472 O   0  0  0  0  0  0
   86.0577   15.9442 -104.0344 C   0  0  0  0  0  0
   86.4469   15.3330 -105.2396 O   0  0  0  0  0  0
   87.1278   15.7142 -102.9494 C   0  0  0  0  0  0
   87.3387   14.3386 -102.7555 O   0  0  0  0  0  0
   88.4502   16.4550 -103.2920 C   0  0  0  0  0  0
   89.3529   15.6143 -104.0909 N   0  0  0  0  0  0
   90.6206   16.0869 -104.5673 C   0  0  0  0  0  0
   91.4610   15.2121 -105.4390 C   0  0  0  0  0  0
   91.0470   17.2250 -104.2323 O   0  0  0  0  0  0
   83.5210   18.1119 -102.0770 H   0  0  0  0  0  0
   86.6106   14.3739 -105.0419 H   0  0  0  0  0  0
   88.0246   14.2537 -102.0425 H   0  0  0  0  0  0
   89.0565   14.6504 -104.3647 H   0  0  0  0  0  0
  1  2  1  0  0  0
  2  3  1  0  0  0
  3  4  1  0  0  0
  4  5  1  0  0  0
  5  6  1  0  0  0
  6  7  1  0  0  0
  7  8  1  0  0  0
  8  9  1  0  0  0
  8 11  1  0  0  0
  9 10  1  0  0  0
 10 20  1  0  0  0
 11 12  1  0  0  0
 11 13  1  0  0  0
 12 21  1  0  0  0
 13 14  1  0  0  0
 13 15  1  0  0  0
 14 22  1  0  0  0
 15 16  1  0  0  0
 15  6  1  0  0  0
 16 17  1  0  0  0
 16 23  1  0  0  0
 17 18  1  0  0  0
 17 19  2  0  0  0
M  END
>  <CHROM.0>
-177.35328004,153.06665964,-63.96610067

>  <CHROM.1>
-69.29712908,176.61304491,-174.01304902,-72.28554816,-60.15388608,-177.48935190
177.09734553,-179.30180741,54.70031536,88.24187481,17.56121659,-104.13791103
0.76539102,0.26394830,-0.11932192

>  <Energy>
38.54177204315097

>  <Genealogy>
CCCCO[C@@H]1O[C@H](CO)[C@@H](O)[C@@H](O)[C@H]1NC(C)=O (3D coordinates assigned)
CCCCO[C@@H]1O[C@H](CO)[C@@H](O)[C@@H](O)[C@H]1NC(C)=O (nonaromatic ring conformer: 38.54177204315097 kcal/mol)

>  <Name>
ZINC000616583781

>  <RI>
3.95439e+07

>  <Rbt.Current_Directory>
/home/edward/Documentos/Virtual_Screening/rDock/2

>  <Rbt.Executable>
rbdock ($Id: //depot/dev/client3/rdock/2013.1/src/exe/rbdock.cxx#4 $)

>  <Rbt.Library>
libRbt.so (2013.1, Build901 2013/11/27)

>  <Rbt.Parameter_File>
/home/edward/anaconda3/envs/MD/share/rdock-2013.1-1/data/scripts/dock.prm

>  <Rbt.Receptor>
parameters.prm

>  <SCORE>
-13.2584

>  <SCORE.INTER>
-14.5812

>  <SCORE.INTER.CONST>
1

>  <SCORE.INTER.POLAR>
-2.99191

>  <SCORE.INTER.REPUL>
0.0281195

>  <SCORE.INTER.ROT>
6

>  <SCORE.INTER.VDW>
-15.9493

>  <SCORE.INTER.norm>
-0.76743

>  <SCORE.INTRA>
-0.44552

>  <SCORE.INTRA.DIHEDRAL>
-4.52438

>  <SCORE.INTRA.DIHEDRAL.0>
7.23349

>  <SCORE.INTRA.POLAR>
-0.0235747

>  <SCORE.INTRA.POLAR.0>
0

>  <SCORE.INTRA.REPUL>
0

>  <SCORE.INTRA.REPUL.0>
0

>  <SCORE.INTRA.VDW>
1.89683

>  <SCORE.INTRA.VDW.0>
-2.74086

>  <SCORE.INTRA.norm>
-0.0234484

>  <SCORE.RESTR>
0

>  <SCORE.RESTR.CAVITY>
0

>  <SCORE.RESTR.norm>
0

>  <SCORE.SYSTEM>
1.76832

>  <SCORE.SYSTEM.CONST>
0

>  <SCORE.SYSTEM.DIHEDRAL>
3.4072

>  <SCORE.SYSTEM.VDW>
0.0647159

>  <SCORE.SYSTEM.norm>
0.0930693

>  <SCORE.heavy>
19

>  <SCORE.norm>
-0.697809

>  <SMILES>
CCCCO[C@@H]1O[C@H](CO)[C@@H](O)[C@@H](O)[C@H]1NC(C)=O

>  <UniqueID>
314

$$$$
ZINC000616589990
  rDOCK(R)          3D
libRbt.so/2013.1/901 2013/11/27
 20 20  0  0  0  0  0  0  0  0999 V2000
   89.8230   21.4434 -105.6599 C   0  0  0  0  0  0
   89.5825   19.9545 -105.8828 C   0  0  0  0  0  0
   90.4369   19.1920 -105.0505 O   0  0  0  0  0  0
   90.2674   17.8052 -105.2786 C   0  0  0  0  0  0
   89.0996   17.3723 -104.5984 O   0  0  0  0  0  0
   88.8357   16.0060 -104.8667 C   0  0  0  0  0  0
   87.5201   15.6504 -104.2396 C   0  0  0  0  0  0
   87.4118   15.5834 -102.9867 O   0  0  0  0  0  0
   86.4038   15.4288 -105.0373 O   0  5  0  0  0  0
   89.9606   15.1152 -104.2892 C   0  0  0  0  0  0
   89.7231   13.7624 -104.5901 O   0  0  0  0  0  0
   91.3160   15.5342 -104.8806 C   0  0  0  0  0  0
   91.3701   15.1646 -106.2378 O   0  0  0  0  0  0
   91.5048   17.0612 -104.7246 C   0  0  0  0  0  0
   92.7376   17.5158 -105.3838 N   0  3  0  0  0  0
   90.4282   13.2340 -104.1327 H   0  0  0  0  0  0
   90.6508   15.6637 -106.7058 H   0  0  0  0  0  0
   92.9845   18.4756 -105.0503 H   0  0  0  0  0  0
   92.6191   17.5396 -106.4227 H   0  0  0  0  0  0
   93.5285   16.8761 -105.1404 H   0  0  0  0  0  0
  1  2  1  0  0  0
  2  3  1  0  0  0
  3  4  1  0  0  0
  4  5  1  0  0  0
  5  6  1  0  0  0
  6  7  1  0  0  0
  6 10  1  0  0  0
  7  8  2  0  0  0
  7  9  1  0  0  0
 10 11  1  0  0  0
 10 12  1  0  0  0
 11 16  1  0  0  0
 12 13  1  0  0  0
 12 14  1  0  0  0
 13 17  1  0  0  0
 14 15  1  0  0  0
 14  4  1  0  0  0
 15 18  1  0  0  0
 15 19  1  0  0  0
 15 20  1  0  0  0
M  END
>  <CHROM.0>
175.81402453,152.24300010,-68.38376186

>  <CHROM.1>
-177.71582451,-79.16696543,-70.15712503,-175.27535501,62.30553453,72.69320696
89.75586910,16.83181940,-104.93006066,1.13431546,0.21993793,-0.13403926

>  <Energy>
28.441563453359052

>  <Genealogy>
CCO[C@@H]1O[C@H](C(=O)[O-])[C@@H](O)[C@@H](O)[C@H]1[NH3+] (protonated)
CCO[C@@H]1O[C@H](C(=O)[O-])[C@@H](O)[C@@H](O)[C@H]1[NH3+] (3D coordinates assigned)
CCO[C@@H]1O[C@H](C(=O)[O-])[C@@H](O)[C@@H](O)[C@H]1[NH3+] (nonaromatic ring conformer: 28.441563453359052 kcal/mol)

>  <Name>
ZINC000616589990

>  <RI>
3.95439e+07

>  <Rbt.Current_Directory>
/home/edward/Documentos/Virtual_Screening/rDock/2

>  <Rbt.Executable>
rbdock ($Id: //depot/dev/client3/rdock/2013.1/src/exe/rbdock.cxx#4 $)

>  <Rbt.Library>
libRbt.so (2013.1, Build901 2013/11/27)

>  <Rbt.Parameter_File>
/home/edward/anaconda3/envs/MD/share/rdock-2013.1-1/data/scripts/dock.prm

>  <Rbt.Receptor>
parameters.prm

>  <SCORE>
-23.0606

>  <SCORE.INTER>
-20.165

>  <SCORE.INTER.CONST>
1

>  <SCORE.INTER.POLAR>
-4.50265

>  <SCORE.INTER.REPUL>
0

>  <SCORE.INTER.ROT>
3

>  <SCORE.INTER.VDW>
-13.256

>  <SCORE.INTER.norm>
-1.34433

>  <SCORE.INTRA>
-4.81621

>  <SCORE.INTRA.DIHEDRAL>
-10.8987

>  <SCORE.INTRA.DIHEDRAL.0>
14.1221

>  <SCORE.INTRA.POLAR>
0

>  <SCORE.INTRA.POLAR.0>
0

>  <SCORE.INTRA.REPUL>
0

>  <SCORE.INTRA.REPUL.0>
0

>  <SCORE.INTRA.VDW>
0.633141

>  <SCORE.INTRA.VDW.0>
-1.74952

>  <SCORE.INTRA.norm>
-0.321081

>  <SCORE.RESTR>
0.131859

>  <SCORE.RESTR.CAVITY>
0.131859

>  <SCORE.RESTR.norm>
0.00879063

>  <SCORE.SYSTEM>
1.78877

>  <SCORE.SYSTEM.CONST>
0

>  <SCORE.SYSTEM.DIHEDRAL>
3.55815

>  <SCORE.SYSTEM.VDW>
0.00969862

>  <SCORE.SYSTEM.norm>
0.119252

>  <SCORE.heavy>
15

>  <SCORE.norm>
-1.53737

>  <SMILES>
CCO[C@@H]1O[C@H](C(=O)[O-])[C@@H](O)[C@@H](O)[C@H]1[NH3+]

>  <UniqueID>
317

$$$$
ZINC000616591357
  rDOCK(R)          3D
libRbt.so/2013.1/901 2013/11/27
 25 27  0  0  0  0  0  0  0  0999 V2000
   90.4760   17.7961 -101.1951 C   0  0  0  0  0  0
   90.1390   17.2635 -102.4577 O   0  0  0  0  0  0
   90.5569   18.1428 -103.4848 C   0  0  0  0  0  0
   89.7695   19.3280 -103.4299 O   0  0  0  0  0  0
   90.2023   20.2425 -104.4211 C   0  0  0  0  0  0
   89.4973   21.6009 -104.2744 C   0  0  0  0  0  0
   88.6939   21.9108 -105.4001 O   0  0  0  0  0  0
   89.4296   21.8304 -106.6235 C   0  0  0  0  0  0
   90.2695   23.0736 -106.8207 C   0  0  0  0  0  0
   89.9215   24.0472 -107.7766 C   0  0  0  0  0  0
   90.7324   25.1700 -107.9680 C   0  0  0  0  0  0
   91.9006   25.3270 -107.2181 C   0  0  0  0  0  0
   92.2632   24.3585 -106.2788 C   0  0  0  0  0  0
   91.4559   23.2337 -106.0840 C   0  0  0  0  0  0
   90.2226   20.6511 -106.7767 O   0  0  0  0  0  0
   89.8869   19.6839 -105.8093 C   0  0  0  0  0  0
   90.6703   18.3803 -106.0205 C   0  0  0  0  0  0
   92.0522   18.6355 -106.0843 O   0  0  0  0  0  0
   90.3656   17.4220 -104.8461 C   0  0  0  0  0  0
   91.2172   16.2291 -104.9253 N   0  0  0  0  0  0
   90.7146   14.9539 -105.3476 C   0  0  0  0  0  0
   91.6369   13.7820 -105.4351 C   0  0  0  0  0  0
   89.4914   14.8047 -105.6144 O   0  0  0  0  0  0
   92.3118   19.0393 -105.2153 H   0  0  0  0  0  0
   92.2219   16.2940 -104.6429 H   0  0  0  0  0  0
  1  2  1  0  0  0
  2  3  1  0  0  0
  3  4  1  0  0  0
  4  5  1  0  0  0
  5  6  1  0  0  0
  6  7  1  0  0  0
  7  8  1  0  0  0
  8  9  1  0  0  0
  8 15  1  0  0  0
  9 10  2  0  0  0
 10 11  1  0  0  0
 11 12  2  0  0  0
 12 13  1  0  0  0
 13 14  2  0  0  0
 14  9  1  0  0  0
 15 16  1  0  0  0
 16 17  1  0  0  0
 16  5  1  0  0  0
 17 18  1  0  0  0
 17 19  1  0  0  0
 18 24  1  0  0  0
 19 20  1  0  0  0
 19  3  1  0  0  0
 20 21  1  0  0  0
 20 25  1  0  0  0
 21 22  1  0  0  0
 21 23  2  0  0  0
M  END
>  <CHROM.0>
179.71942448,153.30194312,49.63337753

>  <CHROM.1>
-68.26167413,-106.89175797,60.90879877,131.65230827,90.49543774,19.77843326
-105.34124089,1.62299228,-1.32748136,2.89141302

>  <Energy>
59.66082926293785

>  <Genealogy>
CO[C@@H]1O[C@@H]2CO[C@@H](c3ccccc3)O[C@H]2[C@@H](O)[C@H]1NC(C)=O (3D coordinates assigned)
CO[C@@H]1O[C@@H]2CO[C@@H](c3ccccc3)O[C@H]2[C@@H](O)[C@H]1NC(C)=O (nonaromatic ring conformer: 59.66082926293785 kcal/mol)

>  <Name>
ZINC000616591357

>  <RI>
3.95439e+07

>  <Rbt.Current_Directory>
/home/edward/Documentos/Virtual_Screening/rDock/2

>  <Rbt.Executable>
rbdock ($Id: //depot/dev/client3/rdock/2013.1/src/exe/rbdock.cxx#4 $)

>  <Rbt.Library>
libRbt.so (2013.1, Build901 2013/11/27)

>  <Rbt.Parameter_File>
/home/edward/anaconda3/envs/MD/share/rdock-2013.1-1/data/scripts/dock.prm

>  <Rbt.Receptor>
parameters.prm

>  <SCORE>
-14.4839

>  <SCORE.INTER>
-16.4885

>  <SCORE.INTER.CONST>
1

>  <SCORE.INTER.POLAR>
-1.30061

>  <SCORE.INTER.REPUL>
0.0159708

>  <SCORE.INTER.ROT>
3

>  <SCORE.INTER.VDW>
-20.5463

>  <SCORE.INTER.norm>
-0.716893

>  <SCORE.INTRA>
-0.585333

>  <SCORE.INTRA.DIHEDRAL>
-2.75228

>  <SCORE.INTRA.DIHEDRAL.0>
5.00085

>  <SCORE.INTRA.POLAR>
0

>  <SCORE.INTRA.POLAR.0>
0

>  <SCORE.INTRA.REPUL>
0

>  <SCORE.INTRA.REPUL.0>
0

>  <SCORE.INTRA.VDW>
0.790805

>  <SCORE.INTRA.VDW.0>
-1.81253

>  <SCORE.INTRA.norm>
-0.0254493

>  <SCORE.RESTR>
0.196153

>  <SCORE.RESTR.CAVITY>
0.196153

>  <SCORE.RESTR.norm>
0.00852841

>  <SCORE.SYSTEM>
2.39382

>  <SCORE.SYSTEM.CONST>
0

>  <SCORE.SYSTEM.DIHEDRAL>
3.27734

>  <SCORE.SYSTEM.VDW>
0.75515

>  <SCORE.SYSTEM.norm>
0.104079

>  <SCORE.heavy>
23

>  <SCORE.norm>
-0.629735

>  <SMILES>
CO[C@@H]1O[C@@H]2CO[C@@H](c3ccccc3)O[C@H]2[C@@H](O)[C@H]1NC(C)=O

>  <UniqueID>
320

$$$$
