@<TRIPOS>MOLECULE
MOL
   64    67     1     0     0
SMALL
bcc


@<TRIPOS>ATOM
      1 N1          90.1120    19.9510  -103.7140 n          1 MOL      -0.343000
      2 N2          91.2790    16.9030  -104.6740 n          1 MOL      -0.506800
      3 N3          91.9460    18.1320  -107.3920 n4         1 MOL      -0.681400
      4 C1          90.3560    19.3570  -102.5050 ca         1 MOL       0.058600
      5 C2          90.5480    19.9320  -101.2280 ca         1 MOL      -0.142000
      6 C3          90.8220    19.0330  -100.1290 ca         1 MOL      -0.075000
      7 C4          90.8620    17.6010  -100.3010 ca         1 MOL      -0.149000
      8 C5          90.6410    17.0920  -101.5930 ca         1 MOL      -0.057000
      9 C6          90.3990    17.9660  -102.6720 ca         1 MOL      -0.176300
     10 C7          90.1650    17.6070  -104.0790 c3         1 MOL       0.160900
     11 C8          89.9390    18.9570  -104.6350 c          1 MOL       0.715500
     12 C9          89.0510    16.6760  -104.2800 ce         1 MOL      -0.271400
     13 C10         89.5340    15.5380  -104.7890 cf         1 MOL       0.104900
     14 C11         90.8660    15.6540  -104.9970 c          1 MOL       0.704700
     15 C12         90.7170    21.8220  -105.3070 c3         1 MOL      -0.114100
     16 C13         90.0270    21.3720  -103.9940 c3         1 MOL       0.094000
     17 C14         87.6980    16.9090  -104.0170 c          1 MOL       0.615900
     18 C15         86.8090    15.8950  -103.6140 ca         1 MOL      -0.246600
     19 C16         86.8550    15.3480  -102.3130 ca         1 MOL      -0.051000
     20 C17         85.9510    14.3380  -101.9380 ca         1 MOL      -0.195500
     21 C18         84.9940    13.8550  -102.8540 ca         1 MOL       0.183100
     22 C19         84.9420    14.4100  -104.1520 ca         1 MOL      -0.195500
     23 C20         85.8420    15.4230  -104.5270 ca         1 MOL      -0.051000
     24 C21         83.5840    13.0770  -101.0870 c3         1 MOL       0.123400
     25 C22         83.6120    11.7060  -100.3850 c3         1 MOL      -0.133100
     26 C23         92.5900    17.4280  -105.0170 c3         1 MOL       0.105000
     27 C24         92.9780    17.4770  -106.5210 c3         1 MOL       0.069800
     28 C25         92.0860    19.6180  -107.5050 c3         1 MOL       0.088600
     29 C26         91.8390    17.4730  -108.7290 c3         1 MOL       0.088600
     30 O1          89.6310    19.1260  -105.8380 o          1 MOL      -0.669500
     31 O2          91.5710    14.7350  -105.4760 o          1 MOL      -0.567500
     32 O3          87.2090    18.0540  -104.1690 o          1 MOL      -0.523100
     33 O4          84.1070    12.9070  -102.4190 os         1 MOL      -0.314900
     34 H1          90.4920    21.0100  -101.0780 ha         1 MOL       0.156000
     35 H2          91.0040    19.4510   -99.1390 ha         1 MOL       0.154000
     36 H3          91.0570    16.9370   -99.4590 ha         1 MOL       0.153000
     37 H4          90.6570    16.0150  -101.7610 ha         1 MOL       0.145000
     38 H5          91.7250    21.4100  -105.3470 hc         1 MOL       0.048700
     39 H6          90.1440    21.4620  -106.1610 hc         1 MOL       0.048700
     40 H7          90.7690    22.9100  -105.3370 hc         1 MOL       0.048700
     41 H8          88.9670    21.5960  -104.1140 h1         1 MOL       0.077700
     42 H9          90.4900    21.9090  -103.1660 h1         1 MOL       0.077700
     43 H10         87.5930    15.7100  -101.5970 ha         1 MOL       0.147500
     44 H11         85.9900    13.9250  -100.9300 ha         1 MOL       0.160500
     45 H12         84.2010    14.0510  -104.8660 ha         1 MOL       0.160500
     46 H13         85.7930    15.8470  -105.5300 ha         1 MOL       0.147500
     47 H14         84.1860    13.7970  -100.5340 h1         1 MOL       0.066700
     48 H15         82.5600    13.4470  -101.1350 h1         1 MOL       0.066700
     49 H16         83.7940    11.8480   -99.3200 hc         1 MOL       0.053033
     50 H17         82.6540    11.2050  -100.5260 hc         1 MOL       0.053033
     51 H18         84.4080    11.0950  -100.8110 hc         1 MOL       0.053033
     52 H19         93.2930    16.7230  -104.5740 h1         1 MOL       0.090200
     53 H20         92.6440    18.4470  -104.6330 h1         1 MOL       0.090200
     54 H21         93.8840    18.0790  -106.5950 hx         1 MOL       0.116700
     55 H22         93.1260    16.4560  -106.8720 hx         1 MOL       0.116700
     56 H23         93.0280    19.8570  -107.9990 hx         1 MOL       0.101033
     57 H24         91.2580    20.0180  -108.0900 hx         1 MOL       0.101033
     58 H25         92.0760    20.0610  -106.5090 hx         1 MOL       0.101033
     59 H26         91.3240    18.1390  -109.4210 hx         1 MOL       0.101033
     60 H27         92.8370    17.2560  -109.1090 hx         1 MOL       0.101033
     61 H28         91.2760    16.5440  -108.6330 hx         1 MOL       0.101033
     62 H29         91.0480    17.9680  -106.9320 hn         1 MOL       0.486800
     63 O5          88.7930    14.3780  -105.0940 oh         1 MOL      -0.433100
     64 H30         88.6630    13.9380  -104.2530 ho         1 MOL       0.459000
@<TRIPOS>BOND
     1     1     4 1   
     2     2    10 1   
     3     3    27 1   
     4     3    62 1   
     5     4     5 ar  
     6     5     6 ar  
     7     5    34 1   
     8     6    35 1   
     9     6     7 ar  
    10     7    36 1   
    11     7     8 ar  
    12     8    37 1   
    13     4     9 ar  
    14     8     9 ar  
    15     9    10 1   
    16     1    11 1   
    17    10    11 1   
    18    10    12 1   
    19    12    17 1   
    20    12    13 2   
    21     2    14 1   
    22    13    14 1   
    23    15    16 1   
    24    15    38 1   
    25    15    39 1   
    26    15    40 1   
    27     1    16 1   
    28    16    41 1   
    29    16    42 1   
    30    17    18 1   
    31    18    19 ar  
    32    19    20 ar  
    33    19    43 1   
    34    20    44 1   
    35    20    21 ar  
    36    21    33 1   
    37    21    22 ar  
    38    22    45 1   
    39    18    23 ar  
    40    22    23 ar  
    41    23    46 1   
    42    24    25 1   
    43    24    47 1   
    44    24    48 1   
    45    25    49 1   
    46    25    50 1   
    47    25    51 1   
    48     2    26 1   
    49    26    52 1   
    50    26    53 1   
    51    26    27 1   
    52    27    54 1   
    53    27    55 1   
    54     3    28 1   
    55    28    56 1   
    56    28    57 1   
    57    28    58 1   
    58     3    29 1   
    59    29    59 1   
    60    29    60 1   
    61    29    61 1   
    62    11    30 2   
    63    14    31 2   
    64    17    32 2   
    65    24    33 1   
    66    63    64 1   
    67    13    63 1   
@<TRIPOS>SUBSTRUCTURE
     1 MOL         1 TEMP              0 ****  ****    0 ROOT
